# DDEC6 charges by PACMAN v1.1 (https://github.com/mtap-research/PACMAN-charge/)
data_0000[CuZr][flu]3[ASR]1
_chemical_formula_sum              "Zr12 Cu16 H48 C96 S16 N16 O48"
_cell_length_a       16.3246
_cell_length_b       16.3246
_cell_length_c       29.1864
_cell_angle_alpha    90
_cell_angle_beta     90
_cell_angle_gamma    90

_symmetry_space_group_name_H-M    "P 1"
_symmetry_Int_Tables_number       1

loop_
  _symmetry_equiv_pos_as_xyz
  'x, y, z'

loop_
  _atom_site_type_symbol
  _atom_site_label
  _atom_site_symmetry_multiplicity
  _atom_site_fract_x
  _atom_site_fract_y
  _atom_site_fract_z
  _atom_site_occupancy
  _atom_site_charge
Zr  Zr1       1.0  0.39356  0.60644  0.50000  1.0000 2.3595626019
Zr  Zr2       1.0  0.60644  0.39356  0.50000  1.0000 2.3595626019
Zr  Zr3       1.0  0.89356  0.89356  0.00000  1.0000 2.3595626019
Zr  Zr4       1.0  0.10644  0.10644  0.00000  1.0000 2.3595626019
Zr  Zr5       1.0  0.42354  0.42354  0.56055  1.0000 2.4617784881
Zr  Zr6       1.0  0.57646  0.57646  0.56055  1.0000 2.4617784881
Zr  Zr7       1.0  0.07646  0.92354  0.06055  1.0000 2.4617784881
Zr  Zr8       1.0  0.92354  0.07646  0.06055  1.0000 2.4617784881
Zr  Zr9       1.0  0.07646  0.92354  0.93945  1.0000 2.4617784881
Zr  Zr10      1.0  0.92354  0.07646  0.93945  1.0000 2.4617784881
Zr  Zr11      1.0  0.42354  0.42354  0.43945  1.0000 2.4617784881
Zr  Zr12      1.0  0.57646  0.57646  0.43945  1.0000 2.4617784881
Cu  Cu1       1.0  0.07808  0.46262  0.27914  1.0000 0.1763592642
Cu  Cu2       1.0  0.92192  0.53738  0.27914  1.0000 0.1763592642
Cu  Cu3       1.0  0.03738  0.57808  0.77914  1.0000 0.1763592642
Cu  Cu4       1.0  0.96262  0.42192  0.77914  1.0000 0.1763592642
Cu  Cu5       1.0  0.42192  0.96262  0.22086  1.0000 0.1763592642
Cu  Cu6       1.0  0.57808  0.03738  0.22086  1.0000 0.1763592642
Cu  Cu7       1.0  0.46262  0.07808  0.72086  1.0000 0.1763592642
Cu  Cu8       1.0  0.53738  0.92192  0.72086  1.0000 0.1763592642
Cu  Cu9       1.0  0.92192  0.53738  0.72086  1.0000 0.1763592642
Cu  Cu10      1.0  0.07808  0.46262  0.72086  1.0000 0.1763592642
Cu  Cu11      1.0  0.96262  0.42192  0.22086  1.0000 0.1763592642
Cu  Cu12      1.0  0.03738  0.57808  0.22086  1.0000 0.1763592642
Cu  Cu13      1.0  0.57808  0.03738  0.77914  1.0000 0.1763592642
Cu  Cu14      1.0  0.42192  0.96262  0.77914  1.0000 0.1763592642
Cu  Cu15      1.0  0.53738  0.92192  0.27914  1.0000 0.1763592642
Cu  Cu16      1.0  0.46262  0.07808  0.27914  1.0000 0.1763592642
H   H1        1.0  0.19610  0.46660  0.35660  1.0000 0.1048160713
H   H2        1.0  0.18500  0.69180  0.41410  1.0000 0.1207366763
H   H3        1.0  0.08390  0.72580  0.36150  1.0000 0.1334014405
H   H4        1.0  0.80390  0.53340  0.35660  1.0000 0.1048160713
H   H5        1.0  0.81500  0.30820  0.41410  1.0000 0.1207366763
H   H6        1.0  0.91610  0.27420  0.36150  1.0000 0.1334014405
H   H7        1.0  0.03340  0.69610  0.85660  1.0000 0.1048160713
H   H8        1.0  0.80820  0.68500  0.91410  1.0000 0.1207366763
H   H9        1.0  0.77420  0.58390  0.86150  1.0000 0.1334014405
H   H10       1.0  0.96660  0.30390  0.85660  1.0000 0.1048160713
H   H11       1.0  0.19180  0.31500  0.91410  1.0000 0.1207366763
H   H12       1.0  0.22580  0.41610  0.86150  1.0000 0.1334014405
H   H13       1.0  0.30390  0.96660  0.14340  1.0000 0.1048160713
H   H14       1.0  0.31500  0.19180  0.08590  1.0000 0.1207366763
H   H15       1.0  0.41610  0.22580  0.13850  1.0000 0.1334014405
H   H16       1.0  0.69610  0.03340  0.14340  1.0000 0.1048160713
H   H17       1.0  0.68500  0.80820  0.08590  1.0000 0.1207366763
H   H18       1.0  0.58390  0.77420  0.13850  1.0000 0.1334014405
H   H19       1.0  0.46660  0.19610  0.64340  1.0000 0.1048160713
H   H20       1.0  0.69180  0.18500  0.58590  1.0000 0.1207366763
H   H21       1.0  0.72580  0.08390  0.63850  1.0000 0.1334014405
H   H22       1.0  0.53340  0.80390  0.64340  1.0000 0.1048160713
H   H23       1.0  0.30820  0.81500  0.58590  1.0000 0.1207366763
H   H24       1.0  0.27420  0.91610  0.63850  1.0000 0.1334014405
H   H25       1.0  0.80390  0.53340  0.64340  1.0000 0.1048160713
H   H26       1.0  0.81500  0.30820  0.58590  1.0000 0.1207366763
H   H27       1.0  0.91610  0.27420  0.63850  1.0000 0.1334014405
H   H28       1.0  0.19610  0.46660  0.64340  1.0000 0.1048160713
H   H29       1.0  0.18500  0.69180  0.58590  1.0000 0.1207366763
H   H30       1.0  0.08390  0.72580  0.63850  1.0000 0.1334014405
H   H31       1.0  0.96660  0.30390  0.14340  1.0000 0.1048160713
H   H32       1.0  0.19180  0.31500  0.08590  1.0000 0.1207366763
H   H33       1.0  0.22580  0.41610  0.13850  1.0000 0.1334014405
H   H34       1.0  0.03340  0.69610  0.14340  1.0000 0.1048160713
H   H35       1.0  0.80820  0.68500  0.08590  1.0000 0.1207366763
H   H36       1.0  0.77420  0.58390  0.13850  1.0000 0.1334014405
H   H37       1.0  0.69610  0.03340  0.85660  1.0000 0.1048160713
H   H38       1.0  0.68500  0.80820  0.91410  1.0000 0.1207366763
H   H39       1.0  0.58390  0.77420  0.86150  1.0000 0.1334014405
H   H40       1.0  0.30390  0.96660  0.85660  1.0000 0.1048160713
H   H41       1.0  0.31500  0.19180  0.91410  1.0000 0.1207366763
H   H42       1.0  0.41610  0.22580  0.86150  1.0000 0.1334014405
H   H43       1.0  0.53340  0.80390  0.35660  1.0000 0.1048160713
H   H44       1.0  0.30820  0.81500  0.41410  1.0000 0.1207366763
H   H45       1.0  0.27420  0.91610  0.36150  1.0000 0.1334014405
H   H46       1.0  0.46660  0.19610  0.35660  1.0000 0.1048160713
H   H47       1.0  0.69180  0.18500  0.41410  1.0000 0.1207366763
H   H48       1.0  0.72580  0.08390  0.36150  1.0000 0.1334014405
C   C1        1.0  0.26990  0.54940  0.42240  1.0000 0.6300304049
C   C2        1.0  0.20220  0.57530  0.39080  1.0000 -0.0972354309
C   C3        1.0  0.17310  0.52000  0.35793  1.0000 0.0604529954
C   C4        1.0  0.08160  0.61590  0.32956  1.0000 0.2272302248
C   C5        1.0  0.16740  0.65280  0.39202  1.0000 -0.0540091462
C   C6        1.0  0.10760  0.67260  0.36112  1.0000 -0.1739739868
C   C7        1.0  0.73010  0.45060  0.42240  1.0000 0.6300304049
C   C8        1.0  0.79780  0.42470  0.39080  1.0000 -0.0972354309
C   C9        1.0  0.82690  0.48000  0.35793  1.0000 0.0604529954
C   C10       1.0  0.91840  0.38410  0.32956  1.0000 0.2272302248
C   C11       1.0  0.83260  0.34720  0.39202  1.0000 -0.0540091462
C   C12       1.0  0.89240  0.32740  0.36112  1.0000 -0.1739739868
C   C13       1.0  0.95060  0.76990  0.92240  1.0000 0.6300304049
C   C14       1.0  0.92470  0.70220  0.89080  1.0000 -0.0972354309
C   C15       1.0  0.98000  0.67310  0.85793  1.0000 0.0604529954
C   C16       1.0  0.88410  0.58160  0.82956  1.0000 0.2272302248
C   C17       1.0  0.84720  0.66740  0.89202  1.0000 -0.0540091462
C   C18       1.0  0.82740  0.60760  0.86112  1.0000 -0.1739739868
C   C19       1.0  0.04940  0.23010  0.92240  1.0000 0.6300304049
C   C20       1.0  0.07530  0.29780  0.89080  1.0000 -0.0972354309
C   C21       1.0  0.02000  0.32690  0.85793  1.0000 0.0604529954
C   C22       1.0  0.11590  0.41840  0.82956  1.0000 0.2272302248
C   C23       1.0  0.15280  0.33260  0.89202  1.0000 -0.0540091462
C   C24       1.0  0.17260  0.39240  0.86112  1.0000 -0.1739739868
C   C25       1.0  0.23010  0.04940  0.07760  1.0000 0.6300304049
C   C26       1.0  0.29780  0.07530  0.10920  1.0000 -0.0972354309
C   C27       1.0  0.32690  0.02000  0.14207  1.0000 0.0604529954
C   C28       1.0  0.41840  0.11590  0.17044  1.0000 0.2272302248
C   C29       1.0  0.33260  0.15280  0.10798  1.0000 -0.0540091462
C   C30       1.0  0.39240  0.17260  0.13888  1.0000 -0.1739739868
C   C31       1.0  0.76990  0.95060  0.07760  1.0000 0.6300304049
C   C32       1.0  0.70220  0.92470  0.10920  1.0000 -0.0972354309
C   C33       1.0  0.67310  0.98000  0.14207  1.0000 0.0604529954
C   C34       1.0  0.58160  0.88410  0.17044  1.0000 0.2272302248
C   C35       1.0  0.66740  0.84720  0.10798  1.0000 -0.0540091462
C   C36       1.0  0.60760  0.82740  0.13888  1.0000 -0.1739739868
C   C37       1.0  0.54940  0.26990  0.57760  1.0000 0.6300304049
C   C38       1.0  0.57530  0.20220  0.60920  1.0000 -0.0972354309
C   C39       1.0  0.52000  0.17310  0.64207  1.0000 0.0604529954
C   C40       1.0  0.61590  0.08160  0.67044  1.0000 0.2272302248
C   C41       1.0  0.65280  0.16740  0.60798  1.0000 -0.0540091462
C   C42       1.0  0.67260  0.10760  0.63888  1.0000 -0.1739739868
C   C43       1.0  0.45060  0.73010  0.57760  1.0000 0.6300304049
C   C44       1.0  0.42470  0.79780  0.60920  1.0000 -0.0972354309
C   C45       1.0  0.48000  0.82690  0.64207  1.0000 0.0604529954
C   C46       1.0  0.38410  0.91840  0.67044  1.0000 0.2272302248
C   C47       1.0  0.34720  0.83260  0.60798  1.0000 -0.0540091462
C   C48       1.0  0.32740  0.89240  0.63888  1.0000 -0.1739739868
C   C49       1.0  0.73010  0.45060  0.57760  1.0000 0.6300304049
C   C50       1.0  0.79780  0.42470  0.60920  1.0000 -0.0972354309
C   C51       1.0  0.82690  0.48000  0.64207  1.0000 0.0604529954
C   C52       1.0  0.91840  0.38410  0.67044  1.0000 0.2272302248
C   C53       1.0  0.83260  0.34720  0.60798  1.0000 -0.0540091462
C   C54       1.0  0.89240  0.32740  0.63888  1.0000 -0.1739739868
C   C55       1.0  0.26990  0.54940  0.57760  1.0000 0.6300304049
C   C56       1.0  0.20220  0.57530  0.60920  1.0000 -0.0972354309
C   C57       1.0  0.17310  0.52000  0.64207  1.0000 0.0604529954
C   C58       1.0  0.08160  0.61590  0.67044  1.0000 0.2272302248
C   C59       1.0  0.16740  0.65280  0.60798  1.0000 -0.0540091462
C   C60       1.0  0.10760  0.67260  0.63888  1.0000 -0.1739739868
C   C61       1.0  0.04940  0.23010  0.07760  1.0000 0.6300304049
C   C62       1.0  0.07530  0.29780  0.10920  1.0000 -0.0972354309
C   C63       1.0  0.02000  0.32690  0.14207  1.0000 0.0604529954
C   C64       1.0  0.11590  0.41840  0.17044  1.0000 0.2272302248
C   C65       1.0  0.15280  0.33260  0.10798  1.0000 -0.0540091462
C   C66       1.0  0.17260  0.39240  0.13888  1.0000 -0.1739739868
C   C67       1.0  0.95060  0.76990  0.07760  1.0000 0.6300304049
C   C68       1.0  0.92470  0.70220  0.10920  1.0000 -0.0972354309
C   C69       1.0  0.98000  0.67310  0.14207  1.0000 0.0604529954
C   C70       1.0  0.88410  0.58160  0.17044  1.0000 0.2272302248
C   C71       1.0  0.84720  0.66740  0.10798  1.0000 -0.0540091462
C   C72       1.0  0.82740  0.60760  0.13888  1.0000 -0.1739739868
C   C73       1.0  0.76990  0.95060  0.92240  1.0000 0.6300304049
C   C74       1.0  0.70220  0.92470  0.89080  1.0000 -0.0972354309
C   C75       1.0  0.67310  0.98000  0.85793  1.0000 0.0604529954
C   C76       1.0  0.58160  0.88410  0.82956  1.0000 0.2272302248
C   C77       1.0  0.66740  0.84720  0.89202  1.0000 -0.0540091462
C   C78       1.0  0.60760  0.82740  0.86112  1.0000 -0.1739739868
C   C79       1.0  0.23010  0.04940  0.92240  1.0000 0.6300304049
C   C80       1.0  0.29780  0.07530  0.89080  1.0000 -0.0972354309
C   C81       1.0  0.32690  0.02000  0.85793  1.0000 0.0604529954
C   C82       1.0  0.41840  0.11590  0.82956  1.0000 0.2272302248
C   C83       1.0  0.33260  0.15280  0.89202  1.0000 -0.0540091462
C   C84       1.0  0.39240  0.17260  0.86112  1.0000 -0.1739739868
C   C85       1.0  0.45060  0.73010  0.42240  1.0000 0.6300304049
C   C86       1.0  0.42470  0.79780  0.39080  1.0000 -0.0972354309
C   C87       1.0  0.48000  0.82690  0.35793  1.0000 0.0604529954
C   C88       1.0  0.38410  0.91840  0.32956  1.0000 0.2272302248
C   C89       1.0  0.34720  0.83260  0.39202  1.0000 -0.0540091462
C   C90       1.0  0.32740  0.89240  0.36112  1.0000 -0.1739739868
C   C91       1.0  0.54940  0.26990  0.42240  1.0000 0.6300304049
C   C92       1.0  0.57530  0.20220  0.39080  1.0000 -0.0972354309
C   C93       1.0  0.52000  0.17310  0.35793  1.0000 0.0604529954
C   C94       1.0  0.61590  0.08160  0.32956  1.0000 0.2272302248
C   C95       1.0  0.65280  0.16740  0.39202  1.0000 -0.0540091462
C   C96       1.0  0.67260  0.10760  0.36112  1.0000 -0.1739739868
S   S1        1.0  0.00775  0.64447  0.28829  1.0000 -0.3036832718
S   S2        1.0  0.99225  0.35553  0.28829  1.0000 -0.3036832718
S   S3        1.0  0.85553  0.50775  0.78829  1.0000 -0.3036832718
S   S4        1.0  0.14447  0.49225  0.78829  1.0000 -0.3036832718
S   S5        1.0  0.49225  0.14447  0.21171  1.0000 -0.3036832718
S   S6        1.0  0.50775  0.85553  0.21171  1.0000 -0.3050313926
S   S7        1.0  0.64447  0.00775  0.71171  1.0000 -0.3036832718
S   S8        1.0  0.35553  0.99225  0.71171  1.0000 -0.3036832718
S   S9        1.0  0.99225  0.35553  0.71171  1.0000 -0.3036832718
S   S10       1.0  0.00775  0.64447  0.71171  1.0000 -0.3036832718
S   S11       1.0  0.14447  0.49225  0.21171  1.0000 -0.3036832718
S   S12       1.0  0.85553  0.50775  0.21171  1.0000 -0.3036832718
S   S13       1.0  0.50775  0.85553  0.78829  1.0000 -0.3050313926
S   S14       1.0  0.49225  0.14447  0.78829  1.0000 -0.3036832718
S   S15       1.0  0.35553  0.99225  0.28829  1.0000 -0.3036832718
S   S16       1.0  0.64447  0.00775  0.28829  1.0000 -0.3036832718
N   N1        1.0  0.11340  0.54020  0.32822  1.0000 -0.2425347454
N   N2        1.0  0.88660  0.45980  0.32822  1.0000 -0.2425347454
N   N3        1.0  0.95980  0.61340  0.82822  1.0000 -0.2425347454
N   N4        1.0  0.04020  0.38660  0.82822  1.0000 -0.2425347454
N   N5        1.0  0.38660  0.04020  0.17178  1.0000 -0.2425347454
N   N6        1.0  0.61340  0.95980  0.17178  1.0000 -0.2425347454
N   N7        1.0  0.54020  0.11340  0.67178  1.0000 -0.2425347454
N   N8        1.0  0.45980  0.88660  0.67178  1.0000 -0.2425347454
N   N9        1.0  0.88660  0.45980  0.67178  1.0000 -0.2425347454
N   N10       1.0  0.11340  0.54020  0.67178  1.0000 -0.2425347454
N   N11       1.0  0.04020  0.38660  0.17178  1.0000 -0.2425347454
N   N12       1.0  0.95980  0.61340  0.17178  1.0000 -0.2425347454
N   N13       1.0  0.61340  0.95980  0.82822  1.0000 -0.2425347454
N   N14       1.0  0.38660  0.04020  0.82822  1.0000 -0.2425347454
N   N15       1.0  0.45980  0.88660  0.32822  1.0000 -0.2425347454
N   N16       1.0  0.54020  0.11340  0.32822  1.0000 -0.2425347454
O   O1        1.0  0.28690  0.59980  0.45435  1.0000 -0.5960871316
O   O2        1.0  0.30490  0.48290  0.41414  1.0000 -0.6205138936
O   O3        1.0  0.71310  0.40020  0.45435  1.0000 -0.5960871316
O   O4        1.0  0.69510  0.51710  0.41414  1.0000 -0.6205138936
O   O5        1.0  0.90020  0.78690  0.95435  1.0000 -0.5923168994
O   O6        1.0  0.01710  0.80490  0.91414  1.0000 -0.6205138936
O   O7        1.0  0.09980  0.21310  0.95435  1.0000 -0.5960871316
O   O8        1.0  0.98290  0.19510  0.91414  1.0000 -0.6205138936
O   O9        1.0  0.21310  0.09980  0.04565  1.0000 -0.5960871316
O   O10       1.0  0.19510  0.98290  0.08586  1.0000 -0.6205138936
O   O11       1.0  0.78690  0.90020  0.04565  1.0000 -0.5923168994
O   O12       1.0  0.80490  0.01710  0.08586  1.0000 -0.6205138936
O   O13       1.0  0.59980  0.28690  0.54565  1.0000 -0.5960871316
O   O14       1.0  0.48290  0.30490  0.58586  1.0000 -0.6205138936
O   O15       1.0  0.40020  0.71310  0.54565  1.0000 -0.5960871316
O   O16       1.0  0.51710  0.69510  0.58586  1.0000 -0.6205138936
O   O17       1.0  0.71310  0.40020  0.54565  1.0000 -0.5960871316
O   O18       1.0  0.69510  0.51710  0.58586  1.0000 -0.6205138936
O   O19       1.0  0.28690  0.59980  0.54565  1.0000 -0.5960871316
O   O20       1.0  0.30490  0.48290  0.58586  1.0000 -0.6205138936
O   O21       1.0  0.09980  0.21310  0.04565  1.0000 -0.5960871316
O   O22       1.0  0.98290  0.19510  0.08586  1.0000 -0.6205138936
O   O23       1.0  0.90020  0.78690  0.04565  1.0000 -0.5923168994
O   O24       1.0  0.01710  0.80490  0.08586  1.0000 -0.6205138936
O   O25       1.0  0.78690  0.90020  0.95435  1.0000 -0.5923168994
O   O26       1.0  0.80490  0.01710  0.91414  1.0000 -0.6205138936
O   O27       1.0  0.21310  0.09980  0.95435  1.0000 -0.5960871316
O   O28       1.0  0.19510  0.98290  0.91414  1.0000 -0.6205138936
O   O29       1.0  0.40020  0.71310  0.45435  1.0000 -0.5960871316
O   O30       1.0  0.51710  0.69510  0.41414  1.0000 -0.6205138936
O   O31       1.0  0.59980  0.28690  0.45435  1.0000 -0.5960871316
O   O32       1.0  0.48290  0.30490  0.41414  1.0000 -0.6205138936
O   O33       1.0  0.37070  0.47520  0.50000  1.0000 -1.1875667509
O   O34       1.0  0.62930  0.52480  0.50000  1.0000 -1.1875667509
O   O35       1.0  0.02480  0.87070  0.00000  1.0000 -1.1875667509
O   O36       1.0  0.97520  0.12930  0.00000  1.0000 -1.183473382
O   O37       1.0  0.12930  0.97520  0.00000  1.0000 -1.183473382
O   O38       1.0  0.87070  0.02480  0.00000  1.0000 -1.1875667509
O   O39       1.0  0.47520  0.37070  0.50000  1.0000 -1.1875667509
O   O40       1.0  0.52480  0.62930  0.50000  1.0000 -1.1875667509
O   O41       1.0  0.44720  0.55280  0.56060  1.0000 -1.1875667509
O   O42       1.0  0.55280  0.44720  0.56060  1.0000 -1.1875667509
O   O43       1.0  0.94720  0.94720  0.06060  1.0000 -1.1875667509
O   O44       1.0  0.05280  0.05280  0.06060  1.0000 -1.183473382
O   O45       1.0  0.05280  0.05280  0.93940  1.0000 -1.1875667509
O   O46       1.0  0.94720  0.94720  0.93940  1.0000 -1.183473382
O   O47       1.0  0.55280  0.44720  0.43940  1.0000 -1.1875667509
O   O48       1.0  0.44720  0.55280  0.43940  1.0000 -1.1875667509
