# DDEC6 charges by PACMAN v1.1 (https://github.com/mtap-research/PACMAN-charge/)
data_0000[Cd][nan]3[ASR]11
_chemical_formula_sum              "Cd8 H120 C148 N32 O36"
_cell_length_a       12.711
_cell_length_b       24.3
_cell_length_c       15.085
_cell_angle_alpha    90
_cell_angle_beta     92.506
_cell_angle_gamma    90

_symmetry_space_group_name_H-M    "P 1"
_symmetry_Int_Tables_number       1

loop_
  _symmetry_equiv_pos_as_xyz
  'x, y, z'

loop_
  _atom_site_type_symbol
  _atom_site_label
  _atom_site_symmetry_multiplicity
  _atom_site_fract_x
  _atom_site_fract_y
  _atom_site_fract_z
  _atom_site_occupancy
  _atom_site_charge
Cd  Cd1       1.0  0.03719  0.86584  0.44515  1.0000 0.8807079234
Cd  Cd2       1.0  0.96281  0.36584  0.55485  1.0000 0.8807079234
Cd  Cd3       1.0  0.50297  0.86029  0.72102  1.0000 0.8807079234
Cd  Cd4       1.0  0.49703  0.36029  0.27898  1.0000 0.8807079234
Cd  Cd5       1.0  0.04162  0.87027  0.17318  1.0000 0.9306264557
Cd  Cd6       1.0  0.95838  0.37027  0.82682  1.0000 0.9306264557
Cd  Cd7       1.0  0.48973  0.86613  0.99336  1.0000 0.9306264557
Cd  Cd8       1.0  0.51027  0.36613  0.00664  1.0000 0.9306264557
H   H1        1.0  0.56560  0.22810  0.31280  1.0000 0.1204666086
H   H2        1.0  0.43440  0.72810  0.68720  1.0000 0.1204666086
H   H3        1.0  0.69900  0.34190  0.75390  1.0000 0.1375672341
H   H4        1.0  0.30100  0.84190  0.24610  1.0000 0.1375672341
H   H5        1.0  0.04050  0.89000  0.78050  1.0000 0.1204666086
H   H6        1.0  0.95950  0.39000  0.21950  1.0000 0.1204666086
H   H7        1.0  0.42520  0.73420  0.94970  1.0000 0.1112883367
H   H8        1.0  0.57480  0.23420  0.05030  1.0000 0.1112883367
H   H9        1.0  0.54980  0.99010  0.67050  1.0000 0.1204666086
H   H10       1.0  0.45020  0.49010  0.32950  1.0000 0.1204666086
H   H11       1.0  0.22330  0.85230  0.97020  1.0000 0.1307566248
H   H12       1.0  0.77670  0.35230  0.02980  1.0000 0.1307566248
H   H13       1.0  0.54060  0.99610  0.93730  1.0000 0.1112883367
H   H14       1.0  0.45940  0.49610  0.06270  1.0000 0.1112883367
H   H15       1.0  0.48900  0.87740  0.38360  1.0000 0.1204666086
H   H16       1.0  0.51100  0.37740  0.61640  1.0000 0.1204666086
H   H17       1.0  0.86250  0.79650  0.93630  1.0000 0.1204666086
H   H18       1.0  0.13750  0.29650  0.06370  1.0000 0.1204666086
H   H19       1.0  0.88930  0.14500  0.58170  1.0000 0.1307566248
H   H20       1.0  0.11070  0.64500  0.41830  1.0000 0.1307566248
H   H21       1.0  0.75270  0.73350  0.93960  1.0000 0.1112883367
H   H22       1.0  0.24730  0.23350  0.06040  1.0000 0.1112883367
H   H23       1.0  0.96820  0.99500  0.39440  1.0000 0.1112883367
H   H24       1.0  0.03180  0.49500  0.60560  1.0000 0.1112883367
H   H25       1.0  0.56530  0.08150  0.66830  1.0000 0.1307566248
H   H26       1.0  0.43470  0.58150  0.33170  1.0000 0.1307566248
H   H27       1.0  0.09240  0.67800  0.92290  1.0000 0.1375672341
H   H28       1.0  0.90760  0.17800  0.07710  1.0000 0.1375672341
H   H29       1.0  0.86130  0.64820  0.28840  1.0000 0.1375672341
H   H30       1.0  0.13870  0.14820  0.71160  1.0000 0.1375672341
H   H31       1.0  0.94800  0.67720  0.23420  1.0000 0.1204666086
H   H32       1.0  0.05200  0.17720  0.76580  1.0000 0.1204666086
H   H33       1.0  0.95170  0.68140  0.33800  1.0000 0.1204666086
H   H34       1.0  0.04830  0.18140  0.66200  1.0000 0.1204666086
H   H35       1.0  0.35520  0.56440  0.83480  1.0000 0.1375672341
H   H36       1.0  0.64480  0.06440  0.16520  1.0000 0.1375672341
H   H37       1.0  0.79310  0.72970  0.22560  1.0000 0.1112883367
H   H38       1.0  0.20690  0.22970  0.77440  1.0000 0.1112883367
H   H39       1.0  0.87090  0.05410  0.62850  1.0000 0.1307566248
H   H40       1.0  0.12910  0.55410  0.37150  1.0000 0.1307566248
H   H41       1.0  0.85630  0.77070  0.67300  1.0000 0.1501903505
H   H42       1.0  0.14370  0.27070  0.32700  1.0000 0.1501903505
H   H43       1.0  0.68260  0.79250  0.22990  1.0000 0.1307566248
H   H44       1.0  0.31740  0.29250  0.77010  1.0000 0.1307566248
H   H45       1.0  0.69200  0.34020  0.50440  1.0000 0.1501903505
H   H46       1.0  0.30800  0.84020  0.49560  1.0000 0.1501903505
H   H47       1.0  0.60140  0.14810  0.38110  1.0000 0.1307566248
H   H48       1.0  0.39860  0.64810  0.61890  1.0000 0.1307566248
H   H49       1.0  0.39110  0.65420  0.86810  1.0000 0.1307566248
H   H50       1.0  0.60890  0.15420  0.13190  1.0000 0.1307566248
H   H51       1.0  0.85550  0.97740  0.72540  1.0000 0.1375672341
H   H52       1.0  0.14450  0.47740  0.27460  1.0000 0.1375672341
H   H53       1.0  0.60780  0.25330  0.77310  1.0000 0.1307566248
H   H54       1.0  0.39220  0.75330  0.22690  1.0000 0.1307566248
H   H55       1.0  0.02710  0.50190  0.86430  1.0000 0.1204666086
H   H56       1.0  0.97290  0.00190  0.13570  1.0000 0.1204666086
H   H57       1.0  0.69130  0.76610  0.49260  1.0000 0.1501903505
H   H58       1.0  0.30870  0.26610  0.50740  1.0000 0.1501903505
H   H59       1.0  0.86210  0.05480  0.88330  1.0000 0.1375672341
H   H60       1.0  0.13790  0.55480  0.11670  1.0000 0.1375672341
H   H61       1.0  0.90600  0.23910  0.60350  1.0000 0.1204666086
H   H62       1.0  0.09400  0.73910  0.39650  1.0000 0.1204666086
H   H63       1.0  0.58030  0.17480  0.87420  1.0000 0.1375672341
H   H64       1.0  0.41970  0.67480  0.12580  1.0000 0.1375672341
H   H65       1.0  0.76780  0.89180  0.76490  1.0000 0.1307566248
H   H66       1.0  0.23220  0.39180  0.23510  1.0000 0.1307566248
H   H67       1.0  0.60480  0.25170  0.52660  1.0000 0.1307566248
H   H68       1.0  0.39520  0.75170  0.47340  1.0000 0.1307566248
H   H69       1.0  0.76140  0.89070  0.00870  1.0000 0.1375672341
H   H70       1.0  0.23860  0.39070  0.99130  1.0000 0.1375672341
H   H71       1.0  0.84650  0.97590  0.96290  1.0000 0.1307566248
H   H72       1.0  0.15350  0.47590  0.03710  1.0000 0.1307566248
H   H73       1.0  0.30930  0.48080  0.77320  1.0000 0.1307566248
H   H74       1.0  0.69070  0.98080  0.22680  1.0000 0.1307566248
H   H75       1.0  0.87020  0.26380  0.32270  1.0000 0.1307566248
H   H76       1.0  0.12980  0.76380  0.67730  1.0000 0.1307566248
H   H77       1.0  0.76840  0.34720  0.28610  1.0000 0.1375672341
H   H78       1.0  0.23160  0.84720  0.71390  1.0000 0.1375672341
H   H79       1.0  0.58360  0.17200  0.62180  1.0000 0.1375672341
H   H80       1.0  0.41640  0.67200  0.37820  1.0000 0.1375672341
H   H81       1.0  0.78130  0.88820  0.49270  1.0000 0.1375672341
H   H82       1.0  0.21870  0.38820  0.50730  1.0000 0.1375672341
H   H83       1.0  0.88480  0.14660  0.84280  1.0000 0.1307566248
H   H84       1.0  0.11520  0.64660  0.15720  1.0000 0.1307566248
H   H85       1.0  0.69100  0.65030  0.87820  1.0000 0.1307566248
H   H86       1.0  0.30900  0.15030  0.12180  1.0000 0.1307566248
H   H87       1.0  0.60000  0.67930  0.92730  1.0000 0.1204666086
H   H88       1.0  0.40000  0.17930  0.07270  1.0000 0.1204666086
H   H89       1.0  0.60220  0.68180  0.82360  1.0000 0.1307566248
H   H90       1.0  0.39780  0.18180  0.17640  1.0000 0.1307566248
H   H91       1.0  0.63680  0.05740  0.41550  1.0000 0.1375672341
H   H92       1.0  0.36320  0.55740  0.58450  1.0000 0.1375672341
H   H93       1.0  0.94130  0.08350  0.37780  1.0000 0.1307566248
H   H94       1.0  0.05870  0.58350  0.62220  1.0000 0.1307566248
H   H95       1.0  0.56030  0.08570  0.92120  1.0000 0.1307566248
H   H96       1.0  0.43970  0.58570  0.07880  1.0000 0.1307566248
H   H97       1.0  0.68120  0.97410  0.47420  1.0000 0.1307566248
H   H98       1.0  0.31880  0.47410  0.52580  1.0000 0.1307566248
H   H99       1.0  0.21380  0.39410  0.76050  1.0000 0.1375672341
H   H100      1.0  0.78620  0.89410  0.23950  1.0000 0.1375672341
H   H101      1.0  0.90370  0.17310  0.33560  1.0000 0.1375672341
H   H102      1.0  0.09630  0.67310  0.66440  1.0000 0.1375672341
H   H103      1.0  0.05230  0.59050  0.87800  1.0000 0.1375672341
H   H104      1.0  0.94770  0.09050  0.12200  1.0000 0.1375672341
H   H105      1.0  0.12180  0.77080  0.92340  1.0000 0.1307566248
H   H106      1.0  0.87820  0.27080  0.07660  1.0000 0.1307566248
H   H107      1.0  0.90150  0.24140  0.87300  1.0000 0.1204666086
H   H108      1.0  0.09850  0.74140  0.12700  1.0000 0.1204666086
H   H109      1.0  0.25580  0.99330  0.80870  1.0000 0.1595804096
H   H110      1.0  0.74420  0.49330  0.19130  1.0000 0.1595804096
H   H111      1.0  0.24310  0.94930  0.88360  1.0000 0.1689006687
H   H112      1.0  0.75690  0.44930  0.11640  1.0000 0.1689006687
H   H113      1.0  0.33020  0.99480  0.89440  1.0000 0.1375672341
H   H114      1.0  0.66980  0.49480  0.10560  1.0000 0.1375672341
H   H115      1.0  0.27880  0.99620  0.35230  1.0000 0.1595804096
H   H116      1.0  0.72120  0.49620  0.64770  1.0000 0.1595804096
H   H117      1.0  0.28900  0.95290  0.27600  1.0000 0.1689006687
H   H118      1.0  0.71100  0.45290  0.72400  1.0000 0.1689006687
H   H119      1.0  0.20120  0.99820  0.26870  1.0000 0.1375672341
H   H120      1.0  0.79880  0.49820  0.73130  1.0000 0.1375672341
C   C1        1.0  0.00280  0.87618  0.95430  1.0000 0.5420013108
C   C2        1.0  0.99720  0.37618  0.04570  1.0000 0.5420013108
C   C3        1.0  0.37070  0.93346  0.80790  1.0000 0.6672992148
C   C4        1.0  0.62930  0.43346  0.19210  1.0000 0.6672992148
C   C5        1.0  0.24520  0.67561  0.90030  1.0000 0.1501903505
C   C6        1.0  0.75480  0.17561  0.09970  1.0000 0.1501903505
C   C7        1.0  0.63520  0.78383  0.88410  1.0000 0.5500000852
C   C8        1.0  0.36480  0.28383  0.11590  1.0000 0.5500000852
C   C9        1.0  0.62860  0.24733  0.30940  1.0000 0.0901016767
C   C10       1.0  0.37140  0.74733  0.69060  1.0000 0.0901016767
C   C11       1.0  0.55020  0.83790  0.54370  1.0000 0.5205979981
C   C12       1.0  0.44980  0.33790  0.45630  1.0000 0.5205979981
C   C13       1.0  0.72860  0.31070  0.78040  1.0000 0.0012414376
C   C14       1.0  0.27140  0.81070  0.21960  1.0000 0.0012414376
C   C15       1.0  0.52830  0.86370  0.21080  1.0000 0.5500000852
C   C16       1.0  0.47170  0.36370  0.78920  1.0000 0.5500000852
C   C17       1.0  0.20030  0.56764  0.85220  1.0000 0.1375672341
C   C18       1.0  0.79970  0.06764  0.14780  1.0000 0.1375672341
C   C19       1.0  0.99230  0.86170  0.78740  1.0000 -0.1698661819
C   C20       1.0  0.00770  0.36170  0.21260  1.0000 -0.1698661819
C   C21       1.0  0.57770  0.83812  0.29340  1.0000 -0.0085111933
C   C22       1.0  0.42230  0.33812  0.70660  1.0000 -0.0085111933
C   C23       1.0  0.84610  0.77763  0.80640  1.0000 0.2469622083
C   C24       1.0  0.15390  0.27763  0.19360  1.0000 0.2469622083
C   C25       1.0  0.36200  0.75344  0.94900  1.0000 0.0901016767
C   C26       1.0  0.63800  0.25344  0.05100  1.0000 0.0901016767
C   C27       1.0  0.16680  0.93711  0.35360  1.0000 0.6672992148
C   C28       1.0  0.83320  0.43711  0.64640  1.0000 0.6672992148
C   C29       1.0  0.61530  0.97601  0.68860  1.0000 0.0901016767
C   C30       1.0  0.38470  0.47601  0.31140  1.0000 0.0901016767
C   C31       1.0  0.98950  0.84703  0.62150  1.0000 0.5288897194
C   C32       1.0  0.01050  0.34703  0.37850  1.0000 0.5288897194
C   C33       1.0  0.74920  0.16921  0.35180  1.0000 0.1501903505
C   C34       1.0  0.25080  0.66921  0.64820  1.0000 0.1501903505
C   C35       1.0  0.69860  0.77241  0.36040  1.0000 0.2469622083
C   C36       1.0  0.30140  0.27241  0.63960  1.0000 0.2469622083
C   C37       1.0  0.25180  0.81770  0.96030  1.0000 0.0012414376
C   C38       1.0  0.74820  0.31770  0.03970  1.0000 0.0012414376
C   C39       1.0  0.73930  0.16814  0.60090  1.0000 0.1501903505
C   C40       1.0  0.26070  0.66814  0.39910  1.0000 0.1501903505
C   C41       1.0  0.60620  0.97996  0.94850  1.0000 0.102068274
C   C42       1.0  0.39380  0.47996  0.05150  1.0000 0.102068274
C   C43       1.0  0.54150  0.85110  0.37740  1.0000 -0.1698661819
C   C44       1.0  0.45850  0.35110  0.62260  1.0000 -0.1698661819
C   C45       1.0  0.90700  0.78283  0.27470  1.0000 0.5500000852
C   C46       1.0  0.09300  0.28283  0.72530  1.0000 0.5500000852
C   C47       1.0  0.88520  0.80584  0.88050  1.0000 -0.270543651
C   C48       1.0  0.11480  0.30584  0.11950  1.0000 -0.270543651
C   C49       1.0  0.71640  0.05952  0.65620  1.0000 0.1501903505
C   C50       1.0  0.28360  0.55952  0.34380  1.0000 0.1501903505
C   C51       1.0  0.95390  0.83255  0.71290  1.0000 -0.0085111933
C   C52       1.0  0.04610  0.33255  0.28710  1.0000 -0.0085111933
C   C53       1.0  0.82480  0.13260  0.60050  1.0000 -0.178769535
C   C54       1.0  0.17520  0.63260  0.39950  1.0000 -0.178769535
C   C55       1.0  0.73520  0.16970  0.85520  1.0000 0.1501903505
C   C56       1.0  0.26480  0.66970  0.14480  1.0000 0.1501903505
C   C57       1.0  0.70920  0.73384  0.88440  1.0000 0.0624123924
C   C58       1.0  0.29080  0.23384  0.11560  1.0000 0.0624123924
C   C59       1.0  0.90820  0.97897  0.41620  1.0000 0.102068274
C   C60       1.0  0.09180  0.47897  0.58380  1.0000 0.102068274
C   C61       1.0  0.63070  0.09430  0.65230  1.0000 -0.1879071794
C   C62       1.0  0.36930  0.59430  0.34770  1.0000 -0.1879071794
C   C63       1.0  0.14550  0.65540  0.90320  1.0000 -0.1624266766
C   C64       1.0  0.85450  0.15540  0.09680  1.0000 -0.1624266766
C   C65       1.0  0.90630  0.67986  0.28550  1.0000 -0.4226805306
C   C66       1.0  0.09370  0.17986  0.71450  1.0000 -0.4226805306
C   C67       1.0  0.30100  0.58757  0.85070  1.0000 -0.1698661819
C   C68       1.0  0.69900  0.08757  0.14930  1.0000 -0.1698661819
C   C69       1.0  0.83930  0.73171  0.27920  1.0000 0.0624123924
C   C70       1.0  0.16070  0.23171  0.72080  1.0000 0.0624123924
C   C71       1.0  0.81370  0.07800  0.62840  1.0000 -0.1879071794
C   C72       1.0  0.18630  0.57800  0.37160  1.0000 -0.1879071794
C   C73       1.0  0.88140  0.79041  0.72240  1.0000 -0.2367443703
C   C74       1.0  0.11860  0.29041  0.27760  1.0000 -0.2367443703
C   C75       1.0  0.70910  0.06137  0.90780  1.0000 0.1501903505
C   C76       1.0  0.29090  0.56137  0.09220  1.0000 0.1501903505
C   C77       1.0  0.65680  0.79996  0.28540  1.0000 -0.2499452493
C   C78       1.0  0.34320  0.29996  0.71460  1.0000 -0.2499452493
C   C79       1.0  0.95930  0.84873  0.87220  1.0000 -0.0085111933
C   C80       1.0  0.04070  0.34873  0.12780  1.0000 -0.0085111933
C   C81       1.0  0.72430  0.30850  0.52710  1.0000 -0.0085111933
C   C82       1.0  0.27570  0.80850  0.47290  1.0000 -0.0085111933
C   C83       1.0  0.58580  0.82380  0.45180  1.0000 -0.0025193616
C   C84       1.0  0.41420  0.32380  0.54820  1.0000 -0.0025193616
C   C85       1.0  0.79350  0.06114  0.39980  1.0000 0.1501903505
C   C86       1.0  0.20650  0.56114  0.60020  1.0000 0.1501903505
C   C87       1.0  0.66970  0.13480  0.37820  1.0000 -0.178769535
C   C88       1.0  0.33030  0.63480  0.62180  1.0000 -0.178769535
C   C89       1.0  0.32280  0.64090  0.87230  1.0000 -0.178769535
C   C90       1.0  0.67720  0.14090  0.12770  1.0000 -0.178769535
C   C91       1.0  0.78380  0.96980  0.71870  1.0000 -0.1093501299
C   C92       1.0  0.21620  0.46980  0.28130  1.0000 -0.1093501299
C   C93       1.0  0.67730  0.26143  0.79000  1.0000 -0.1093501299
C   C94       1.0  0.32270  0.76143  0.21000  1.0000 -0.1093501299
C   C95       1.0  0.08530  0.48536  0.84030  1.0000 0.0727104582
C   C96       1.0  0.91470  0.98536  0.15970  1.0000 0.0727104582
C   C97       1.0  0.66330  0.78440  0.44280  1.0000 -0.2288772426
C   C98       1.0  0.33670  0.28440  0.55720  1.0000 -0.2288772426
C   C99       1.0  0.80550  0.07910  0.88320  1.0000 -0.178769535
C   C100      1.0  0.19450  0.57910  0.11680  1.0000 -0.178769535
C   C101      1.0  0.84220  0.25329  0.58120  1.0000 0.102068274
C   C102      1.0  0.15780  0.75329  0.41880  1.0000 0.102068274
C   C103      1.0  0.63800  0.15120  0.87750  1.0000 -0.1698661819
C   C104      1.0  0.36200  0.65120  0.12250  1.0000 -0.1698661819
C   C105      1.0  0.73440  0.92250  0.74010  1.0000 -0.0085111933
C   C106      1.0  0.26560  0.42250  0.25990  1.0000 -0.0085111933
C   C107      1.0  0.67550  0.25960  0.53890  1.0000 -0.1093501299
C   C108      1.0  0.32450  0.75960  0.46110  1.0000 -0.1093501299
C   C109      1.0  0.72710  0.92230  0.98790  1.0000 -0.0163186527
C   C110      1.0  0.27290  0.42230  0.01210  1.0000 -0.0163186527
C   C111      1.0  0.77430  0.96940  0.96280  1.0000 -0.1007896102
C   C112      1.0  0.22570  0.46940  0.03720  1.0000 -0.1007896102
C   C113      1.0  0.24100  0.47460  0.79060  1.0000 -0.0856172926
C   C114      1.0  0.75900  0.97460  0.20940  1.0000 -0.0856172926
C   C115      1.0  0.79730  0.26650  0.31610  1.0000 -0.1007896102
C   C116      1.0  0.20270  0.76650  0.68390  1.0000 -0.1007896102
C   C117      1.0  0.74010  0.31240  0.29480  1.0000 -0.0085111933
C   C118      1.0  0.25990  0.81240  0.70520  1.0000 -0.0085111933
C   C119      1.0  0.64180  0.14870  0.62450  1.0000 -0.1698661819
C   C120      1.0  0.35820  0.64870  0.37550  1.0000 -0.1698661819
C   C121      1.0  0.80700  0.92080  0.46970  1.0000 0.0092300866
C   C122      1.0  0.19300  0.42080  0.53030  1.0000 0.0092300866
C   C123      1.0  0.81870  0.13420  0.85790  1.0000 -0.178769535
C   C124      1.0  0.18130  0.63420  0.14210  1.0000 -0.178769535
C   C125      1.0  0.64470  0.68150  0.87780  1.0000 -0.4226805306
C   C126      1.0  0.35530  0.18150  0.12220  1.0000 -0.4226805306
C   C127      1.0  0.69120  0.08070  0.40030  1.0000 -0.1698661819
C   C128      1.0  0.30880  0.58070  0.59970  1.0000 -0.1698661819
C   C129      1.0  0.87210  0.09600  0.37690  1.0000 -0.178769535
C   C130      1.0  0.12790  0.59600  0.62310  1.0000 -0.178769535
C   C131      1.0  0.62610  0.09764  0.90460  1.0000 -0.1879071794
C   C132      1.0  0.37390  0.59764  0.09540  1.0000 -0.1879071794
C   C133      1.0  0.75070  0.96840  0.45980  1.0000 -0.1157263033
C   C134      1.0  0.24930  0.46840  0.54020  1.0000 -0.1157263033
C   C135      1.0  0.18740  0.42670  0.78310  1.0000 -0.0251408778
C   C136      1.0  0.81260  0.92670  0.21690  1.0000 -0.0251408778
C   C137      1.0  0.84960  0.15000  0.35210  1.0000 -0.1698661819
C   C138      1.0  0.15040  0.65000  0.64790  1.0000 -0.1698661819
C   C139      1.0  0.12160  0.60280  0.87790  1.0000 -0.1698661819
C   C140      1.0  0.87840  0.10280  0.12210  1.0000 -0.1698661819
C   C141      1.0  0.19440  0.77280  0.93390  1.0000 -0.1093501299
C   C142      1.0  0.80560  0.27280  0.06610  1.0000 -0.1093501299
C   C143      1.0  0.84020  0.25521  0.84550  1.0000 0.0727104582
C   C144      1.0  0.15980  0.75521  0.15450  1.0000 0.0727104582
C   C145      1.0  0.29270  0.97130  0.85280  1.0000 -0.5690569393
C   C146      1.0  0.70730  0.47130  0.14720  1.0000 -0.5690569393
C   C147      1.0  0.24050  0.97440  0.30870  1.0000 -0.5690569393
C   C148      1.0  0.75950  0.47440  0.69130  1.0000 -0.5690569393
N   N1        1.0  0.08750  0.43330  0.81430  1.0000 -0.2804118134
N   N2        1.0  0.91250  0.93330  0.18570  1.0000 -0.2804118134
N   N3        1.0  0.82950  0.30422  0.55410  1.0000 -0.270543651
N   N4        1.0  0.17050  0.80422  0.44590  1.0000 -0.270543651
N   N5        1.0  0.61860  0.92913  0.97720  1.0000 -0.2804118134
N   N6        1.0  0.38140  0.42913  0.02280  1.0000 -0.2804118134
N   N7        1.0  0.63450  0.29992  0.28800  1.0000 -0.2804118134
N   N8        1.0  0.36550  0.79992  0.71200  1.0000 -0.2804118134
N   N9        1.0  0.90390  0.92767  0.44180  1.0000 -0.2499452493
N   N10       1.0  0.09610  0.42767  0.55820  1.0000 -0.2499452493
N   N11       1.0  0.35430  0.80573  0.97010  1.0000 -0.270543651
N   N12       1.0  0.64570  0.30573  0.02990  1.0000 -0.270543651
N   N13       1.0  0.82800  0.30717  0.81510  1.0000 -0.2804118134
N   N14       1.0  0.17200  0.80717  0.18490  1.0000 -0.2804118134
N   N15       1.0  0.75200  0.22352  0.57320  1.0000 -0.0085111933
N   N16       1.0  0.24800  0.72352  0.42680  1.0000 -0.0085111933
N   N17       1.0  0.75110  0.22625  0.83030  1.0000 0.0012414376
N   N18       1.0  0.24890  0.72625  0.16970  1.0000 0.0012414376
N   N19       1.0  0.70580  0.00435  0.68510  1.0000 -0.0085111933
N   N20       1.0  0.29420  0.50435  0.31490  1.0000 -0.0085111933
N   N21       1.0  0.62960  0.92625  0.72030  1.0000 -0.262960609
N   N22       1.0  0.37040  0.42625  0.27970  1.0000 -0.262960609
N   N23       1.0  0.69650  0.00602  0.93730  1.0000 0.0012414376
N   N24       1.0  0.30350  0.50602  0.06270  1.0000 0.0012414376
N   N25       1.0  0.72430  0.22464  0.32580  1.0000 -0.0085111933
N   N26       1.0  0.27570  0.72464  0.67420  1.0000 -0.0085111933
N   N27       1.0  0.26680  0.73072  0.92590  1.0000 -0.0025193616
N   N28       1.0  0.73320  0.23072  0.07410  1.0000 -0.0025193616
N   N29       1.0  0.81740  0.00608  0.42450  1.0000 -0.0025193616
N   N30       1.0  0.18260  0.50608  0.57550  1.0000 -0.0025193616
N   N31       1.0  0.17750  0.51174  0.82770  1.0000 0.0012414376
N   N32       1.0  0.82250  0.01174  0.17230  1.0000 0.0012414376
O   O1        1.0  0.92620  0.79805  0.19730  1.0000 -0.54969142
O   O2        1.0  0.07380  0.29805  0.80270  1.0000 -0.54969142
O   O3        1.0  0.60170  0.79518  0.95870  1.0000 -0.54969142
O   O4        1.0  0.39830  0.29518  0.04130  1.0000 -0.54969142
O   O5        1.0  0.16480  0.93967  0.43720  1.0000 -0.5379249019
O   O6        1.0  0.83520  0.43967  0.56280  1.0000 -0.5379249019
O   O7        1.0  0.37380  0.93520  0.72450  1.0000 -0.5594860377
O   O8        1.0  0.62620  0.43520  0.27550  1.0000 -0.5594860377
O   O9        1.0  0.49050  0.87782  0.55351  1.0000 -0.5379249019
O   O10       1.0  0.50950  0.37782  0.44649  1.0000 -0.5379249019
O   O11       1.0  0.99160  0.85300  0.02694  1.0000 -0.5763862691
O   O12       1.0  0.00840  0.35300  0.97306  1.0000 -0.5763862691
O   O13       1.0  0.58000  0.80789  0.60610  1.0000 -0.5307044349
O   O14       1.0  0.42000  0.30789  0.39390  1.0000 -0.5307044349
O   O15       1.0  0.04830  0.88723  0.61163  1.0000 -0.5379249019
O   O16       1.0  0.95170  0.38723  0.38837  1.0000 -0.5379249019
O   O17       1.0  0.95680  0.81680  0.55710  1.0000 -0.5594860377
O   O18       1.0  0.04320  0.31680  0.44290  1.0000 -0.5594860377
O   O19       1.0  0.93990  0.80398  0.34660  1.0000 -0.5594860377
O   O20       1.0  0.06010  0.30398  0.65340  1.0000 -0.5594860377
O   O21       1.0  0.42790  0.90100  0.85290  1.0000 -0.6098977886
O   O22       1.0  0.57210  0.40100  0.14710  1.0000 -0.6098977886
O   O23       1.0  0.54450  0.84235  0.13698  1.0000 -0.5763862691
O   O24       1.0  0.45550  0.34235  0.86302  1.0000 -0.5763862691
O   O25       1.0  0.05140  0.92152  0.94490  1.0000 -0.6171585582
O   O26       1.0  0.94860  0.42152  0.05510  1.0000 -0.6171585582
O   O27       1.0  0.61220  0.80602  0.81270  1.0000 -0.5184407793
O   O28       1.0  0.38780  0.30602  0.18730  1.0000 -0.5184407793
O   O29       1.0  0.77550  0.73494  0.81070  1.0000 -0.1879071794
O   O30       1.0  0.22450  0.23494  0.18930  1.0000 -0.1879071794
O   O31       1.0  0.77540  0.73220  0.35616  1.0000 -0.1879071794
O   O32       1.0  0.22460  0.23220  0.64384  1.0000 -0.1879071794
O   O33       1.0  0.10810  0.90412  0.30961  1.0000 -0.6171585582
O   O34       1.0  0.89190  0.40412  0.69039  1.0000 -0.6171585582
O   O35       1.0  0.47140  0.90612  0.21980  1.0000 -0.6042313538
O   O36       1.0  0.52860  0.40612  0.78020  1.0000 -0.6042313538
