# DDEC6 charges by PACMAN v1.1 (https://github.com/mtap-research/PACMAN-charge/)
data_0000[Tb][rtl]3[ASR]1
_chemical_formula_sum              "Tb4 H36 C36 O24"
_cell_length_a       9.621
_cell_length_b       13.908
_cell_length_c       17.6113
_cell_angle_alpha    90
_cell_angle_beta     119.622
_cell_angle_gamma    90

_symmetry_space_group_name_H-M    "P 1"
_symmetry_Int_Tables_number       1

loop_
  _symmetry_equiv_pos_as_xyz
  'x, y, z'

loop_
  _atom_site_type_symbol
  _atom_site_label
  _atom_site_symmetry_multiplicity
  _atom_site_fract_x
  _atom_site_fract_y
  _atom_site_fract_z
  _atom_site_occupancy
  _atom_site_charge
Tb  Tb1       1.0  0.12820  0.88853  0.08586  1.0000 1.9962446944
Tb  Tb2       1.0  0.87180  0.38853  0.41414  1.0000 1.9879954116
Tb  Tb3       1.0  0.87180  0.11147  0.91414  1.0000 1.9879954116
Tb  Tb4       1.0  0.12820  0.61147  0.58586  1.0000 1.9879954116
H   H1        1.0  0.91560  0.10770  0.24820  1.0000 0.0986959597
H   H2        1.0  0.08440  0.60770  0.25180  1.0000 0.0986959597
H   H3        1.0  0.08440  0.89230  0.75180  1.0000 0.0986959597
H   H4        1.0  0.91560  0.39230  0.74820  1.0000 0.0986959597
H   H5        1.0  0.92280  0.18860  0.18820  1.0000 0.1111745463
H   H6        1.0  0.07720  0.68860  0.31180  1.0000 0.0986959597
H   H7        1.0  0.07720  0.81140  0.81180  1.0000 0.0986959597
H   H8        1.0  0.92280  0.31140  0.68820  1.0000 0.1111745463
H   H9        1.0  0.73210  0.11190  0.06600  1.0000 0.0986959597
H   H10       1.0  0.26790  0.61190  0.43400  1.0000 0.0986959597
H   H11       1.0  0.26790  0.88810  0.93400  1.0000 0.0986959597
H   H12       1.0  0.73210  0.38810  0.56600  1.0000 0.0986959597
H   H13       1.0  0.62390  0.96370  0.07150  1.0000 0.088950801
H   H14       1.0  0.37610  0.46370  0.42850  1.0000 0.088950801
H   H15       1.0  0.37610  0.03630  0.92850  1.0000 0.088950801
H   H16       1.0  0.62390  0.53630  0.57150  1.0000 0.088950801
H   H17       1.0  0.72470  0.96290  0.17390  1.0000 0.1111745463
H   H18       1.0  0.27530  0.46290  0.32610  1.0000 0.1111745463
H   H19       1.0  0.27530  0.03710  0.82610  1.0000 0.1111745463
H   H20       1.0  0.72470  0.53710  0.67390  1.0000 0.1111745463
H   H21       1.0  0.48240  0.09670  0.07470  1.0000 0.0986959597
H   H22       1.0  0.51760  0.59670  0.42530  1.0000 0.0986959597
H   H23       1.0  0.51760  0.90330  0.92530  1.0000 0.0986959597
H   H24       1.0  0.48240  0.40330  0.57470  1.0000 0.0986959597
H   H25       1.0  0.51220  0.16450  0.20230  1.0000 0.1111745463
H   H26       1.0  0.48780  0.66450  0.29770  1.0000 0.1111745463
H   H27       1.0  0.48780  0.83550  0.79770  1.0000 0.1111745463
H   H28       1.0  0.51220  0.33550  0.70230  1.0000 0.1111745463
H   H29       1.0  0.65310  0.09350  0.25880  1.0000 0.0986959597
H   H30       1.0  0.34690  0.59350  0.24120  1.0000 0.0986959597
H   H31       1.0  0.34690  0.90650  0.74120  1.0000 0.0986959597
H   H32       1.0  0.65310  0.40650  0.75880  1.0000 0.0986959597
H   H33       1.0  0.65920  0.23530  0.14500  1.0000 0.0986959597
H   H34       1.0  0.34080  0.73530  0.35500  1.0000 0.0986959597
H   H35       1.0  0.34080  0.76470  0.85500  1.0000 0.0986959597
H   H36       1.0  0.65920  0.26470  0.64500  1.0000 0.0986959597
C   C1        1.0  0.85280  0.14270  0.19410  1.0000 -0.1905462127
C   C2        1.0  0.14720  0.64270  0.30590  1.0000 -0.1905462127
C   C3        1.0  0.14720  0.85730  0.80590  1.0000 -0.1905462127
C   C4        1.0  0.85280  0.35730  0.69410  1.0000 -0.1905462127
C   C5        1.0  0.79000  0.07410  0.11970  1.0000 -0.1198861773
C   C6        1.0  0.21000  0.57410  0.38030  1.0000 -0.1198861773
C   C7        1.0  0.21000  0.92590  0.88030  1.0000 -0.1198861773
C   C8        1.0  0.79000  0.42590  0.61970  1.0000 -0.1198861773
C   C9        1.0  0.66940  0.00420  0.12310  1.0000 -0.1905462127
C   C10       1.0  0.33060  0.50420  0.37690  1.0000 -0.1905462127
C   C11       1.0  0.33060  0.99580  0.87690  1.0000 -0.1905462127
C   C12       1.0  0.66940  0.49580  0.62310  1.0000 -0.1905462127
C   C13       1.0  0.53510  0.05750  0.12780  1.0000 -0.1063385854
C   C14       1.0  0.46490  0.55750  0.37220  1.0000 -0.1063385854
C   C15       1.0  0.46490  0.94250  0.87220  1.0000 -0.1063385854
C   C16       1.0  0.53510  0.44250  0.62780  1.0000 -0.1063385854
C   C17       1.0  0.60000  0.12840  0.20400  1.0000 -0.1905462127
C   C18       1.0  0.40000  0.62840  0.29600  1.0000 -0.1905462127
C   C19       1.0  0.40000  0.87160  0.79600  1.0000 -0.1905462127
C   C20       1.0  0.60000  0.37160  0.70400  1.0000 -0.1905462127
C   C21       1.0  0.71730  0.19720  0.19850  1.0000 -0.1198861773
C   C22       1.0  0.28270  0.69720  0.30150  1.0000 -0.1198861773
C   C23       1.0  0.28270  0.80280  0.80150  1.0000 -0.1198861773
C   C24       1.0  0.71730  0.30280  0.69850  1.0000 -0.1198861773
C   C25       1.0  0.40610  0.99060  0.12390  1.0000 0.5702460514
C   C26       1.0  0.59390  0.49060  0.37610  1.0000 0.5702460514
C   C27       1.0  0.59390  0.00940  0.87610  1.0000 0.5702460514
C   C28       1.0  0.40610  0.50940  0.62390  1.0000 0.5702460514
C   C29       1.0  0.92100  0.01800  0.11320  1.0000 0.6198395895
C   C30       1.0  0.07900  0.51800  0.38680  1.0000 0.6198395895
C   C31       1.0  0.07900  0.98200  0.88680  1.0000 0.6198395895
C   C32       1.0  0.92100  0.48200  0.61320  1.0000 0.6198395895
C   C33       1.0  0.77960  0.26420  0.27490  1.0000 0.5816147284
C   C34       1.0  0.22040  0.76420  0.22510  1.0000 0.5816147284
C   C35       1.0  0.22040  0.73580  0.72510  1.0000 0.5816147284
C   C36       1.0  0.77960  0.23580  0.77490  1.0000 0.5816147284
O   O1        1.0  0.29820  0.02980  0.13640  1.0000 -0.6302712424
O   O2        1.0  0.70180  0.52980  0.36360  1.0000 -0.6302712424
O   O3        1.0  0.70180  0.97020  0.86360  1.0000 -0.6302712424
O   O4        1.0  0.29820  0.47020  0.63640  1.0000 -0.6302712424
O   O5        1.0  0.39670  0.90450  0.10320  1.0000 -0.6069853051
O   O6        1.0  0.60330  0.40450  0.39680  1.0000 -0.6069853051
O   O7        1.0  0.60330  0.09550  0.89680  1.0000 -0.6069853051
O   O8        1.0  0.39670  0.59550  0.60320  1.0000 -0.6069853051
O   O9        1.0  0.99910  0.95440  0.16670  1.0000 -0.5605660124
O   O10       1.0  0.00090  0.45440  0.33333  1.0000 -0.5605660124
O   O11       1.0  0.00090  0.04560  0.83330  1.0000 -0.5605660124
O   O12       1.0  0.99910  0.54560  0.66667  1.0000 -0.5605660124
O   O13       1.0  0.94390  0.03710  0.05030  1.0000 -0.7335646196
O   O14       1.0  0.05610  0.53710  0.44970  1.0000 -0.7335646196
O   O15       1.0  0.05610  0.96290  0.94970  1.0000 -0.7335646196
O   O16       1.0  0.94390  0.46290  0.55030  1.0000 -0.7335646196
O   O17       1.0  0.69290  0.33470  0.26810  1.0000 -0.5985734506
O   O18       1.0  0.30710  0.83470  0.23190  1.0000 -0.5985734506
O   O19       1.0  0.30710  0.66530  0.73190  1.0000 -0.5985734506
O   O20       1.0  0.69290  0.16530  0.76810  1.0000 -0.5985734506
O   O21       1.0  0.91080  0.25050  0.34370  1.0000 -0.6215933704
O   O22       1.0  0.08920  0.75050  0.15630  1.0000 -0.6302712424
O   O23       1.0  0.08920  0.74950  0.65630  1.0000 -0.6215933704
O   O24       1.0  0.91080  0.24950  0.84370  1.0000 -0.6215933704
