# DDEC6 charges by PACMAN v1.1 (https://github.com/mtap-research/PACMAN-charge/)
data_0000[Zr][bcu]3[ASR]1
_chemical_formula_sum              "Zr6 H24 C64 N16 O24"
_cell_length_a       19.9433
_cell_length_b       19.9433
_cell_length_c       19.9433
_cell_angle_alpha    111.959
_cell_angle_beta     111.959
_cell_angle_gamma    104.602

_symmetry_space_group_name_H-M    "P 1"
_symmetry_Int_Tables_number       1

loop_
  _symmetry_equiv_pos_as_xyz
  'x, y, z'

loop_
  _atom_site_type_symbol
  _atom_site_label
  _atom_site_symmetry_multiplicity
  _atom_site_fract_x
  _atom_site_fract_y
  _atom_site_fract_z
  _atom_site_occupancy
  _atom_site_charge
Zr  Zr1       1.0  0.89924  0.89924  0.00000  1.0000 2.3449948135
Zr  Zr2       1.0  0.10076  0.10076  0.00000  1.0000 2.3449948135
Zr  Zr3       1.0  0.92069  0.92069  0.84138  1.0000 2.4390015307
Zr  Zr4       1.0  0.07931  0.07931  0.15862  1.0000 2.4390015307
Zr  Zr5       1.0  0.07931  0.92069  0.00000  1.0000 2.4390015307
Zr  Zr6       1.0  0.92069  0.07931  0.00000  1.0000 2.4390015307
H   H1        1.0  0.05376  0.05376  0.36074  1.0000 0.1117121588
H   H2        1.0  0.85026  0.85026  0.17974  1.0000 0.1117121588
H   H3        1.0  0.83233  0.83233  0.28114  1.0000 0.1007265165
H   H4        1.0  0.69302  0.69302  0.63926  1.0000 0.1117121588
H   H5        1.0  0.67052  0.67052  0.82026  1.0000 0.1117121588
H   H6        1.0  0.55119  0.55119  0.71886  1.0000 0.1007265165
H   H7        1.0  0.69302  0.05376  0.00000  1.0000 0.1117121588
H   H8        1.0  0.67052  0.85026  0.00000  1.0000 0.1117121588
H   H9        1.0  0.55119  0.83233  0.00000  1.0000 0.1007265165
H   H10       1.0  0.05376  0.69302  0.00000  1.0000 0.1117121588
H   H11       1.0  0.85026  0.67052  0.00000  1.0000 0.1117121588
H   H12       1.0  0.83233  0.55119  0.00000  1.0000 0.1007265165
H   H13       1.0  0.94624  0.30698  0.00000  1.0000 0.1117121588
H   H14       1.0  0.14974  0.32948  0.00000  1.0000 0.1117121588
H   H15       1.0  0.16767  0.44881  0.00000  1.0000 0.1007265165
H   H16       1.0  0.30698  0.94624  0.00000  1.0000 0.1117121588
H   H17       1.0  0.32948  0.14974  0.00000  1.0000 0.1117121588
H   H18       1.0  0.44881  0.16767  0.00000  1.0000 0.1007265165
H   H19       1.0  0.30698  0.30698  0.36074  1.0000 0.1117121588
H   H20       1.0  0.32948  0.32948  0.17974  1.0000 0.1117121588
H   H21       1.0  0.44881  0.44881  0.28114  1.0000 0.1007265165
H   H22       1.0  0.94624  0.94624  0.63926  1.0000 0.1117121588
H   H23       1.0  0.14974  0.14974  0.82026  1.0000 0.1117121588
H   H24       1.0  0.16767  0.16767  0.71886  1.0000 0.1007265165
C   C1        1.0  0.96640  0.96640  0.19660  1.0000 0.6255718473
C   C2        1.0  0.95380  0.95380  0.25980  1.0000 -0.0664056909
C   C3        1.0  0.93290  0.93290  0.38260  1.0000 -0.0322395855
C   C4        1.0  0.00910  0.00910  0.34500  1.0000 -0.157951531
C   C5        1.0  0.88810  0.88810  0.23680  1.0000 -0.0884410894
C   C6        1.0  0.00140  0.00140  0.40980  1.0000 0.2181682142
C   C7        1.0  0.91920  0.91920  0.44060  1.0000 0.1007265165
C   C8        1.0  0.87720  0.87720  0.29780  1.0000 -0.1364087683
C   C9        1.0  0.76980  0.76980  0.80340  1.0000 0.6255718473
C   C10       1.0  0.69400  0.69400  0.74020  1.0000 -0.0664056909
C   C11       1.0  0.55030  0.55030  0.61740  1.0000 -0.0322395855
C   C12       1.0  0.66410  0.66410  0.65500  1.0000 -0.157951531
C   C13       1.0  0.65130  0.65130  0.76320  1.0000 -0.0884410894
C   C14       1.0  0.59160  0.59160  0.59020  1.0000 0.2181682142
C   C15       1.0  0.47860  0.47860  0.55940  1.0000 0.1007265165
C   C16       1.0  0.57940  0.57940  0.70220  1.0000 -0.1364087683
C   C17       1.0  0.76980  0.96640  0.00000  1.0000 0.6255718473
C   C18       1.0  0.69400  0.95380  0.00000  1.0000 -0.0664056909
C   C19       1.0  0.55030  0.93290  0.00000  1.0000 -0.0322395855
C   C20       1.0  0.66410  0.00910  0.00000  1.0000 -0.1544265967
C   C21       1.0  0.65130  0.88810  0.00000  1.0000 -0.0884410894
C   C22       1.0  0.59160  0.00140  0.00000  1.0000 0.2181682142
C   C23       1.0  0.47860  0.91920  0.00000  1.0000 0.1117121588
C   C24       1.0  0.57940  0.87720  0.00000  1.0000 -0.1347579357
C   C25       1.0  0.96640  0.76980  0.00000  1.0000 0.6255718473
C   C26       1.0  0.95380  0.69400  0.00000  1.0000 -0.0664056909
C   C27       1.0  0.93290  0.55030  0.00000  1.0000 -0.0322395855
C   C28       1.0  0.00910  0.66410  0.00000  1.0000 -0.157951531
C   C29       1.0  0.88810  0.65130  0.00000  1.0000 -0.0884410894
C   C30       1.0  0.00140  0.59160  0.00000  1.0000 0.2181682142
C   C31       1.0  0.91920  0.47860  0.00000  1.0000 0.1117121588
C   C32       1.0  0.87720  0.57940  0.00000  1.0000 -0.1347579357
C   C33       1.0  0.03360  0.23020  0.00000  1.0000 0.6255718473
C   C34       1.0  0.04620  0.30600  0.00000  1.0000 -0.0664056909
C   C35       1.0  0.06710  0.44970  0.00000  1.0000 -0.0322395855
C   C36       1.0  0.99090  0.33590  0.00000  1.0000 -0.157951531
C   C37       1.0  0.11190  0.34870  0.00000  1.0000 -0.0884410894
C   C38       1.0  0.99860  0.40840  0.00000  1.0000 0.2181682142
C   C39       1.0  0.08080  0.52140  0.00000  1.0000 0.1007265165
C   C40       1.0  0.12280  0.42060  0.00000  1.0000 -0.1364087683
C   C41       1.0  0.23020  0.03360  0.00000  1.0000 0.6255718473
C   C42       1.0  0.30600  0.04620  0.00000  1.0000 -0.0664056909
C   C43       1.0  0.44970  0.06710  0.00000  1.0000 -0.0322395855
C   C44       1.0  0.33590  0.99090  0.00000  1.0000 -0.1544265967
C   C45       1.0  0.34870  0.11190  0.00000  1.0000 -0.0884410894
C   C46       1.0  0.40840  0.99860  0.00000  1.0000 0.2181682142
C   C47       1.0  0.52140  0.08080  0.00000  1.0000 0.1117121588
C   C48       1.0  0.42060  0.12280  0.00000  1.0000 -0.1364087683
C   C49       1.0  0.23020  0.23020  0.19660  1.0000 0.6241473261
C   C50       1.0  0.30600  0.30600  0.25980  1.0000 -0.0664056909
C   C51       1.0  0.44970  0.44970  0.38260  1.0000 -0.0322395855
C   C52       1.0  0.33590  0.33590  0.34500  1.0000 -0.157951531
C   C53       1.0  0.34870  0.34870  0.23680  1.0000 -0.0884410894
C   C54       1.0  0.40840  0.40840  0.40980  1.0000 0.2181682142
C   C55       1.0  0.52140  0.52140  0.44060  1.0000 0.1007265165
C   C56       1.0  0.42060  0.42060  0.29780  1.0000 -0.1364087683
C   C57       1.0  0.03360  0.03360  0.80340  1.0000 0.6241473261
C   C58       1.0  0.04620  0.04620  0.74020  1.0000 -0.0664056909
C   C59       1.0  0.06710  0.06710  0.61740  1.0000 -0.0360046529
C   C60       1.0  0.99090  0.99090  0.65500  1.0000 -0.157951531
C   C61       1.0  0.11190  0.11190  0.76320  1.0000 -0.0884410894
C   C62       1.0  0.99860  0.99860  0.59020  1.0000 0.2181682142
C   C63       1.0  0.08080  0.08080  0.55940  1.0000 0.1007265165
C   C64       1.0  0.12280  0.12280  0.70220  1.0000 -0.1364087683
N   N1        1.0  0.92090  0.96170  0.50500  1.0000 -0.1108335896
N   N2        1.0  0.45670  0.41590  0.49500  1.0000 -0.1108335896
N   N3        1.0  0.41590  0.92090  0.95920  1.0000 -0.1191265794
N   N4        1.0  0.96170  0.45670  0.04080  1.0000 -0.1191265794
N   N5        1.0  0.07910  0.58410  0.04080  1.0000 -0.1108335896
N   N6        1.0  0.54330  0.03830  0.95920  1.0000 -0.1191265794
N   N7        1.0  0.58410  0.54330  0.50500  1.0000 -0.1108335896
N   N8        1.0  0.03830  0.07910  0.49500  1.0000 -0.1108335896
N   N9        1.0  0.07910  0.03830  0.49500  1.0000 -0.1191265794
N   N10       1.0  0.54330  0.58410  0.50500  1.0000 -0.1108335896
N   N11       1.0  0.58410  0.07910  0.04080  1.0000 -0.1191265794
N   N12       1.0  0.03830  0.54330  0.95920  1.0000 -0.1108335896
N   N13       1.0  0.92090  0.41590  0.95920  1.0000 -0.1191265794
N   N14       1.0  0.45670  0.96170  0.04080  1.0000 -0.1191265794
N   N15       1.0  0.41590  0.45670  0.49500  1.0000 -0.1191265794
N   N16       1.0  0.96170  0.92090  0.50500  1.0000 -0.1108335896
O   O1        1.0  0.91214  0.91214  0.11918  1.0000 -0.5935003382
O   O2        1.0  0.02704  0.02704  0.22170  1.0000 -0.5935003382
O   O3        1.0  0.79296  0.79296  0.88082  1.0000 -0.5935003382
O   O4        1.0  0.80534  0.80534  0.77830  1.0000 -0.5935003382
O   O5        1.0  0.79296  0.91214  0.00000  1.0000 -0.5935003382
O   O6        1.0  0.80534  0.02704  0.00000  1.0000 -0.5935003382
O   O7        1.0  0.91214  0.79296  0.00000  1.0000 -0.5935003382
O   O8        1.0  0.02704  0.80534  0.00000  1.0000 -0.5935003382
O   O9        1.0  0.08786  0.20704  0.00000  1.0000 -0.5935003382
O   O10       1.0  0.97296  0.19466  0.00000  1.0000 -0.5935003382
O   O11       1.0  0.20704  0.08786  0.00000  1.0000 -0.5935003382
O   O12       1.0  0.19466  0.97296  0.00000  1.0000 -0.5935003382
O   O13       1.0  0.20704  0.20704  0.11918  1.0000 -0.5935003382
O   O14       1.0  0.19466  0.19466  0.22170  1.0000 -0.5935003382
O   O15       1.0  0.08786  0.08786  0.88082  1.0000 -0.5935003382
O   O16       1.0  0.97296  0.97296  0.77830  1.0000 -0.5935003382
O   O17       1.0  0.95143  0.87243  0.92100  1.0000 -1.1785608626
O   O18       1.0  0.95143  0.03043  0.07900  1.0000 -1.1865020689
O   O19       1.0  0.03043  0.95143  0.07900  1.0000 -1.1785608626
O   O20       1.0  0.87243  0.95143  0.92100  1.0000 -1.1785608626
O   O21       1.0  0.04857  0.96957  0.92100  1.0000 -1.1785608626
O   O22       1.0  0.04857  0.12757  0.07900  1.0000 -1.1785608626
O   O23       1.0  0.96957  0.04857  0.92100  1.0000 -1.1785608626
O   O24       1.0  0.12757  0.04857  0.07900  1.0000 -1.1865020689
