# DDEC6 charges by PACMAN v1.1 (https://github.com/mtap-research/PACMAN-charge/)
data_0000[Cd][nan]3[ASR]5
_chemical_formula_sum              "Cd8 H96 C96 O32"
_cell_length_a       7.79
_cell_length_b       20.666
_cell_length_c       21.487
_cell_angle_alpha    90
_cell_angle_beta     90
_cell_angle_gamma    90

_symmetry_space_group_name_H-M    "P 1"
_symmetry_Int_Tables_number       1

loop_
  _symmetry_equiv_pos_as_xyz
  'x, y, z'

loop_
  _atom_site_type_symbol
  _atom_site_label
  _atom_site_symmetry_multiplicity
  _atom_site_fract_x
  _atom_site_fract_y
  _atom_site_fract_z
  _atom_site_occupancy
  _atom_site_charge
Cd  Cd1       1.0  0.67701  0.12712  0.95606  1.0000 1.0251426583
Cd  Cd2       1.0  0.32299  0.62712  0.04394  1.0000 1.0242860204
Cd  Cd3       1.0  0.32299  0.12712  0.45606  1.0000 1.0251426583
Cd  Cd4       1.0  0.67701  0.62712  0.54394  1.0000 1.0242860204
Cd  Cd5       1.0  0.79600  0.16377  0.50264  1.0000 0.9432849174
Cd  Cd6       1.0  0.20400  0.66377  0.49736  1.0000 0.9432849174
Cd  Cd7       1.0  0.20400  0.16377  0.00264  1.0000 0.9432849174
Cd  Cd8       1.0  0.79600  0.66377  0.99736  1.0000 0.9432849174
H   H1        1.0  0.71540  0.31340  0.10310  1.0000 0.1460020599
H   H2        1.0  0.28460  0.81340  0.89690  1.0000 0.1460020599
H   H3        1.0  0.28460  0.31340  0.60310  1.0000 0.1406609466
H   H4        1.0  0.71540  0.81340  0.39690  1.0000 0.1460020599
H   H5        1.0  0.53410  0.28390  0.08910  1.0000 0.1406609466
H   H6        1.0  0.46590  0.78390  0.91090  1.0000 0.1406609466
H   H7        1.0  0.46590  0.28390  0.58910  1.0000 0.1406609466
H   H8        1.0  0.53410  0.78390  0.41090  1.0000 0.1406609466
H   H9        1.0  0.55070  0.34470  0.13230  1.0000 0.1311767525
H   H10       1.0  0.44930  0.84470  0.86770  1.0000 0.1311767525
H   H11       1.0  0.44930  0.34470  0.63230  1.0000 0.1311767525
H   H12       1.0  0.55070  0.84470  0.36770  1.0000 0.1311767525
H   H13       1.0  0.66990  0.43010  0.13690  1.0000 0.1222820839
H   H14       1.0  0.33010  0.93010  0.86310  1.0000 0.1222820839
H   H15       1.0  0.33010  0.43010  0.63690  1.0000 0.1222820839
H   H16       1.0  0.66990  0.93010  0.36310  1.0000 0.1222820839
H   H17       1.0  0.58490  0.49550  0.11630  1.0000 0.1311767525
H   H18       1.0  0.41510  0.99550  0.88370  1.0000 0.1406609466
H   H19       1.0  0.41510  0.49550  0.61630  1.0000 0.1311767525
H   H20       1.0  0.58490  0.99550  0.38370  1.0000 0.1311767525
H   H21       1.0  0.77890  0.48230  0.10160  1.0000 0.1311767525
H   H22       1.0  0.22110  0.98230  0.89840  1.0000 0.1311767525
H   H23       1.0  0.22110  0.48230  0.60160  1.0000 0.1311767525
H   H24       1.0  0.77890  0.98230  0.39840  1.0000 0.1311767525
H   H25       1.0  0.56190  0.53350  0.88960  1.0000 0.1460020599
H   H26       1.0  0.43810  0.03350  0.11040  1.0000 0.1460020599
H   H27       1.0  0.43810  0.53350  0.38960  1.0000 0.1460020599
H   H28       1.0  0.56190  0.03350  0.61040  1.0000 0.1460020599
H   H29       1.0  0.41000  0.49050  0.86540  1.0000 0.1406609466
H   H30       1.0  0.59000  0.99050  0.13460  1.0000 0.1406609466
H   H31       1.0  0.59000  0.49050  0.36540  1.0000 0.1406609466
H   H32       1.0  0.41000  0.99050  0.63460  1.0000 0.1406609466
H   H33       1.0  0.59880  0.47480  0.84530  1.0000 0.1311767525
H   H34       1.0  0.40120  0.97480  0.15470  1.0000 0.1311767525
H   H35       1.0  0.40120  0.47480  0.34530  1.0000 0.1311767525
H   H36       1.0  0.59880  0.97480  0.65470  1.0000 0.1311767525
H   H37       1.0  0.41690  0.30660  0.87560  1.0000 0.1406609466
H   H38       1.0  0.58310  0.80660  0.12440  1.0000 0.1406609466
H   H39       1.0  0.58310  0.30660  0.37560  1.0000 0.1406609466
H   H40       1.0  0.41690  0.80660  0.62440  1.0000 0.1406609466
H   H41       1.0  0.52290  0.35800  0.83820  1.0000 0.1311767525
H   H42       1.0  0.47710  0.85800  0.16180  1.0000 0.1311767525
H   H43       1.0  0.47710  0.35800  0.33820  1.0000 0.1311767525
H   H44       1.0  0.52290  0.85800  0.66180  1.0000 0.1311767525
H   H45       1.0  0.33390  0.37340  0.85840  1.0000 0.1311767525
H   H46       1.0  0.66610  0.87340  0.14160  1.0000 0.1311767525
H   H47       1.0  0.66610  0.37340  0.35840  1.0000 0.1311767525
H   H48       1.0  0.33390  0.87340  0.64160  1.0000 0.1311767525
H   H49       1.0  0.03790  0.05600  0.86190  1.0000 0.1222820839
H   H50       1.0  0.96210  0.55600  0.13810  1.0000 0.1222820839
H   H51       1.0  0.96210  0.05600  0.36190  1.0000 0.1222820839
H   H52       1.0  0.03790  0.55600  0.63810  1.0000 0.1222820839
H   H53       1.0  0.11230  0.03000  0.79890  1.0000 0.1311767525
H   H54       1.0  0.88770  0.53000  0.20110  1.0000 0.1311767525
H   H55       1.0  0.88770  0.03000  0.29890  1.0000 0.1311767525
H   H56       1.0  0.11230  0.53000  0.70110  1.0000 0.1311767525
H   H57       1.0  0.91760  0.02010  0.81470  1.0000 0.1311767525
H   H58       1.0  0.08240  0.52010  0.18530  1.0000 0.1311767525
H   H59       1.0  0.08240  0.02010  0.31470  1.0000 0.1311767525
H   H60       1.0  0.91760  0.52010  0.68530  1.0000 0.1311767525
H   H61       1.0  0.90980  0.06460  0.64300  1.0000 0.1406609466
H   H62       1.0  0.09020  0.56460  0.35700  1.0000 0.1406609466
H   H63       1.0  0.09020  0.06460  0.14300  1.0000 0.1406609466
H   H64       1.0  0.90980  0.56460  0.85700  1.0000 0.1406609466
H   H65       1.0  0.86300  0.02270  0.70140  1.0000 0.1311767525
H   H66       1.0  0.13700  0.52270  0.29860  1.0000 0.1311767525
H   H67       1.0  0.13700  0.02270  0.20140  1.0000 0.1311767525
H   H68       1.0  0.86300  0.52270  0.79860  1.0000 0.1311767525
H   H69       1.0  0.05570  0.03760  0.68610  1.0000 0.1311767525
H   H70       1.0  0.94430  0.53760  0.31390  1.0000 0.1311767525
H   H71       1.0  0.94430  0.03760  0.18610  1.0000 0.1311767525
H   H72       1.0  0.05570  0.53760  0.81390  1.0000 0.1311767525
H   H73       1.0  0.80870  0.28680  0.65900  1.0000 0.1406609466
H   H74       1.0  0.19130  0.78680  0.34100  1.0000 0.1406609466
H   H75       1.0  0.19130  0.28680  0.15900  1.0000 0.1406609466
H   H76       1.0  0.80870  0.78680  0.84100  1.0000 0.1406609466
H   H77       1.0  0.93030  0.32370  0.70500  1.0000 0.1311767525
H   H78       1.0  0.06970  0.82370  0.29500  1.0000 0.1311767525
H   H79       1.0  0.06970  0.32370  0.20500  1.0000 0.1311767525
H   H80       1.0  0.93030  0.82370  0.79500  1.0000 0.1311767525
H   H81       1.0  0.73730  0.31240  0.72260  1.0000 0.1311767525
H   H82       1.0  0.26270  0.81240  0.27740  1.0000 0.1311767525
H   H83       1.0  0.26270  0.31240  0.22260  1.0000 0.1311767525
H   H84       1.0  0.73730  0.81240  0.77740  1.0000 0.1311767525
H   H85       1.0  0.96160  0.27830  0.87730  1.0000 0.1406609466
H   H86       1.0  0.03840  0.77830  0.12270  1.0000 0.1406609466
H   H87       1.0  0.03840  0.27830  0.37730  1.0000 0.1406609466
H   H88       1.0  0.96160  0.77830  0.62270  1.0000 0.1406609466
H   H89       1.0  0.81700  0.30840  0.83560  1.0000 0.1311767525
H   H90       1.0  0.18300  0.80840  0.16440  1.0000 0.1311767525
H   H91       1.0  0.18300  0.30840  0.33560  1.0000 0.1311767525
H   H92       1.0  0.81700  0.80840  0.66440  1.0000 0.1311767525
H   H93       1.0  0.01050  0.31920  0.81850  1.0000 0.1406609466
H   H94       1.0  0.98950  0.81920  0.18150  1.0000 0.1406609466
H   H95       1.0  0.98950  0.31920  0.31850  1.0000 0.1406609466
H   H96       1.0  0.01050  0.81920  0.68150  1.0000 0.1406609466
C   C1        1.0  0.47460  0.27106  0.98025  1.0000 0.5951390749
C   C2        1.0  0.52540  0.77106  0.01975  1.0000 0.5949458962
C   C3        1.0  0.52540  0.27106  0.48025  1.0000 0.5951390749
C   C4        1.0  0.47460  0.77106  0.51975  1.0000 0.5951390749
C   C5        1.0  0.52440  0.34163  0.98301  1.0000 -0.1288114192
C   C6        1.0  0.47560  0.84163  0.01699  1.0000 -0.1288114192
C   C7        1.0  0.47560  0.34163  0.48301  1.0000 -0.1288114192
C   C8        1.0  0.52440  0.84163  0.51699  1.0000 -0.1288114192
C   C9        1.0  0.57950  0.36713  0.04009  1.0000 0.0871927898
C   C10       1.0  0.42050  0.86713  0.95991  1.0000 0.0871927898
C   C11       1.0  0.42050  0.36713  0.54009  1.0000 0.0871927898
C   C12       1.0  0.57950  0.86713  0.45991  1.0000 0.0871927898
C   C13       1.0  0.59650  0.32326  0.09629  1.0000 -0.4330060417
C   C14       1.0  0.40350  0.82326  0.90371  1.0000 -0.4330060417
C   C15       1.0  0.40350  0.32326  0.59629  1.0000 -0.4330060417
C   C16       1.0  0.59650  0.82326  0.40371  1.0000 -0.4330060417
C   C17       1.0  0.61770  0.43294  0.04421  1.0000 0.0807618482
C   C18       1.0  0.38230  0.93294  0.95579  1.0000 0.0807618482
C   C19       1.0  0.38230  0.43294  0.54421  1.0000 0.0807618482
C   C20       1.0  0.61770  0.93294  0.45579  1.0000 0.0807618482
C   C21       1.0  0.66730  0.46292  0.10529  1.0000 -0.4330060417
C   C22       1.0  0.33270  0.96292  0.89471  1.0000 -0.4330060417
C   C23       1.0  0.33270  0.46292  0.60529  1.0000 -0.4330060417
C   C24       1.0  0.66730  0.96292  0.39471  1.0000 -0.4330060417
C   C25       1.0  0.60610  0.47173  0.99055  1.0000 -0.1288114192
C   C26       1.0  0.39390  0.97173  0.00945  1.0000 -0.1288114192
C   C27       1.0  0.39390  0.47173  0.49055  1.0000 -0.1288114192
C   C28       1.0  0.60610  0.97173  0.50945  1.0000 -0.1288114192
C   C29       1.0  0.67150  0.54013  0.99371  1.0000 0.5803180372
C   C30       1.0  0.32850  0.04013  0.00629  1.0000 0.5803180372
C   C31       1.0  0.32850  0.54013  0.49371  1.0000 0.5803180372
C   C32       1.0  0.67150  0.04013  0.50629  1.0000 0.5803180372
C   C33       1.0  0.54740  0.44658  0.93429  1.0000 0.0807618482
C   C34       1.0  0.45260  0.94658  0.06571  1.0000 0.0807618482
C   C35       1.0  0.45260  0.44658  0.43429  1.0000 0.0807618482
C   C36       1.0  0.54740  0.94658  0.56571  1.0000 0.0807618482
C   C37       1.0  0.52780  0.49032  0.87859  1.0000 -0.4384080451
C   C38       1.0  0.47220  0.99032  0.12141  1.0000 -0.4384080451
C   C39       1.0  0.47220  0.49032  0.37859  1.0000 -0.4384080451
C   C40       1.0  0.52780  0.99032  0.62141  1.0000 -0.4384080451
C   C41       1.0  0.50440  0.38067  0.93102  1.0000 0.0807618482
C   C42       1.0  0.49560  0.88067  0.06898  1.0000 0.0807618482
C   C43       1.0  0.49560  0.38067  0.43102  1.0000 0.0807618482
C   C44       1.0  0.50440  0.88067  0.56898  1.0000 0.0807618482
C   C45       1.0  0.43840  0.35202  0.87018  1.0000 -0.4384080451
C   C46       1.0  0.56160  0.85202  0.12982  1.0000 -0.4384080451
C   C47       1.0  0.56160  0.35202  0.37018  1.0000 -0.4384080451
C   C48       1.0  0.43840  0.85202  0.62982  1.0000 -0.4384080451
C   C49       1.0  0.03850  0.16803  0.88828  1.0000 0.5733094102
C   C50       1.0  0.96150  0.66803  0.11172  1.0000 0.5733094102
C   C51       1.0  0.96150  0.16803  0.38828  1.0000 0.5733094102
C   C52       1.0  0.03850  0.66803  0.61172  1.0000 0.5733094102
C   C53       1.0  0.97190  0.16971  0.82222  1.0000 -0.1389012972
C   C54       1.0  0.02810  0.66971  0.17778  1.0000 -0.1389012972
C   C55       1.0  0.02810  0.16971  0.32222  1.0000 -0.1389012972
C   C56       1.0  0.97190  0.66971  0.67778  1.0000 -0.1389012972
C   C57       1.0  0.97180  0.11240  0.78791  1.0000 0.0807618482
C   C58       1.0  0.02820  0.61240  0.21209  1.0000 0.0807618482
C   C59       1.0  0.02820  0.11240  0.28791  1.0000 0.0807618482
C   C60       1.0  0.97180  0.61240  0.71209  1.0000 0.0807618482
C   C61       1.0  0.01370  0.04888  0.81864  1.0000 -0.4467376584
C   C62       1.0  0.98630  0.54888  0.18136  1.0000 -0.4467376584
C   C63       1.0  0.98630  0.04888  0.31864  1.0000 -0.4467376584
C   C64       1.0  0.01370  0.54888  0.68136  1.0000 -0.4467376584
C   C65       1.0  0.93160  0.11491  0.72411  1.0000 0.0871927898
C   C66       1.0  0.06840  0.61491  0.27589  1.0000 0.0871927898
C   C67       1.0  0.06840  0.11491  0.22411  1.0000 0.0871927898
C   C68       1.0  0.93160  0.61491  0.77589  1.0000 0.0871927898
C   C69       1.0  0.94090  0.05449  0.68511  1.0000 -0.4384080451
C   C70       1.0  0.05910  0.55449  0.31489  1.0000 -0.4330060417
C   C71       1.0  0.05910  0.05449  0.18511  1.0000 -0.4330060417
C   C72       1.0  0.94090  0.55449  0.81489  1.0000 -0.4384080451
C   C73       1.0  0.88740  0.17448  0.69822  1.0000 -0.1012629794
C   C74       1.0  0.11260  0.67448  0.30178  1.0000 -0.1012629794
C   C75       1.0  0.11260  0.17448  0.19822  1.0000 -0.1012629794
C   C76       1.0  0.88740  0.67448  0.80178  1.0000 -0.1012629794
C   C77       1.0  0.83780  0.17515  0.62955  1.0000 0.5588849073
C   C78       1.0  0.16220  0.67515  0.37045  1.0000 0.5588849073
C   C79       1.0  0.16220  0.17515  0.12955  1.0000 0.5588849073
C   C80       1.0  0.83780  0.67515  0.87045  1.0000 0.5588849073
C   C81       1.0  0.88280  0.23116  0.73254  1.0000 0.0807618482
C   C82       1.0  0.11720  0.73116  0.26746  1.0000 0.0807618482
C   C83       1.0  0.11720  0.23116  0.23254  1.0000 0.0807618482
C   C84       1.0  0.88280  0.73116  0.76746  1.0000 0.0807618482
C   C85       1.0  0.83550  0.29421  0.70205  1.0000 -0.4384080451
C   C86       1.0  0.16450  0.79421  0.29795  1.0000 -0.4384080451
C   C87       1.0  0.16450  0.29421  0.20205  1.0000 -0.4384080451
C   C88       1.0  0.83550  0.79421  0.79795  1.0000 -0.4384080451
C   C89       1.0  0.92660  0.22915  0.79648  1.0000 0.0871927898
C   C90       1.0  0.07340  0.72915  0.20352  1.0000 0.0871927898
C   C91       1.0  0.07340  0.22915  0.29648  1.0000 0.0871927898
C   C92       1.0  0.92660  0.72915  0.70352  1.0000 0.0871927898
C   C93       1.0  0.92920  0.28915  0.83546  1.0000 -0.4384080451
C   C94       1.0  0.07080  0.78915  0.16454  1.0000 -0.4384080451
C   C95       1.0  0.07080  0.28915  0.33546  1.0000 -0.4384080451
C   C96       1.0  0.92920  0.78915  0.66454  1.0000 -0.4384080451
O   O1        1.0  0.58000  0.23156  0.95989  1.0000 -0.5433995241
O   O2        1.0  0.42000  0.73156  0.04011  1.0000 -0.5433995241
O   O3        1.0  0.42000  0.23156  0.45989  1.0000 -0.5433995241
O   O4        1.0  0.58000  0.73156  0.54011  1.0000 -0.5433995241
O   O5        1.0  0.32610  0.25937  0.99846  1.0000 -0.5102596397
O   O6        1.0  0.67390  0.75937  0.00154  1.0000 -0.5102596397
O   O7        1.0  0.67390  0.25937  0.49846  1.0000 -0.5102596397
O   O8        1.0  0.32610  0.75937  0.50154  1.0000 -0.5102596397
O   O9        1.0  0.82540  0.54970  0.98188  1.0000 -0.4791317398
O   O10       1.0  0.17460  0.04970  0.01812  1.0000 -0.4791317398
O   O11       1.0  0.17460  0.54970  0.48188  1.0000 -0.4791317398
O   O12       1.0  0.82540  0.04970  0.51812  1.0000 -0.4791317398
O   O13       1.0  0.57260  0.58670  0.00633  1.0000 -0.5756440276
O   O14       1.0  0.42740  0.08670  0.99367  1.0000 -0.5756440276
O   O15       1.0  0.42740  0.58670  0.50633  1.0000 -0.5756440276
O   O16       1.0  0.57260  0.08670  0.49367  1.0000 -0.5756440276
O   O17       1.0  0.19680  0.17060  0.89519  1.0000 -0.4741135353
O   O18       1.0  0.80320  0.67060  0.10481  1.0000 -0.4741135353
O   O19       1.0  0.80320  0.17060  0.39519  1.0000 -0.4741135353
O   O20       1.0  0.19680  0.67060  0.60481  1.0000 -0.4741135353
O   O21       1.0  0.68520  0.16626  0.61492  1.0000 -0.5017207826
O   O22       1.0  0.31480  0.66626  0.38508  1.0000 -0.5017207826
O   O23       1.0  0.31480  0.16626  0.11492  1.0000 -0.5017207826
O   O24       1.0  0.68520  0.66626  0.88508  1.0000 -0.5017207826
O   O25       1.0  0.95670  0.18339  0.58983  1.0000 -0.5313542003
O   O26       1.0  0.04330  0.68339  0.41017  1.0000 -0.5313542003
O   O27       1.0  0.04330  0.18339  0.08983  1.0000 -0.5313542003
O   O28       1.0  0.95670  0.68339  0.91017  1.0000 -0.5313542003
O   O29       1.0  0.94300  0.16464  0.93510  1.0000 -0.553018939
O   O30       1.0  0.05700  0.66464  0.06490  1.0000 -0.553018939
O   O31       1.0  0.05700  0.16464  0.43510  1.0000 -0.553018939
O   O32       1.0  0.94300  0.66464  0.56490  1.0000 -0.553018939
