# DDEC6 charges by PACMAN v1.1 (https://github.com/mtap-research/PACMAN-charge/)
data_0000[Co][sxb]3[ASR]1
_chemical_formula_sum              "Co24 H60 C160 O88 F20"
_cell_length_a       10.875
_cell_length_b       20.623
_cell_length_c       28.668
_cell_angle_alpha    90
_cell_angle_beta     90
_cell_angle_gamma    90

_symmetry_space_group_name_H-M    "P 1"
_symmetry_Int_Tables_number       1

loop_
  _symmetry_equiv_pos_as_xyz
  'x, y, z'

loop_
  _atom_site_type_symbol
  _atom_site_label
  _atom_site_symmetry_multiplicity
  _atom_site_fract_x
  _atom_site_fract_y
  _atom_site_fract_z
  _atom_site_occupancy
  _atom_site_charge
Co  Co1       1.0  0.21421  0.79302  0.29143  1.0000 1.0912334394
Co  Co2       1.0  0.35126  0.66517  0.33855  1.0000 1.0317777467
Co  Co3       1.0  0.23392  0.86028  0.15993  1.0000 1.0199056935
Co  Co4       1.0  0.06469  0.70393  0.37572  1.0000 1.0663322878
Co  Co5       1.0  0.49234  0.80011  0.10667  1.0000 1.1019558084
Co  Co6       1.0  0.36125  0.72244  0.20101  1.0000 1.1019558084
Co  Co7       1.0  0.78579  0.29302  0.70857  1.0000 1.0912334394
Co  Co8       1.0  0.64874  0.16517  0.66145  1.0000 1.0317777467
Co  Co9       1.0  0.76608  0.36028  0.84007  1.0000 1.0199056935
Co  Co10      1.0  0.93531  0.20393  0.62428  1.0000 1.0663322878
Co  Co11      1.0  0.50766  0.30011  0.89333  1.0000 1.1019558084
Co  Co12      1.0  0.63875  0.22244  0.79899  1.0000 1.1019558084
Co  Co13      1.0  0.28579  0.79302  0.79143  1.0000 1.0912334394
Co  Co14      1.0  0.14874  0.66517  0.83855  1.0000 1.0317777467
Co  Co15      1.0  0.26608  0.86028  0.65993  1.0000 1.0199056935
Co  Co16      1.0  0.43531  0.70393  0.87572  1.0000 1.0663322878
Co  Co17      1.0  0.00766  0.80011  0.60667  1.0000 1.1019558084
Co  Co18      1.0  0.13875  0.72244  0.70101  1.0000 1.1019558084
Co  Co19      1.0  0.71421  0.29302  0.20857  1.0000 1.0912334394
Co  Co20      1.0  0.85126  0.16517  0.16145  1.0000 1.0317777467
Co  Co21      1.0  0.73392  0.36028  0.34007  1.0000 1.0199056935
Co  Co22      1.0  0.56469  0.20393  0.12428  1.0000 1.0663322878
Co  Co23      1.0  0.99234  0.30011  0.39333  1.0000 1.1019558084
Co  Co24      1.0  0.86125  0.22244  0.29899  1.0000 1.1019558084
H   H1        1.0  0.17160  0.82250  0.48080  1.0000 0.1389160377
H   H2        1.0  0.16650  0.68270  0.50960  1.0000 0.1389160377
H   H3        1.0  0.04230  0.00960  0.21370  1.0000 0.1389160377
H   H4        1.0  0.06790  0.63690  0.23150  1.0000 0.1753076088
H   H5        1.0  0.85400  0.77410  0.17110  1.0000 0.1389160377
H   H6        1.0  0.48330  0.59000  0.47540  1.0000 0.1489658129
H   H7        1.0  0.71640  0.74090  0.31670  1.0000 0.1344067526
H   H8        1.0  0.90720  0.07360  0.33540  1.0000 0.1569108737
H   H9        1.0  0.17860  0.93740  0.33290  1.0000 0.1569108737
H   H10       1.0  0.43130  0.89750  0.39620  1.0000 0.1489658129
H   H11       1.0  0.50790  0.87800  0.25490  1.0000 0.171472348
H   H12       1.0  0.87680  0.90360  0.26430  1.0000 0.1489658129
H   H13       1.0  0.70300  0.60950  0.21840  1.0000 0.1389160377
H   H14       1.0  0.44860  0.92960  0.53390  1.0000 0.1489658129
H   H15       1.0  0.40150  0.62360  0.61040  1.0000 0.1489658129
H   H16       1.0  0.82840  0.32250  0.51920  1.0000 0.1389160377
H   H17       1.0  0.83350  0.18270  0.49040  1.0000 0.1389160377
H   H18       1.0  0.95770  0.50960  0.78630  1.0000 0.1389160377
H   H19       1.0  0.93210  0.13690  0.76850  1.0000 0.1753076088
H   H20       1.0  0.14600  0.27410  0.82890  1.0000 0.1389160377
H   H21       1.0  0.51670  0.09000  0.52460  1.0000 0.1489658129
H   H22       1.0  0.28360  0.24090  0.68330  1.0000 0.1344067526
H   H23       1.0  0.09280  0.57360  0.66460  1.0000 0.1569108737
H   H24       1.0  0.82140  0.43740  0.66710  1.0000 0.1569108737
H   H25       1.0  0.56870  0.39750  0.60380  1.0000 0.1489658129
H   H26       1.0  0.49210  0.37800  0.74510  1.0000 0.171472348
H   H27       1.0  0.12320  0.40360  0.73570  1.0000 0.1489658129
H   H28       1.0  0.29700  0.10950  0.78160  1.0000 0.1389160377
H   H29       1.0  0.55140  0.42960  0.46610  1.0000 0.1489658129
H   H30       1.0  0.59850  0.12360  0.38960  1.0000 0.1489658129
H   H31       1.0  0.32840  0.82250  0.98080  1.0000 0.1389160377
H   H32       1.0  0.33350  0.68270  0.00960  1.0000 0.1389160377
H   H33       1.0  0.45770  0.00960  0.71370  1.0000 0.1389160377
H   H34       1.0  0.43210  0.63690  0.73150  1.0000 0.1753076088
H   H35       1.0  0.64600  0.77410  0.67110  1.0000 0.1389160377
H   H36       1.0  0.01670  0.59000  0.97540  1.0000 0.1489658129
H   H37       1.0  0.78360  0.74090  0.81670  1.0000 0.1344067526
H   H38       1.0  0.59280  0.07360  0.83540  1.0000 0.1569108737
H   H39       1.0  0.32140  0.93740  0.83290  1.0000 0.1569108737
H   H40       1.0  0.06870  0.89750  0.89620  1.0000 0.1489658129
H   H41       1.0  0.99210  0.87800  0.75490  1.0000 0.171472348
H   H42       1.0  0.62320  0.90360  0.76430  1.0000 0.1489658129
H   H43       1.0  0.79700  0.60950  0.71840  1.0000 0.1389160377
H   H44       1.0  0.05140  0.92960  0.03390  1.0000 0.1489658129
H   H45       1.0  0.09850  0.62360  0.11040  1.0000 0.1489658129
H   H46       1.0  0.67160  0.32250  0.01920  1.0000 0.1389160377
H   H47       1.0  0.66650  0.18270  0.99040  1.0000 0.1389160377
H   H48       1.0  0.54230  0.50960  0.28630  1.0000 0.1389160377
H   H49       1.0  0.56790  0.13690  0.26850  1.0000 0.1753076088
H   H50       1.0  0.35400  0.27410  0.32890  1.0000 0.1389160377
H   H51       1.0  0.98330  0.09000  0.02460  1.0000 0.1489658129
H   H52       1.0  0.21640  0.24090  0.18330  1.0000 0.1344067526
H   H53       1.0  0.40720  0.57360  0.16460  1.0000 0.1569108737
H   H54       1.0  0.67860  0.43740  0.16710  1.0000 0.1569108737
H   H55       1.0  0.93130  0.39750  0.10380  1.0000 0.1489658129
H   H56       1.0  0.00790  0.37800  0.24510  1.0000 0.171472348
H   H57       1.0  0.37680  0.40360  0.23570  1.0000 0.1489658129
H   H58       1.0  0.20300  0.10950  0.28160  1.0000 0.1389160377
H   H59       1.0  0.94860  0.42960  0.96610  1.0000 0.1489658129
H   H60       1.0  0.90150  0.12360  0.88960  1.0000 0.1489658129
C   C1        1.0  0.24260  0.84690  0.47660  1.0000 -0.1387544477
C   C2        1.0  0.18360  0.68630  0.60210  1.0000 0.5801938148
C   C3        1.0  0.98000  0.71490  0.20130  1.0000 0.0257407568
C   C4        1.0  0.08840  0.75930  0.19730  1.0000 0.596874423
C   C5        1.0  0.29260  0.85360  0.43230  1.0000 0.0208945922
C   C6        1.0  0.23980  0.66310  0.51860  1.0000 -0.1387544477
C   C7        1.0  0.26780  0.65650  0.56580  1.0000 0.0257407568
C   C8        1.0  0.04270  0.00900  0.24610  1.0000 -0.1276228297
C   C9        1.0  0.24190  0.86730  0.56240  1.0000 0.596874423
C   C10       1.0  0.23050  0.81950  0.39160  1.0000 0.5801938148
C   C11       1.0  0.99190  0.65230  0.22160  1.0000 -0.2193801661
C   C12       1.0  0.20380  0.92560  0.24097  1.0000 0.5801938148
C   C13       1.0  0.63660  0.71980  0.17750  1.0000 0.6092437131
C   C14       1.0  0.12460  0.96810  0.26950  1.0000 -0.0108387352
C   C15       1.0  0.32210  0.64030  0.48472  1.0000 0.0208945922
C   C16       1.0  0.86330  0.73430  0.18600  1.0000 -0.1387544477
C   C17       1.0  0.76300  0.69550  0.19270  1.0000 0.0118554973
C   C18       1.0  0.43070  0.60800  0.49750  1.0000 -0.2193801661
C   C19       1.0  0.49050  0.76160  0.29520  1.0000 0.6092437131
C   C20       1.0  0.28670  0.64920  0.43350  1.0000 0.5894831689
C   C21       1.0  0.29870  0.87690  0.51500  1.0000 0.0208945922
C   C22       1.0  0.71120  0.78060  0.30140  1.0000 -0.1387544477
C   C23       1.0  0.96310  0.04830  0.26990  1.0000 0.0045289691
C   C24       1.0  0.94180  0.79130  0.30830  1.0000 0.5894831689
C   C25       1.0  0.95990  0.04670  0.31870  1.0000 -0.2193801661
C   C26       1.0  0.59890  0.80390  0.28740  1.0000 0.0045289691
C   C27       1.0  0.82080  0.81740  0.29240  1.0000 0.0045289691
C   C28       1.0  0.45430  0.60470  0.54450  1.0000 0.2806073499
C   C29       1.0  0.12440  0.96440  0.31710  1.0000 -0.2023160386
C   C30       1.0  0.40000  0.89070  0.42600  1.0000 -0.2280349958
C   C31       1.0  0.58460  0.86360  0.26490  1.0000 -0.2193801661
C   C32       1.0  0.80800  0.87830  0.27060  1.0000 -0.2366981472
C   C33       1.0  0.77200  0.63520  0.21340  1.0000 -0.2280349958
C   C34       1.0  0.88130  0.09310  0.24270  1.0000 0.5894831689
C   C35       1.0  0.40870  0.91090  0.50850  1.0000 -0.2193801661
C   C36       1.0  0.45790  0.91670  0.46400  1.0000 0.2905338553
C   C37       1.0  0.37950  0.62730  0.57910  1.0000 -0.2193801661
C   C38       1.0  0.68950  0.90040  0.25830  1.0000 0.3146942925
C   C39       1.0  0.03840  0.00350  0.34150  1.0000 0.3176980487
C   C40       1.0  0.88700  0.61520  0.22600  1.0000 0.2905338553
C   C41       1.0  0.75740  0.34690  0.52340  1.0000 -0.1387544477
C   C42       1.0  0.81640  0.18630  0.39790  1.0000 0.5801938148
C   C43       1.0  0.02000  0.21490  0.79870  1.0000 0.0257407568
C   C44       1.0  0.91160  0.25930  0.80270  1.0000 0.596874423
C   C45       1.0  0.70740  0.35360  0.56770  1.0000 0.0208945922
C   C46       1.0  0.76020  0.16310  0.48140  1.0000 -0.1387544477
C   C47       1.0  0.73220  0.15650  0.43420  1.0000 0.0257407568
C   C48       1.0  0.95730  0.50900  0.75390  1.0000 -0.1276228297
C   C49       1.0  0.75810  0.36730  0.43760  1.0000 0.596874423
C   C50       1.0  0.76950  0.31950  0.60840  1.0000 0.5801938148
C   C51       1.0  0.00810  0.15230  0.77840  1.0000 -0.2193801661
C   C52       1.0  0.79620  0.42560  0.75903  1.0000 0.5801938148
C   C53       1.0  0.36340  0.21980  0.82250  1.0000 0.6092437131
C   C54       1.0  0.87540  0.46810  0.73050  1.0000 -0.0108387352
C   C55       1.0  0.67790  0.14030  0.51528  1.0000 0.0208945922
C   C56       1.0  0.13670  0.23430  0.81400  1.0000 -0.1387544477
C   C57       1.0  0.23700  0.19550  0.80730  1.0000 0.0118554973
C   C58       1.0  0.56930  0.10800  0.50250  1.0000 -0.2193801661
C   C59       1.0  0.50950  0.26160  0.70480  1.0000 0.6092437131
C   C60       1.0  0.71330  0.14920  0.56650  1.0000 0.5894831689
C   C61       1.0  0.70130  0.37690  0.48500  1.0000 0.0208945922
C   C62       1.0  0.28880  0.28060  0.69860  1.0000 -0.1387544477
C   C63       1.0  0.03690  0.54830  0.73010  1.0000 0.0045289691
C   C64       1.0  0.05820  0.29130  0.69170  1.0000 0.5894831689
C   C65       1.0  0.04010  0.54670  0.68130  1.0000 -0.2193801661
C   C66       1.0  0.40110  0.30390  0.71260  1.0000 0.0045289691
C   C67       1.0  0.17920  0.31740  0.70760  1.0000 0.0045289691
C   C68       1.0  0.54570  0.10470  0.45550  1.0000 0.2806073499
C   C69       1.0  0.87560  0.46440  0.68290  1.0000 -0.2023160386
C   C70       1.0  0.60000  0.39070  0.57400  1.0000 -0.2280349958
C   C71       1.0  0.41540  0.36360  0.73510  1.0000 -0.2193801661
C   C72       1.0  0.19200  0.37830  0.72940  1.0000 -0.2366981472
C   C73       1.0  0.22800  0.13520  0.78660  1.0000 -0.2280349958
C   C74       1.0  0.11870  0.59310  0.75730  1.0000 0.5894831689
C   C75       1.0  0.59130  0.41090  0.49150  1.0000 -0.2193801661
C   C76       1.0  0.54210  0.41670  0.53600  1.0000 0.2905338553
C   C77       1.0  0.62050  0.12730  0.42090  1.0000 -0.2193801661
C   C78       1.0  0.31050  0.40040  0.74170  1.0000 0.3176980487
C   C79       1.0  0.96160  0.50350  0.65850  1.0000 0.3176980487
C   C80       1.0  0.11300  0.11520  0.77400  1.0000 0.2905338553
C   C81       1.0  0.25740  0.84690  0.97660  1.0000 -0.1387544477
C   C82       1.0  0.31640  0.68630  0.10210  1.0000 0.5801938148
C   C83       1.0  0.52000  0.71490  0.70130  1.0000 0.0257407568
C   C84       1.0  0.41160  0.75930  0.69730  1.0000 0.596874423
C   C85       1.0  0.20740  0.85360  0.93230  1.0000 0.0208945922
C   C86       1.0  0.26020  0.66310  0.01860  1.0000 -0.1387544477
C   C87       1.0  0.23220  0.65650  0.06580  1.0000 0.0257407568
C   C88       1.0  0.45730  0.00900  0.74610  1.0000 -0.1276228297
C   C89       1.0  0.25810  0.86730  0.06240  1.0000 0.596874423
C   C90       1.0  0.26950  0.81950  0.89160  1.0000 0.5801938148
C   C91       1.0  0.50810  0.65230  0.72160  1.0000 -0.2193801661
C   C92       1.0  0.29620  0.92560  0.74097  1.0000 0.5801938148
C   C93       1.0  0.86340  0.71980  0.67750  1.0000 0.6092437131
C   C94       1.0  0.37540  0.96810  0.76950  1.0000 -0.0108387352
C   C95       1.0  0.17790  0.64030  0.98472  1.0000 0.0208945922
C   C96       1.0  0.63670  0.73430  0.68600  1.0000 -0.1387544477
C   C97       1.0  0.73700  0.69550  0.69270  1.0000 0.0118554973
C   C98       1.0  0.06930  0.60800  0.99750  1.0000 -0.2193801661
C   C99       1.0  0.00950  0.76160  0.79520  1.0000 0.6092437131
C   C100      1.0  0.21330  0.64920  0.93350  1.0000 0.5894831689
C   C101      1.0  0.20130  0.87690  0.01500  1.0000 0.0208945922
C   C102      1.0  0.78880  0.78060  0.80140  1.0000 -0.1387544477
C   C103      1.0  0.53690  0.04830  0.76990  1.0000 0.0045289691
C   C104      1.0  0.55820  0.79130  0.80830  1.0000 0.5894831689
C   C105      1.0  0.54010  0.04670  0.81870  1.0000 -0.2193801661
C   C106      1.0  0.90110  0.80390  0.78740  1.0000 0.0045289691
C   C107      1.0  0.67920  0.81740  0.79240  1.0000 0.0045289691
C   C108      1.0  0.04570  0.60470  0.04450  1.0000 0.2806073499
C   C109      1.0  0.37560  0.96440  0.81710  1.0000 -0.2023160386
C   C110      1.0  0.10000  0.89070  0.92600  1.0000 -0.2280349958
C   C111      1.0  0.91540  0.86360  0.76490  1.0000 -0.2193801661
C   C112      1.0  0.69200  0.87830  0.77060  1.0000 -0.2366981472
C   C113      1.0  0.72800  0.63520  0.71340  1.0000 -0.2280349958
C   C114      1.0  0.61870  0.09310  0.74270  1.0000 0.5894831689
C   C115      1.0  0.09130  0.91090  0.00850  1.0000 -0.2193801661
C   C116      1.0  0.04210  0.91670  0.96400  1.0000 0.2905338553
C   C117      1.0  0.12050  0.62730  0.07910  1.0000 -0.2193801661
C   C118      1.0  0.81050  0.90040  0.75830  1.0000 0.3146942925
C   C119      1.0  0.46160  0.00350  0.84150  1.0000 0.3176980487
C   C120      1.0  0.61300  0.61520  0.72600  1.0000 0.2905338553
C   C121      1.0  0.74260  0.34690  0.02340  1.0000 -0.1387544477
C   C122      1.0  0.68360  0.18630  0.89790  1.0000 0.5801938148
C   C123      1.0  0.48000  0.21490  0.29870  1.0000 0.0257407568
C   C124      1.0  0.58840  0.25930  0.30270  1.0000 0.596874423
C   C125      1.0  0.79260  0.35360  0.06770  1.0000 0.0208945922
C   C126      1.0  0.73980  0.16310  0.98140  1.0000 -0.1276228297
C   C127      1.0  0.76780  0.15650  0.93420  1.0000 0.0257407568
C   C128      1.0  0.54270  0.50900  0.25390  1.0000 -0.1276228297
C   C129      1.0  0.74190  0.36730  0.93760  1.0000 0.596874423
C   C130      1.0  0.73050  0.31950  0.10840  1.0000 0.5801938148
C   C131      1.0  0.49190  0.15230  0.27840  1.0000 -0.2193801661
C   C132      1.0  0.70380  0.42560  0.25903  1.0000 0.5801938148
C   C133      1.0  0.13660  0.21980  0.32250  1.0000 0.6092437131
C   C134      1.0  0.62460  0.46810  0.23050  1.0000 -0.0108387352
C   C135      1.0  0.82210  0.14030  0.01528  1.0000 0.0208945922
C   C136      1.0  0.36330  0.23430  0.31400  1.0000 -0.1387544477
C   C137      1.0  0.26300  0.19550  0.30730  1.0000 0.0118554973
C   C138      1.0  0.93070  0.10800  0.00250  1.0000 -0.2193801661
C   C139      1.0  0.99050  0.26160  0.20480  1.0000 0.6092437131
C   C140      1.0  0.78670  0.14920  0.06650  1.0000 0.5894831689
C   C141      1.0  0.79870  0.37690  0.98500  1.0000 0.0208945922
C   C142      1.0  0.21120  0.28060  0.19860  1.0000 -0.1387544477
C   C143      1.0  0.46310  0.54830  0.23010  1.0000 0.0045289691
C   C144      1.0  0.44180  0.29130  0.19170  1.0000 0.5894831689
C   C145      1.0  0.45990  0.54670  0.18130  1.0000 -0.2193801661
C   C146      1.0  0.09890  0.30390  0.21260  1.0000 0.0045289691
C   C147      1.0  0.32080  0.31740  0.20760  1.0000 0.0118554973
C   C148      1.0  0.95430  0.10470  0.95550  1.0000 0.2806073499
C   C149      1.0  0.62440  0.46440  0.18290  1.0000 -0.2023160386
C   C150      1.0  0.90000  0.39070  0.07400  1.0000 -0.2280349958
C   C151      1.0  0.08460  0.36360  0.23510  1.0000 -0.2193801661
C   C152      1.0  0.30800  0.37830  0.22940  1.0000 -0.2366981472
C   C153      1.0  0.27200  0.13520  0.28660  1.0000 -0.2280349958
C   C154      1.0  0.38130  0.59310  0.25730  1.0000 0.5894831689
C   C155      1.0  0.90870  0.41090  0.99150  1.0000 -0.2193801661
C   C156      1.0  0.95790  0.41670  0.03600  1.0000 0.2905338553
C   C157      1.0  0.87950  0.12730  0.92090  1.0000 -0.2193801661
C   C158      1.0  0.18950  0.40040  0.24170  1.0000 0.3176980487
C   C159      1.0  0.53840  0.50350  0.15850  1.0000 0.3176980487
C   C160      1.0  0.38700  0.11520  0.27400  1.0000 0.2905338553
O   O1        1.0  0.39570  0.76720  0.26893  1.0000 -0.590676837
O   O2        1.0  0.54340  0.69670  0.19767  1.0000 -0.5470470342
O   O3        1.0  0.28580  0.82370  0.35301  1.0000 -0.5470470342
O   O4        1.0  0.22360  0.68560  0.64309  1.0000 -0.5402942697
O   O5        1.0  0.17910  0.74750  0.22330  1.0000 -0.5697236933
O   O6        1.0  0.38880  0.81080  0.16806  1.0000 -0.8698040771
O   O7        1.0  0.19170  0.70133  0.32139  1.0000 -0.8259354162
O   O8        1.0  0.82180  0.13710  0.26291  1.0000 -0.5285644866
O   O9        1.0  0.25840  0.87858  0.25850  1.0000 -0.5220090079
O   O10       1.0  0.30270  0.89030  0.59655  1.0000 -0.5285644866
O   O11       1.0  0.12980  0.79400  0.39902  1.0000 -0.5402942697
O   O12       1.0  0.49520  0.72020  0.32865  1.0000 -0.5285644866
O   O13       1.0  0.08420  0.80500  0.16790  1.0000 -0.5285644866
O   O14       1.0  0.08400  0.70840  0.58879  1.0000 -0.5402942697
O   O15       1.0  0.03730  0.81970  0.29234  1.0000 -0.559876554
O   O16       1.0  0.93580  0.74420  0.33313  1.0000 -0.4979989904
O   O17       1.0  0.63540  0.76100  0.14460  1.0000 -0.5697236933
O   O18       1.0  0.37470  0.64230  0.40437  1.0000 -0.5402942697
O   O19       1.0  0.17780  0.66040  0.42425  1.0000 -0.5697236933
O   O20       1.0  0.88200  0.08590  0.19838  1.0000 -0.5285644866
O   O21       1.0  0.21270  0.93840  0.19754  1.0000 -0.5127718973
O   O22       1.0  0.14280  0.83720  0.56526  1.0000 -0.5839095044
O   O23       1.0  0.60430  0.26720  0.73107  1.0000 -0.590676837
O   O24       1.0  0.45660  0.19670  0.80233  1.0000 -0.5470470342
O   O25       1.0  0.71420  0.32370  0.64699  1.0000 -0.5470470342
O   O26       1.0  0.77640  0.18560  0.35691  1.0000 -0.5402942697
O   O27       1.0  0.82090  0.24750  0.77670  1.0000 -0.5697236933
O   O28       1.0  0.61120  0.31080  0.83194  1.0000 -0.8628190982
O   O29       1.0  0.80830  0.20133  0.67861  1.0000 -0.8259354162
O   O30       1.0  0.17820  0.63710  0.73709  1.0000 -0.5285644866
O   O31       1.0  0.74160  0.37858  0.74150  1.0000 -0.5220090079
O   O32       1.0  0.69730  0.39030  0.40345  1.0000 -0.5285644866
O   O33       1.0  0.87020  0.29400  0.60098  1.0000 -0.5402942697
O   O34       1.0  0.50480  0.22020  0.67135  1.0000 -0.5285644866
O   O35       1.0  0.91580  0.30500  0.83210  1.0000 -0.5285644866
O   O36       1.0  0.91600  0.20840  0.41121  1.0000 -0.5285644866
O   O37       1.0  0.96270  0.31970  0.70766  1.0000 -0.559876554
O   O38       1.0  0.06420  0.24420  0.66687  1.0000 -0.4979989904
O   O39       1.0  0.36460  0.26100  0.85540  1.0000 -0.5697236933
O   O40       1.0  0.62530  0.14230  0.59563  1.0000 -0.5402942697
O   O41       1.0  0.82220  0.16040  0.57575  1.0000 -0.5697236933
O   O42       1.0  0.11800  0.58590  0.80162  1.0000 -0.5285644866
O   O43       1.0  0.78730  0.43840  0.80246  1.0000 -0.5127718973
O   O44       1.0  0.85720  0.33720  0.43474  1.0000 -0.5839095044
O   O45       1.0  0.10430  0.76720  0.76893  1.0000 -0.590676837
O   O46       1.0  0.95660  0.69670  0.69767  1.0000 -0.5470470342
O   O47       1.0  0.21420  0.82370  0.85301  1.0000 -0.5470470342
O   O48       1.0  0.27640  0.68560  0.14309  1.0000 -0.5402942697
O   O49       1.0  0.32090  0.74750  0.72330  1.0000 -0.5697236933
O   O50       1.0  0.11120  0.81080  0.66806  1.0000 -0.8698040771
O   O51       1.0  0.30830  0.70133  0.82139  1.0000 -0.8259354162
O   O52       1.0  0.67820  0.13710  0.76291  1.0000 -0.5285644866
O   O53       1.0  0.24160  0.87858  0.75850  1.0000 -0.5220090079
O   O54       1.0  0.19730  0.89030  0.09655  1.0000 -0.5285644866
O   O55       1.0  0.37020  0.79400  0.89902  1.0000 -0.5402942697
O   O56       1.0  0.00480  0.72020  0.82865  1.0000 -0.5285644866
O   O57       1.0  0.41580  0.80500  0.66790  1.0000 -0.5285644866
O   O58       1.0  0.41600  0.70840  0.08879  1.0000 -0.5402942697
O   O59       1.0  0.46270  0.81970  0.79234  1.0000 -0.559876554
O   O60       1.0  0.56420  0.74420  0.83313  1.0000 -0.4979989904
O   O61       1.0  0.86460  0.76100  0.64460  1.0000 -0.5697236933
O   O62       1.0  0.12530  0.64230  0.90437  1.0000 -0.5402942697
O   O63       1.0  0.32220  0.66040  0.92425  1.0000 -0.5697236933
O   O64       1.0  0.61800  0.08590  0.69838  1.0000 -0.5285644866
O   O65       1.0  0.28730  0.93840  0.69754  1.0000 -0.5127718973
O   O66       1.0  0.35720  0.83720  0.06526  1.0000 -0.5839095044
O   O67       1.0  0.89570  0.26720  0.23107  1.0000 -0.590676837
O   O68       1.0  0.04340  0.19670  0.30233  1.0000 -0.5470470342
O   O69       1.0  0.78580  0.32370  0.14699  1.0000 -0.5470470342
O   O70       1.0  0.72360  0.18560  0.85691  1.0000 -0.5402942697
O   O71       1.0  0.67910  0.24750  0.27670  1.0000 -0.5697236933
O   O72       1.0  0.88880  0.31080  0.33194  1.0000 -0.8628190982
O   O73       1.0  0.69170  0.20133  0.17861  1.0000 -0.8259354162
O   O74       1.0  0.32180  0.63710  0.23709  1.0000 -0.5285644866
O   O75       1.0  0.75840  0.37858  0.24150  1.0000 -0.5220090079
O   O76       1.0  0.80270  0.39030  0.90345  1.0000 -0.5285644866
O   O77       1.0  0.62980  0.29400  0.10098  1.0000 -0.5402942697
O   O78       1.0  0.99520  0.22020  0.17135  1.0000 -0.5285644866
O   O79       1.0  0.58420  0.30500  0.33210  1.0000 -0.5285644866
O   O80       1.0  0.58400  0.20840  0.91121  1.0000 -0.5285644866
O   O81       1.0  0.53730  0.31970  0.20766  1.0000 -0.559876554
O   O82       1.0  0.43580  0.24420  0.16687  1.0000 -0.4979989904
O   O83       1.0  0.13540  0.26100  0.35540  1.0000 -0.5697236933
O   O84       1.0  0.87470  0.14230  0.09563  1.0000 -0.5402942697
O   O85       1.0  0.67780  0.16040  0.07575  1.0000 -0.5697236933
O   O86       1.0  0.38200  0.58590  0.30162  1.0000 -0.5285644866
O   O87       1.0  0.71270  0.43840  0.30246  1.0000 -0.5127718973
O   O88       1.0  0.64280  0.33720  0.93474  1.0000 -0.5839095044
F   F1        1.0  0.03890  0.00220  0.38796  1.0000 -0.1387544477
F   F2        1.0  0.90230  0.55430  0.24430  1.0000 -0.1480943191
F   F3        1.0  0.68000  0.95750  0.23810  1.0000 -0.1480943191
F   F4        1.0  0.56350  0.94880  0.45887  1.0000 -0.1598657298
F   F5        1.0  0.55940  0.57230  0.55839  1.0000 -0.1480943191
F   F6        1.0  0.96110  0.50220  0.61204  1.0000 -0.1387544477
F   F7        1.0  0.09770  0.05430  0.75570  1.0000 -0.1480943191
F   F8        1.0  0.32000  0.45750  0.76190  1.0000 -0.1480943191
F   F9        1.0  0.43650  0.44880  0.54113  1.0000 -0.1598657298
F   F10       1.0  0.44060  0.07230  0.44161  1.0000 -0.1480943191
F   F11       1.0  0.46110  0.00220  0.88796  1.0000 -0.1387544477
F   F12       1.0  0.59770  0.55430  0.74430  1.0000 -0.1480943191
F   F13       1.0  0.82000  0.95750  0.73810  1.0000 -0.1480943191
F   F14       1.0  0.93650  0.94880  0.95887  1.0000 -0.1598657298
F   F15       1.0  0.94060  0.57230  0.05839  1.0000 -0.1480943191
F   F16       1.0  0.53890  0.50220  0.11204  1.0000 -0.1387544477
F   F17       1.0  0.40230  0.05430  0.25570  1.0000 -0.1480943191
F   F18       1.0  0.18000  0.45750  0.26190  1.0000 -0.1480943191
F   F19       1.0  0.06350  0.44880  0.04113  1.0000 -0.1598657298
F   F20       1.0  0.05940  0.07230  0.94161  1.0000 -0.1480943191
