# DDEC6 charges by PACMAN v1.1 (https://github.com/mtap-research/PACMAN-charge/)
data_0000[Cd][nan]3[ASR]4
_chemical_formula_sum              "Cd3 H28 C32 N5 O14"
_cell_length_a       11.9618
_cell_length_b       11.9618
_cell_length_c       14.4132
_cell_angle_alpha    74.1035
_cell_angle_beta     105.897
_cell_angle_gamma    146.519

_symmetry_space_group_name_H-M    "P 1"
_symmetry_Int_Tables_number       1

loop_
  _symmetry_equiv_pos_as_xyz
  'x, y, z'

loop_
  _atom_site_type_symbol
  _atom_site_label
  _atom_site_symmetry_multiplicity
  _atom_site_fract_x
  _atom_site_fract_y
  _atom_site_fract_z
  _atom_site_occupancy
  _atom_site_charge
Cd  Cd1       1.0  0.37190  0.37190  0.00000  1.0000 0.9083574794
Cd  Cd2       1.0  0.43130  0.25730  0.30661  1.0000 1.0115966581
Cd  Cd3       1.0  0.25730  0.43130  0.69339  1.0000 1.0115966581
H   H1        1.0  0.32710  0.74510  0.37240  1.0000 0.1402883537
H   H2        1.0  0.74510  0.32710  0.62760  1.0000 0.1402883537
H   H3        1.0  0.50200  0.16200  0.04030  1.0000 0.1080624183
H   H4        1.0  0.16200  0.50200  0.95970  1.0000 0.1080624183
H   H5        1.0  0.24940  0.34300  0.37640  1.0000 0.1402883537
H   H6        1.0  0.34300  0.24940  0.62360  1.0000 0.1402883537
H   H7        1.0  0.36340  0.67760  0.12950  1.0000 0.1080624183
H   H8        1.0  0.67760  0.36340  0.87050  1.0000 0.1080624183
H   H9        1.0  0.99600  0.39940  0.08840  1.0000 0.1080624183
H   H10       1.0  0.39940  0.99600  0.91160  1.0000 0.1080624183
H   H11       1.0  0.79760  0.24240  0.01730  1.0000 0.1018531677
H   H12       1.0  0.24240  0.79760  0.98270  1.0000 0.1018531677
H   H13       1.0  0.81670  0.19290  0.22290  1.0000 0.1209027858
H   H14       1.0  0.19290  0.81670  0.77710  1.0000 0.1209027858
H   H15       1.0  0.70350  0.03150  0.15380  1.0000 0.1018531677
H   H16       1.0  0.03150  0.70350  0.84620  1.0000 0.1018531677
H   H17       1.0  0.83770  0.47010  0.01900  1.0000 0.1018531677
H   H18       1.0  0.47010  0.83770  0.98100  1.0000 0.1018531677
H   H19       1.0  0.90240  0.48820  0.13140  1.0000 0.1209027858
H   H20       1.0  0.48820  0.90240  0.86860  1.0000 0.1209027858
H   H21       1.0  0.10000  0.92300  0.99440  1.0000 0.1209027858
H   H22       1.0  0.92300  0.10000  0.00560  1.0000 0.1209027858
H   H23       1.0  0.93300  0.85420  0.91580  1.0000 0.134178289
H   H24       1.0  0.85420  0.93300  0.08420  1.0000 0.134178289
H   H25       1.0  0.78460  0.61920  0.01970  1.0000 0.1209027858
H   H26       1.0  0.61920  0.78460  0.98030  1.0000 0.1209027858
H   H27       1.0  0.92420  0.76160  0.10320  1.0000 0.134178289
H   H28       1.0  0.76160  0.92420  0.89680  1.0000 0.134178289
C   C1        1.0  0.32480  0.68500  0.34080  1.0000 -0.1138992228
C   C2        1.0  0.68500  0.32480  0.65920  1.0000 -0.1138992228
C   C3        1.0  0.26990  0.49310  0.49860  1.0000 0.5368929289
C   C4        1.0  0.49310  0.26990  0.50140  1.0000 0.5368929289
C   C5        1.0  0.58900  0.21040  0.10120  1.0000 -0.0386661508
C   C6        1.0  0.21040  0.58900  0.89880  1.0000 -0.0386661508
C   C7        1.0  0.27740  0.44240  0.34330  1.0000 -0.1032412269
C   C8        1.0  0.44240  0.27740  0.65670  1.0000 -0.1032412269
C   C9        1.0  0.35180  0.73520  0.24340  1.0000 -0.0196258754
C   C10       1.0  0.73520  0.35180  0.75660  1.0000 -0.0196258754
C   C11       1.0  0.34320  0.64200  0.19500  1.0000 -0.154717169
C   C12       1.0  0.64200  0.34320  0.80500  1.0000 -0.154717169
C   C13       1.0  0.85220  0.30000  0.07820  1.0000 -0.1722901829
C   C14       1.0  0.30000  0.85220  0.92180  1.0000 -0.1722901829
C   C15       1.0  0.37710  0.88110  0.19030  1.0000 0.4070606313
C   C16       1.0  0.88110  0.37710  0.80970  1.0000 0.4070606313
C   C17       1.0  0.73870  0.13690  0.16110  1.0000 -0.0865831703
C   C18       1.0  0.13690  0.73870  0.83890  1.0000 -0.0865831703
C   C19       1.0  0.28690  0.39050  0.18850  1.0000 0.5627362512
C   C20       1.0  0.39050  0.28690  0.81150  1.0000 0.5627362512
C   C21       1.0  0.29360  0.54300  0.39290  1.0000 -0.001907224
C   C22       1.0  0.54300  0.29360  0.60710  1.0000 -0.001907224
C   C23       1.0  0.81460  0.39640  0.08060  1.0000 -0.1905383684
C   C24       1.0  0.39640  0.81460  0.91940  1.0000 -0.1905383684
C   C25       1.0  0.54690  0.25250  0.16620  1.0000 0.5739019893
C   C26       1.0  0.25250  0.54690  0.83380  1.0000 0.5739019893
C   C27       1.0  0.30370  0.49290  0.24530  1.0000 -0.027651544
C   C28       1.0  0.49290  0.30370  0.75470  1.0000 -0.027651544
C   C29       1.0  0.98980  0.88820  0.98220  1.0000 -0.1184106238
C   C30       1.0  0.88820  0.98980  0.01780  1.0000 -0.1184106238
C   C31       1.0  0.85340  0.73860  0.04050  1.0000 -0.0534978949
C   C32       1.0  0.73860  0.85340  0.95950  1.0000 -0.0534978949
N   N1        1.0  0.69400  0.68000  0.05750  1.0000 -0.1560035564
N   N2        1.0  0.68000  0.69400  0.94250  1.0000 -0.1560035564
N   N3        1.0  0.55550  0.05930  0.15130  1.0000 -0.1184106238
N   N4        1.0  0.05930  0.55550  0.84870  1.0000 -0.1184106238
N   N5        1.0  0.06800  0.06800  0.00000  1.0000 -0.2150789269
O   O1        1.0  0.32280  0.44960  0.10250  1.0000 -0.541878257
O   O2        1.0  0.44960  0.32280  0.89750  1.0000 -0.541878257
O   O3        1.0  0.19730  0.33670  0.54180  1.0000 -0.5340133526
O   O4        1.0  0.33670  0.19730  0.45820  1.0000 -0.541878257
O   O5        1.0  0.45876  0.27564  0.12980  1.0000 -0.568181745
O   O6        1.0  0.27564  0.45876  0.87020  1.0000 -0.568181745
O   O7        1.0  0.59920  0.25960  0.25570  1.0000 -0.5090430595
O   O8        1.0  0.25960  0.59920  0.74430  1.0000 -0.5090430595
O   O9        1.0  0.32850  0.61510  0.54360  1.0000 -0.541878257
O   O10       1.0  0.61510  0.32850  0.45640  1.0000 -0.541878257
O   O11       1.0  0.23930  0.83950  0.18220  1.0000 -0.4785672196
O   O12       1.0  0.83950  0.23930  0.81780  1.0000 -0.4785672196
O   O13       1.0  0.22492  0.23768  0.23210  1.0000 -0.568181745
O   O14       1.0  0.23768  0.22492  0.76790  1.0000 -0.568181745
