# DDEC6 charges by PACMAN v1.1 (https://github.com/mtap-research/PACMAN-charge/)
data_0000[Tb][nan]2[ASR]1
_chemical_formula_sum              "Tb4 H48 C96 S12 N12 O24"
_cell_length_a       12.0668
_cell_length_b       12.0668
_cell_length_c       30.6606
_cell_angle_alpha    74.1492
_cell_angle_beta     105.851
_cell_angle_gamma    134.824

_symmetry_space_group_name_H-M    "P 1"
_symmetry_Int_Tables_number       1

loop_
  _symmetry_equiv_pos_as_xyz
  'x, y, z'

loop_
  _atom_site_type_symbol
  _atom_site_label
  _atom_site_symmetry_multiplicity
  _atom_site_fract_x
  _atom_site_fract_y
  _atom_site_fract_z
  _atom_site_occupancy
  _atom_site_charge
Tb  Tb1       1.0  0.26456  0.71284  0.50246  1.0000 2.0756007215
Tb  Tb2       1.0  0.71284  0.26456  0.99754  1.0000 2.0756007215
Tb  Tb3       1.0  0.73544  0.28716  0.49754  1.0000 2.0756007215
Tb  Tb4       1.0  0.28716  0.73544  0.00246  1.0000 2.0756007215
H   H1        1.0  0.14300  0.81060  0.39250  1.0000 0.1282296149
H   H2        1.0  0.04340  0.77920  0.31590  1.0000 0.1208676068
H   H3        1.0  0.38920  0.23980  0.28180  1.0000 0.1208676068
H   H4        1.0  0.49350  0.27210  0.35760  1.0000 0.1282296149
H   H5        1.0  0.62600  0.00620  0.37090  1.0000 0.1282296149
H   H6        1.0  0.59430  0.98910  0.29450  1.0000 0.1208676068
H   H7        1.0  0.83710  0.45730  0.34100  1.0000 0.1282296149
H   H8        1.0  0.79330  0.43730  0.26450  1.0000 0.1208676068
H   H9        1.0  0.70280  0.73800  0.07180  1.0000 0.1282296149
H   H10       1.0  0.93530  0.79390  0.09080  1.0000 0.1282296149
H   H11       1.0  0.16660  0.23740  0.02970  1.0000 0.1282296149
H   H12       1.0  0.93180  0.17720  0.00940  1.0000 0.1282296149
H   H13       1.0  0.81060  0.14300  0.10750  1.0000 0.1282296149
H   H14       1.0  0.77920  0.04340  0.18410  1.0000 0.1208676068
H   H15       1.0  0.23980  0.38920  0.21820  1.0000 0.1208676068
H   H16       1.0  0.27210  0.49350  0.14240  1.0000 0.1282296149
H   H17       1.0  0.00620  0.62600  0.12910  1.0000 0.1282296149
H   H18       1.0  0.98910  0.59430  0.20550  1.0000 0.1208676068
H   H19       1.0  0.45730  0.83710  0.15900  1.0000 0.1282296149
H   H20       1.0  0.43730  0.79330  0.23550  1.0000 0.1208676068
H   H21       1.0  0.73800  0.70280  0.42820  1.0000 0.1282296149
H   H22       1.0  0.79390  0.93530  0.40920  1.0000 0.1282296149
H   H23       1.0  0.23740  0.16660  0.47030  1.0000 0.1282296149
H   H24       1.0  0.17720  0.93180  0.49060  1.0000 0.1282296149
H   H25       1.0  0.85700  0.18940  0.60750  1.0000 0.1282296149
H   H26       1.0  0.95660  0.22080  0.68410  1.0000 0.1208676068
H   H27       1.0  0.61080  0.76020  0.71820  1.0000 0.1208676068
H   H28       1.0  0.50650  0.72790  0.64240  1.0000 0.1282296149
H   H29       1.0  0.37400  0.99380  0.62910  1.0000 0.1282296149
H   H30       1.0  0.40570  0.01090  0.70550  1.0000 0.1208676068
H   H31       1.0  0.16290  0.54270  0.65900  1.0000 0.1282296149
H   H32       1.0  0.20670  0.56270  0.73550  1.0000 0.1208676068
H   H33       1.0  0.29720  0.26200  0.92820  1.0000 0.1282296149
H   H34       1.0  0.06470  0.20610  0.90920  1.0000 0.1282296149
H   H35       1.0  0.83340  0.76260  0.97030  1.0000 0.1282296149
H   H36       1.0  0.06820  0.82280  0.99060  1.0000 0.1282296149
H   H37       1.0  0.18940  0.85700  0.89250  1.0000 0.1282296149
H   H38       1.0  0.22080  0.95660  0.81590  1.0000 0.1208676068
H   H39       1.0  0.76020  0.61080  0.78180  1.0000 0.1208676068
H   H40       1.0  0.72790  0.50650  0.85760  1.0000 0.1282296149
H   H41       1.0  0.99380  0.37400  0.87090  1.0000 0.1282296149
H   H42       1.0  0.01090  0.40570  0.79450  1.0000 0.1208676068
H   H43       1.0  0.54270  0.16290  0.84100  1.0000 0.1282296149
H   H44       1.0  0.56270  0.20670  0.76450  1.0000 0.1208676068
H   H45       1.0  0.26200  0.29720  0.57180  1.0000 0.1282296149
H   H46       1.0  0.20610  0.06470  0.59080  1.0000 0.1282296149
H   H47       1.0  0.76260  0.83340  0.52970  1.0000 0.1282296149
H   H48       1.0  0.82280  0.06820  0.50940  1.0000 0.1282296149
C   C1        1.0  0.40400  0.06320  0.43170  1.0000 0.6535059592
C   C2        1.0  0.33000  0.04440  0.38300  1.0000 -0.0409701898
C   C3        1.0  0.19410  0.89710  0.37040  1.0000 -0.0876021249
C   C4        1.0  0.13380  0.87840  0.32450  1.0000 -0.1598177062
C   C5        1.0  0.20770  0.00610  0.29200  1.0000 0.0470062872
C   C6        1.0  0.34080  0.15340  0.30400  1.0000 -0.1392673714
C   C7        1.0  0.40250  0.17250  0.34940  1.0000 -0.0812347525
C   C8        1.0  0.25670  0.04430  0.20320  1.0000 0.3262531689
C   C9        1.0  0.75440  0.24700  0.41300  1.0000 0.5614290616
C   C10       1.0  0.73490  0.23270  0.36370  1.0000 -0.0251993922
C   C11       1.0  0.66200  0.09380  0.34950  1.0000 -0.0876021249
C   C12       1.0  0.64160  0.08300  0.30380  1.0000 -0.1475450018
C   C13       1.0  0.78610  0.36230  0.33160  1.0000 -0.0812347525
C   C14       1.0  0.76230  0.35130  0.28600  1.0000 -0.1598177062
C   C15       1.0  0.69130  0.21110  0.27200  1.0000 0.0678066598
C   C16       1.0  0.48560  0.13540  0.19330  1.0000 0.3391210368
C   C17       1.0  0.64090  0.91250  0.02562  1.0000 0.6250990113
C   C18       1.0  0.79400  0.95160  0.03890  1.0000 -0.0409701898
C   C19       1.0  0.79620  0.83800  0.06330  1.0000 -0.0876021249
C   C20       1.0  0.93460  0.87120  0.07520  1.0000 -0.1475450018
C   C21       1.0  0.07640  0.02560  0.06310  1.0000 0.0678066598
C   C22       1.0  0.07370  0.13730  0.03830  1.0000 -0.1392673714
C   C23       1.0  0.93330  0.10130  0.02610  1.0000 -0.0876021249
C   C24       1.0  0.30620  0.08040  0.13330  1.0000 0.3391210368
C   C25       1.0  0.06320  0.40400  0.06830  1.0000 0.6535059592
C   C26       1.0  0.04440  0.33000  0.11700  1.0000 -0.0409701898
C   C27       1.0  0.89710  0.19410  0.12960  1.0000 -0.0876021249
C   C28       1.0  0.87840  0.13380  0.17550  1.0000 -0.1598177062
C   C29       1.0  0.00610  0.20770  0.20800  1.0000 0.0470062872
C   C30       1.0  0.15340  0.34080  0.19600  1.0000 -0.1392673714
C   C31       1.0  0.17250  0.40250  0.15060  1.0000 -0.0812347525
C   C32       1.0  0.04430  0.25670  0.29680  1.0000 0.3262531689
C   C33       1.0  0.24700  0.75440  0.08700  1.0000 0.5614290616
C   C34       1.0  0.23270  0.73490  0.13630  1.0000 -0.0251993922
C   C35       1.0  0.09380  0.66200  0.15050  1.0000 -0.0876021249
C   C36       1.0  0.08300  0.64160  0.19620  1.0000 -0.1475450018
C   C37       1.0  0.36230  0.78610  0.16840  1.0000 -0.0812347525
C   C38       1.0  0.35130  0.76230  0.21400  1.0000 -0.1598177062
C   C39       1.0  0.21110  0.69130  0.22800  1.0000 0.0678066598
C   C40       1.0  0.13540  0.48560  0.30670  1.0000 0.3391210368
C   C41       1.0  0.91250  0.64090  0.47438  1.0000 0.6250990113
C   C42       1.0  0.95160  0.79400  0.46110  1.0000 -0.0409701898
C   C43       1.0  0.83800  0.79620  0.43670  1.0000 -0.0876021249
C   C44       1.0  0.87120  0.93460  0.42480  1.0000 -0.1475450018
C   C45       1.0  0.02560  0.07640  0.43690  1.0000 0.0678066598
C   C46       1.0  0.13730  0.07370  0.46170  1.0000 -0.1392673714
C   C47       1.0  0.10130  0.93330  0.47390  1.0000 -0.0876021249
C   C48       1.0  0.08040  0.30620  0.36670  1.0000 0.3391210368
C   C49       1.0  0.59600  0.93680  0.56830  1.0000 0.6535059592
C   C50       1.0  0.67000  0.95560  0.61700  1.0000 -0.0409701898
C   C51       1.0  0.80590  0.10290  0.62960  1.0000 -0.0876021249
C   C52       1.0  0.86620  0.12160  0.67550  1.0000 -0.1598177062
C   C53       1.0  0.79230  0.99390  0.70800  1.0000 0.0470062872
C   C54       1.0  0.65920  0.84660  0.69600  1.0000 -0.1392673714
C   C55       1.0  0.59750  0.82750  0.65060  1.0000 -0.0812347525
C   C56       1.0  0.74330  0.95570  0.79680  1.0000 0.3262531689
C   C57       1.0  0.24560  0.75300  0.58700  1.0000 0.5614290616
C   C58       1.0  0.26510  0.76730  0.63630  1.0000 -0.0251993922
C   C59       1.0  0.33800  0.90620  0.65050  1.0000 -0.0876021249
C   C60       1.0  0.35840  0.91700  0.69620  1.0000 -0.1475450018
C   C61       1.0  0.21390  0.63770  0.66840  1.0000 -0.0812347525
C   C62       1.0  0.23770  0.64870  0.71400  1.0000 -0.1598177062
C   C63       1.0  0.30870  0.78890  0.72800  1.0000 0.0678066598
C   C64       1.0  0.51440  0.86460  0.80670  1.0000 0.3391210368
C   C65       1.0  0.35910  0.08750  0.97438  1.0000 0.6250990113
C   C66       1.0  0.20600  0.04840  0.96110  1.0000 -0.0409701898
C   C67       1.0  0.20380  0.16200  0.93670  1.0000 -0.0876021249
C   C68       1.0  0.06540  0.12880  0.92480  1.0000 -0.1475450018
C   C69       1.0  0.92360  0.97440  0.93690  1.0000 0.0678066598
C   C70       1.0  0.92630  0.86270  0.96170  1.0000 -0.1392673714
C   C71       1.0  0.06670  0.89870  0.97390  1.0000 -0.0876021249
C   C72       1.0  0.69380  0.91960  0.86670  1.0000 0.3391210368
C   C73       1.0  0.93680  0.59600  0.93170  1.0000 0.6535059592
C   C74       1.0  0.95560  0.67000  0.88300  1.0000 -0.0409701898
C   C75       1.0  0.10290  0.80590  0.87040  1.0000 -0.0876021249
C   C76       1.0  0.12160  0.86620  0.82450  1.0000 -0.1598177062
C   C77       1.0  0.99390  0.79230  0.79200  1.0000 0.0470062872
C   C78       1.0  0.84660  0.65920  0.80400  1.0000 -0.1392673714
C   C79       1.0  0.82750  0.59750  0.84940  1.0000 -0.0812347525
C   C80       1.0  0.95570  0.74330  0.70320  1.0000 0.3262531689
C   C81       1.0  0.75300  0.24560  0.91300  1.0000 0.5614290616
C   C82       1.0  0.76730  0.26510  0.86370  1.0000 -0.0251993922
C   C83       1.0  0.90620  0.33800  0.84950  1.0000 -0.0876021249
C   C84       1.0  0.91700  0.35840  0.80380  1.0000 -0.1475450018
C   C85       1.0  0.63770  0.21390  0.83160  1.0000 -0.0812347525
C   C86       1.0  0.64870  0.23770  0.78600  1.0000 -0.1598177062
C   C87       1.0  0.78890  0.30870  0.77200  1.0000 0.0678066598
C   C88       1.0  0.86460  0.51440  0.69330  1.0000 0.3391210368
C   C89       1.0  0.08750  0.35910  0.52562  1.0000 0.6250990113
C   C90       1.0  0.04840  0.20600  0.53890  1.0000 -0.0409701898
C   C91       1.0  0.16200  0.20380  0.56330  1.0000 -0.0876021249
C   C92       1.0  0.12880  0.06540  0.57520  1.0000 -0.1475450018
C   C93       1.0  0.97440  0.92360  0.56310  1.0000 0.0678066598
C   C94       1.0  0.86270  0.92630  0.53830  1.0000 -0.1392673714
C   C95       1.0  0.89870  0.06670  0.52610  1.0000 -0.0876021249
C   C96       1.0  0.91960  0.69380  0.63330  1.0000 0.3391210368
S   S1        1.0  0.11488  0.97652  0.23500  1.0000 -0.0239287621
S   S2        1.0  0.67286  0.20214  0.21317  1.0000 -0.00298392
S   S3        1.0  0.25760  0.07240  0.07443  1.0000 0.057593404
S   S4        1.0  0.97652  0.11488  0.26500  1.0000 -0.0251993922
S   S5        1.0  0.20214  0.67286  0.28683  1.0000 -0.00298392
S   S6        1.0  0.07240  0.25760  0.42557  1.0000 0.057593404
S   S7        1.0  0.88512  0.02348  0.76500  1.0000 -0.0239287621
S   S8        1.0  0.32714  0.79786  0.78683  1.0000 -0.00298392
S   S9        1.0  0.74240  0.92760  0.92557  1.0000 0.057593404
S   S10       1.0  0.02348  0.88512  0.73500  1.0000 -0.0239287621
S   S11       1.0  0.79786  0.32714  0.71317  1.0000 -0.00298392
S   S12       1.0  0.92760  0.74240  0.57443  1.0000 0.057593404
N   N1        1.0  0.39480  0.09180  0.22296  1.0000 -0.4066065725
N   N2        1.0  0.20490  0.03650  0.15850  1.0000 -0.4066065725
N   N3        1.0  0.44900  0.13140  0.14857  1.0000 -0.4066065725
N   N4        1.0  0.09180  0.39480  0.27704  1.0000 -0.4041596333
N   N5        1.0  0.03650  0.20490  0.34150  1.0000 -0.4066065725
N   N6        1.0  0.13140  0.44900  0.35143  1.0000 -0.4041596333
N   N7        1.0  0.60520  0.90820  0.77704  1.0000 -0.4041596333
N   N8        1.0  0.79510  0.96350  0.84150  1.0000 -0.4066065725
N   N9        1.0  0.55100  0.86860  0.85143  1.0000 -0.4041596333
N   N10       1.0  0.90820  0.60520  0.72296  1.0000 -0.4066065725
N   N11       1.0  0.96350  0.79510  0.65850  1.0000 -0.4066065725
N   N12       1.0  0.86860  0.55100  0.64857  1.0000 -0.4041596333
O   O1        1.0  0.35450  0.94090  0.45857  1.0000 -0.7186020086
O   O2        1.0  0.51480  0.19940  0.44267  1.0000 -0.6309451977
O   O3        1.0  0.69510  0.12950  0.44236  1.0000 -0.6000657895
O   O4        1.0  0.82780  0.38060  0.42353  1.0000 -0.6249871472
O   O5        1.0  0.51470  0.76950  0.02499  1.0000 -0.6458831945
O   O6        1.0  0.64210  0.02050  0.01461  1.0000 -0.6918976972
O   O7        1.0  0.94090  0.35450  0.04143  1.0000 -0.7186020086
O   O8        1.0  0.19940  0.51480  0.05733  1.0000 -0.6309451977
O   O9        1.0  0.12950  0.69510  0.05764  1.0000 -0.6000657895
O   O10       1.0  0.38060  0.82780  0.07647  1.0000 -0.6249871472
O   O11       1.0  0.76950  0.51470  0.47501  1.0000 -0.6458831945
O   O12       1.0  0.02050  0.64210  0.48539  1.0000 -0.6918976972
O   O13       1.0  0.64550  0.05910  0.54143  1.0000 -0.7186020086
O   O14       1.0  0.48520  0.80060  0.55733  1.0000 -0.6309451977
O   O15       1.0  0.30490  0.87050  0.55764  1.0000 -0.6000657895
O   O16       1.0  0.17220  0.61940  0.57647  1.0000 -0.6249871472
O   O17       1.0  0.48530  0.23050  0.97501  1.0000 -0.6458831945
O   O18       1.0  0.35790  0.97950  0.98539  1.0000 -0.6918976972
O   O19       1.0  0.05910  0.64550  0.95857  1.0000 -0.7186020086
O   O20       1.0  0.80060  0.48520  0.94267  1.0000 -0.6309451977
O   O21       1.0  0.87050  0.30490  0.94236  1.0000 -0.6000657895
O   O22       1.0  0.61940  0.17220  0.92353  1.0000 -0.6249871472
O   O23       1.0  0.23050  0.48530  0.52499  1.0000 -0.6458831945
O   O24       1.0  0.97950  0.35790  0.51461  1.0000 -0.6918976972
