# DDEC6 charges by PACMAN v1.1 (https://github.com/mtap-research/PACMAN-charge/)
data_0000[NiMo][nan]3[ASR]1
_chemical_formula_sum              "Ni2 Mo8 H40 C30 N30 O16"
_cell_length_a       10.661
_cell_length_b       11.998
_cell_length_c       13.878
_cell_angle_alpha    72.774
_cell_angle_beta     79.859
_cell_angle_gamma    81.106

_symmetry_space_group_name_H-M    "P 1"
_symmetry_Int_Tables_number       1

loop_
  _symmetry_equiv_pos_as_xyz
  'x, y, z'

loop_
  _atom_site_type_symbol
  _atom_site_label
  _atom_site_symmetry_multiplicity
  _atom_site_fract_x
  _atom_site_fract_y
  _atom_site_fract_z
  _atom_site_occupancy
  _atom_site_charge
Ni  Ni1       1.0  0.00000  0.50000  0.50000  1.0000 0.7535633096
Ni  Ni2       1.0  0.00000  0.00000  0.00000  1.0000 0.7252536067
Mo  Mo1       1.0  0.85183  0.98753  0.46817  1.0000 1.6832629093
Mo  Mo2       1.0  0.14817  0.01247  0.53183  1.0000 1.6940593371
Mo  Mo3       1.0  0.87851  0.22137  0.26338  1.0000 0.9786085138
Mo  Mo4       1.0  0.12149  0.77863  0.73662  1.0000 0.9786085138
Mo  Mo5       1.0  0.87685  0.21404  0.54577  1.0000 1.719202722
Mo  Mo6       1.0  0.12315  0.78596  0.45423  1.0000 1.7282881388
Mo  Mo7       1.0  0.09085  0.99939  0.25373  1.0000 1.5858572969
Mo  Mo8       1.0  0.90915  0.00061  0.74627  1.0000 1.5858572969
H   H1        1.0  0.25730  0.60170  0.34840  1.0000 0.1025058274
H   H2        1.0  0.74270  0.39830  0.65160  1.0000 0.1025058274
H   H3        1.0  0.08420  0.34670  0.34080  1.0000 0.1193169848
H   H4        1.0  0.91580  0.65330  0.65920  1.0000 0.1193169848
H   H5        1.0  0.88050  0.77710  0.97950  1.0000 0.1117428446
H   H6        1.0  0.11950  0.22290  0.02050  1.0000 0.1117428446
H   H7        1.0  0.35940  0.36090  0.14280  1.0000 0.1193169848
H   H8        1.0  0.64060  0.63910  0.85720  1.0000 0.1193169848
H   H9        1.0  0.22490  0.31370  0.16570  1.0000 0.1193169848
H   H10       1.0  0.77510  0.68630  0.83430  1.0000 0.1193169848
H   H11       1.0  0.28940  0.17480  0.31550  1.0000 0.1193169848
H   H12       1.0  0.71060  0.82520  0.68450  1.0000 0.1193169848
H   H13       1.0  0.37260  0.15390  0.21590  1.0000 0.1025058274
H   H14       1.0  0.62740  0.84610  0.78410  1.0000 0.1025058274
H   H15       1.0  0.61230  0.19260  0.18830  1.0000 0.1117428446
H   H16       1.0  0.38770  0.80740  0.81170  1.0000 0.1117428446
H   H17       1.0  0.46090  0.25060  0.72230  1.0000 0.1193169848
H   H18       1.0  0.53910  0.74940  0.27770  1.0000 0.1193169848
H   H19       1.0  0.48110  0.24430  0.60940  1.0000 0.1117428446
H   H20       1.0  0.51890  0.75570  0.39060  1.0000 0.1025058274
H   H21       1.0  0.05940  0.42220  0.73430  1.0000 0.1025058274
H   H22       1.0  0.94060  0.57780  0.26570  1.0000 0.1117428446
H   H23       1.0  0.26840  0.31480  0.51660  1.0000 0.1193169848
H   H24       1.0  0.73160  0.68520  0.48340  1.0000 0.1193169848
H   H25       1.0  0.87370  0.55860  0.99410  1.0000 0.1117428446
H   H26       1.0  0.12630  0.44140  0.00590  1.0000 0.1117428446
H   H27       1.0  0.92190  0.48190  0.09650  1.0000 0.1025058274
H   H28       1.0  0.07810  0.51810  0.90350  1.0000 0.1025058274
H   H29       1.0  0.17720  0.04760  0.78570  1.0000 0.1306717395
H   H30       1.0  0.82280  0.95240  0.21430  1.0000 0.1306717395
H   H31       1.0  0.38800  0.06430  0.66460  1.0000 0.1117428446
H   H32       1.0  0.61200  0.93570  0.33540  1.0000 0.1117428446
H   H33       1.0  0.51290  0.05420  0.71340  1.0000 0.1025058274
H   H34       1.0  0.48710  0.94580  0.28660  1.0000 0.1025058274
H   H35       1.0  0.17400  0.75190  0.11720  1.0000 0.1193169848
H   H36       1.0  0.82600  0.24810  0.88280  1.0000 0.1193169848
H   H37       1.0  0.30370  0.99020  0.03900  1.0000 0.1025058274
H   H38       1.0  0.69630  0.00980  0.96100  1.0000 0.1025058274
H   H39       1.0  0.61370  0.25060  0.44720  1.0000 0.1025058274
H   H40       1.0  0.38630  0.74940  0.55280  1.0000 0.1025058274
C   C1        1.0  0.23800  0.53760  0.33140  1.0000 0.1306717395
C   C2        1.0  0.76200  0.46240  0.66860  1.0000 0.1306717395
C   C3        1.0  0.14350  0.40030  0.32840  1.0000 0.0684046993
C   C4        1.0  0.85650  0.59970  0.67160  1.0000 0.0684046993
C   C5        1.0  0.95130  0.74810  0.01370  1.0000 0.0507086055
C   C6        1.0  0.04870  0.25190  0.98630  1.0000 0.0507086055
C   C7        1.0  0.29470  0.32530  0.19680  1.0000 -0.1597705683
C   C8        1.0  0.70530  0.67470  0.80320  1.0000 -0.1597705683
C   C9        1.0  0.35180  0.20760  0.25810  1.0000 -0.1789075485
C   C10       1.0  0.64820  0.79240  0.74190  1.0000 -0.1789075485
C   C11       1.0  0.58730  0.20900  0.25080  1.0000 0.0037629619
C   C12       1.0  0.41270  0.79100  0.74920  1.0000 0.0037629619
C   C13       1.0  0.42540  0.22460  0.67390  1.0000 -0.1597705683
C   C14       1.0  0.57460  0.77540  0.32610  1.0000 -0.1597705683
C   C15       1.0  0.12680  0.38580  0.69830  1.0000 0.1441951492
C   C16       1.0  0.87320  0.61420  0.30170  1.0000 0.1441951492
C   C17       1.0  0.23770  0.32960  0.57910  1.0000 0.1025058274
C   C18       1.0  0.76230  0.67040  0.42090  1.0000 0.1025058274
C   C19       1.0  0.94810  0.53350  0.02980  1.0000 -0.1740248552
C   C20       1.0  0.05190  0.46650  0.97020  1.0000 -0.1740248552
C   C21       1.0  0.23010  0.03970  0.83450  1.0000 0.0642155209
C   C22       1.0  0.76990  0.96030  0.16550  1.0000 0.0642155209
C   C23       1.0  0.42530  0.09100  0.71170  1.0000 -0.1964037841
C   C24       1.0  0.57470  0.90900  0.28830  1.0000 -0.1964037841
C   C25       1.0  0.11090  0.73300  0.08810  1.0000 0.1306717395
C   C26       1.0  0.88910  0.26700  0.91190  1.0000 0.1306717395
C   C27       1.0  0.29860  0.00850  0.96980  1.0000 0.1306717395
C   C28       1.0  0.70140  0.99150  0.03020  1.0000 0.1306717395
C   C29       1.0  0.58550  0.24100  0.39070  1.0000 0.1306717395
C   C30       1.0  0.41450  0.75900  0.60930  1.0000 0.1306717395
N   N1        1.0  0.46470  0.24230  0.38670  1.0000 -0.2747503868
N   N2        1.0  0.53530  0.75770  0.61330  1.0000 -0.2747503868
N   N3        1.0  0.09870  0.62560  0.08820  1.0000 -0.2634991756
N   N4        1.0  0.90130  0.37440  0.91180  1.0000 -0.2634991756
N   N5        1.0  0.40130  0.03450  0.89830  1.0000 -0.2965005737
N   N6        1.0  0.59870  0.96550  0.10170  1.0000 -0.2965005737
N   N7        1.0  0.12950  0.39350  0.59790  1.0000 -0.3073594621
N   N8        1.0  0.87050  0.60650  0.40210  1.0000 -0.3073594621
N   N9        1.0  0.31120  0.49340  0.25970  1.0000 -0.2888985923
N   N10       1.0  0.68880  0.50660  0.74030  1.0000 -0.2888985923
N   N11       1.0  0.24640  0.40500  0.26120  1.0000 0.1592757949
N   N12       1.0  0.75360  0.59500  0.73880  1.0000 0.1592757949
N   N13       1.0  0.99600  0.63730  0.04180  1.0000 0.1515028799
N   N14       1.0  0.00400  0.36270  0.95820  1.0000 0.1515028799
N   N15       1.0  0.22400  0.32450  0.74030  1.0000 -0.2965005737
N   N16       1.0  0.77600  0.67550  0.25970  1.0000 -0.2965005737
N   N17       1.0  0.29720  0.28920  0.66030  1.0000 0.1306717395
N   N18       1.0  0.70280  0.71080  0.33970  1.0000 0.1306717395
N   N19       1.0  0.35180  0.05510  0.81400  1.0000 0.1709985012
N   N20       1.0  0.64820  0.94490  0.18600  1.0000 0.1709985012
N   N21       1.0  0.19190  0.01090  0.93530  1.0000 -0.2965005737
N   N22       1.0  0.80810  0.98910  0.06470  1.0000 -0.2965005737
N   N23       1.0  0.02060  0.81350  0.04050  1.0000 -0.3073594621
N   N24       1.0  0.97940  0.18650  0.95950  1.0000 -0.3073594621
N   N25       1.0  0.13480  0.48190  0.37640  1.0000 -0.3073594621
N   N26       1.0  0.86520  0.51810  0.62360  1.0000 -0.3073594621
N   N27       1.0  0.46890  0.22010  0.29550  1.0000 0.1709985012
N   N28       1.0  0.53110  0.77990  0.70450  1.0000 0.1709985012
N   N29       1.0  0.66790  0.22540  0.30980  1.0000 -0.3860089233
N   N30       1.0  0.33210  0.77460  0.69020  1.0000 -0.3860089233
O   O1        1.0  0.90280  0.83890  0.50040  1.0000 -0.7034405819
O   O2        1.0  0.09720  0.16110  0.49960  1.0000 -0.7034405819
O   O3        1.0  0.08940  0.97730  0.41910  1.0000 -1.0922167649
O   O4        1.0  0.91060  0.02270  0.58090  1.0000 -1.0922167649
O   O5        1.0  0.04570  0.00110  0.13980  1.0000 -0.7303755632
O   O6        1.0  0.95430  0.99890  0.86020  1.0000 -0.7359082452
O   O7        1.0  0.91980  0.35580  0.50020  1.0000 -0.7303755632
O   O8        1.0  0.08020  0.64420  0.49980  1.0000 -0.7246778956
O   O9        1.0  0.05400  0.16670  0.24580  1.0000 -0.8109654537
O   O10       1.0  0.94600  0.83330  0.75420  1.0000 -0.8109654537
O   O11       1.0  0.86610  0.17340  0.42420  1.0000 -0.9520072391
O   O12       1.0  0.13390  0.82660  0.57580  1.0000 -0.9520072391
O   O13       1.0  0.93270  0.16080  0.67750  1.0000 -0.8667036942
O   O14       1.0  0.06730  0.83920  0.32250  1.0000 -0.8667036942
O   O15       1.0  0.87920  0.02880  0.32470  1.0000 -0.9187367311
O   O16       1.0  0.12080  0.97120  0.67530  1.0000 -0.9187367311
