# DDEC6 charges by PACMAN v1.1 (https://github.com/mtap-research/PACMAN-charge/)
data_0000[Zn][rtl]3[ASR]2
_chemical_formula_sum              "Zn12 P8 H24 C64 O56"
_cell_length_a       17.3909
_cell_length_b       17.3909
_cell_length_c       17.3909
_cell_angle_alpha    116.472
_cell_angle_beta     116.472
_cell_angle_gamma    96.2284

_symmetry_space_group_name_H-M    "P 1"
_symmetry_Int_Tables_number       1

loop_
  _symmetry_equiv_pos_as_xyz
  'x, y, z'

loop_
  _atom_site_type_symbol
  _atom_site_label
  _atom_site_symmetry_multiplicity
  _atom_site_fract_x
  _atom_site_fract_y
  _atom_site_fract_z
  _atom_site_occupancy
  _atom_site_charge
Zn  Zn1       1.0  0.44721  0.50284  0.50539  1.0000 1.0280856825
Zn  Zn2       1.0  0.49716  0.00255  0.94437  1.0000 1.0280856825
Zn  Zn3       1.0  0.99745  0.94182  0.49461  1.0000 1.0280856825
Zn  Zn4       1.0  0.05818  0.55279  0.05563  1.0000 1.0280856825
Zn  Zn5       1.0  0.30279  0.30818  0.55563  1.0000 1.0280856825
Zn  Zn6       1.0  0.69182  0.24745  0.99461  1.0000 1.0280856825
Zn  Zn7       1.0  0.75255  0.74716  0.44437  1.0000 1.0280856825
Zn  Zn8       1.0  0.25284  0.69721  0.00539  1.0000 1.0280856825
Zn  Zn9       1.0  0.37500  0.25707  0.38207  1.0000 1.003084097
Zn  Zn10      1.0  0.74293  0.12500  0.11793  1.0000 1.003084097
Zn  Zn11      1.0  0.87500  0.99293  0.61793  1.0000 1.003084097
Zn  Zn12      1.0  0.00707  0.62500  0.88207  1.0000 1.003084097
P   P1        1.0  0.50376  0.40862  0.62036  1.0000 1.3083955384
P   P2        1.0  0.59138  0.21174  0.09514  1.0000 1.3083955384
P   P3        1.0  0.78826  0.88340  0.37964  1.0000 1.3083955384
P   P4        1.0  0.11660  0.49624  0.90486  1.0000 1.3083955384
P   P5        1.0  0.24624  0.36660  0.40486  1.0000 1.3083955384
P   P6        1.0  0.63340  0.03826  0.87964  1.0000 1.3083955384
P   P7        1.0  0.96174  0.84138  0.59514  1.0000 1.3083955384
P   P8        1.0  0.15862  0.75376  0.12036  1.0000 1.3083955384
H   H1        1.0  0.53520  0.34280  0.74840  1.0000 0.1432262695
H   H2        1.0  0.65720  0.40560  0.19240  1.0000 0.1432262695
H   H3        1.0  0.59440  0.78680  0.25160  1.0000 0.1432262695
H   H4        1.0  0.21320  0.46480  0.80760  1.0000 0.1432262695
H   H5        1.0  0.21480  0.46320  0.30760  1.0000 0.1432262695
H   H6        1.0  0.53680  0.84440  0.75160  1.0000 0.1432262695
H   H7        1.0  0.15560  0.90720  0.69240  1.0000 0.1432262695
H   H8        1.0  0.09280  0.78520  0.24840  1.0000 0.1432262695
H   H9        1.0  0.81200  0.44640  0.94960  1.0000 0.1480000353
H   H10       1.0  0.55360  0.50320  0.36560  1.0000 0.1480000353
H   H11       1.0  0.49680  0.86240  0.05040  1.0000 0.1480000353
H   H12       1.0  0.13760  0.18800  0.63440  1.0000 0.1480000353
H   H13       1.0  0.93800  0.38760  0.13440  1.0000 0.1480000353
H   H14       1.0  0.61240  0.74680  0.55040  1.0000 0.1480000353
H   H15       1.0  0.25320  0.80360  0.86560  1.0000 0.1480000353
H   H16       1.0  0.19640  0.06200  0.44960  1.0000 0.1480000353
H   H17       1.0  0.70210  0.50640  0.73450  1.0000 0.1480000353
H   H18       1.0  0.49360  0.22810  0.19570  1.0000 0.1480000353
H   H19       1.0  0.77190  0.96760  0.26550  1.0000 0.1480000353
H   H20       1.0  0.03240  0.29790  0.80430  1.0000 0.1480000353
H   H21       1.0  0.04790  0.28240  0.30430  1.0000 0.1480000353
H   H22       1.0  0.71760  0.02190  0.76550  1.0000 0.1480000353
H   H23       1.0  0.97810  0.74360  0.69570  1.0000 0.1480000353
H   H24       1.0  0.25640  0.95210  0.23450  1.0000 0.1480000353
C   C1        1.0  0.60480  0.42360  0.72660  1.0000 -0.1551959292
C   C2        1.0  0.57640  0.30300  0.18120  1.0000 -0.1551959292
C   C3        1.0  0.69700  0.87820  0.27340  1.0000 -0.1551959292
C   C4        1.0  0.12180  0.39520  0.81880  1.0000 -0.1551959292
C   C5        1.0  0.14520  0.37180  0.31880  1.0000 -0.1551959292
C   C6        1.0  0.62820  0.94700  0.77340  1.0000 -0.1551959292
C   C7        1.0  0.05300  0.82640  0.68120  1.0000 -0.1551959292
C   C8        1.0  0.17360  0.85480  0.22660  1.0000 -0.1551959292
C   C9        1.0  0.59440  0.37870  0.77310  1.0000 -0.0458987542
C   C10       1.0  0.62130  0.39440  0.21570  1.0000 -0.0458987542
C   C11       1.0  0.60560  0.82130  0.22690  1.0000 -0.0458987542
C   C12       1.0  0.17870  0.40560  0.78430  1.0000 -0.0458987542
C   C13       1.0  0.15560  0.42870  0.28430  1.0000 -0.0458987542
C   C14       1.0  0.57130  0.85560  0.72690  1.0000 -0.0458987542
C   C15       1.0  0.14440  0.87130  0.71570  1.0000 -0.0458987542
C   C16       1.0  0.12870  0.84440  0.27310  1.0000 -0.0458987542
C   C17       1.0  0.67290  0.38720  0.85730  1.0000 0.0025883633
C   C18       1.0  0.61280  0.47010  0.28570  1.0000 0.0025883633
C   C19       1.0  0.52990  0.81560  0.14270  1.0000 0.0025883633
C   C20       1.0  0.18440  0.32710  0.71430  1.0000 0.0025883633
C   C21       1.0  0.07710  0.43440  0.21430  1.0000 0.0025883633
C   C22       1.0  0.56560  0.77990  0.64270  1.0000 0.0025883633
C   C23       1.0  0.22010  0.86280  0.78570  1.0000 0.0025883633
C   C24       1.0  0.13720  0.92290  0.35730  1.0000 0.0025883633
C   C25       1.0  0.76050  0.44000  0.89390  1.0000 -0.0879160279
C   C26       1.0  0.56000  0.45390  0.32050  1.0000 -0.0879160279
C   C27       1.0  0.54610  0.86660  0.10610  1.0000 -0.0879160279
C   C28       1.0  0.13340  0.23950  0.67950  1.0000 -0.0879160279
C   C29       1.0  0.98950  0.38340  0.17950  1.0000 -0.0879160279
C   C30       1.0  0.61660  0.79610  0.60610  1.0000 -0.0879160279
C   C31       1.0  0.20390  0.81000  0.82050  1.0000 -0.0879160279
C   C32       1.0  0.19000  0.01050  0.39390  1.0000 -0.0879160279
C   C33       1.0  0.77190  0.48370  0.84780  1.0000 0.0025883633
C   C34       1.0  0.51630  0.36410  0.28820  1.0000 0.0025883633
C   C35       1.0  0.63590  0.92410  0.15220  1.0000 0.0025883633
C   C36       1.0  0.07590  0.22810  0.71180  1.0000 0.0025883633
C   C37       1.0  0.97810  0.32590  0.21180  1.0000 0.0025883633
C   C38       1.0  0.67410  0.88590  0.65220  1.0000 0.0025883633
C   C39       1.0  0.11410  0.76630  0.78820  1.0000 0.0025883633
C   C40       1.0  0.23370  0.02190  0.34780  1.0000 0.0025883633
C   C41       1.0  0.69350  0.47590  0.76420  1.0000 -0.0584047363
C   C42       1.0  0.52410  0.28830  0.21760  1.0000 -0.0584047363
C   C43       1.0  0.71170  0.92930  0.23580  1.0000 -0.0584047363
C   C44       1.0  0.07070  0.30650  0.78240  1.0000 -0.0584047363
C   C45       1.0  0.05650  0.32070  0.28240  1.0000 -0.0584047363
C   C46       1.0  0.67930  0.96170  0.73580  1.0000 -0.0584047363
C   C47       1.0  0.03830  0.77410  0.71760  1.0000 -0.0584047363
C   C48       1.0  0.22590  0.94350  0.26420  1.0000 -0.0584047363
C   C49       1.0  0.65710  0.33340  0.90050  1.0000 0.5501029081
C   C50       1.0  0.66667  0.56710  0.32370  1.0000 0.5501029081
C   C51       1.0  0.43290  0.75660  0.09950  1.0000 0.5501029081
C   C52       1.0  0.24340  0.34290  0.67630  1.0000 0.5501029081
C   C53       1.0  0.09290  0.49340  0.17630  1.0000 0.5501029081
C   C54       1.0  0.50660  0.68290  0.59950  1.0000 0.5501029081
C   C55       1.0  0.31710  0.91660  0.82370  1.0000 0.5501029081
C   C56       1.0  0.08340  0.90710  0.40050  1.0000 0.5501029081
C   C57       1.0  0.86920  0.53650  0.88490  1.0000 0.6080580837
C   C58       1.0  0.46350  0.34840  0.33270  1.0000 0.6080580837
C   C59       1.0  0.65160  0.98430  0.11510  1.0000 0.6080580837
C   C60       1.0  0.01570  0.13080  0.66730  1.0000 0.6080580837
C   C61       1.0  0.88080  0.26570  0.16730  1.0000 0.6080580837
C   C62       1.0  0.73430  0.90160  0.61510  1.0000 0.6080580837
C   C63       1.0  0.09840  0.71350  0.83270  1.0000 0.6080580837
C   C64       1.0  0.28650  0.11920  0.38490  1.0000 0.6080580837
O   O1        1.0  0.52790  0.49530  0.62120  1.0000 -0.6960618162
O   O2        1.0  0.50470  0.12590  0.03260  1.0000 -0.6960618162
O   O3        1.0  0.87410  0.90670  0.37880  1.0000 -0.6960618162
O   O4        1.0  0.09330  0.47210  0.96740  1.0000 -0.6960618162
O   O5        1.0  0.22210  0.34330  0.46740  1.0000 -0.6960618162
O   O6        1.0  0.65670  0.12410  0.87880  1.0000 -0.6960618162
O   O7        1.0  0.87590  0.75470  0.53260  1.0000 -0.6960618162
O   O8        1.0  0.24530  0.77790  0.12120  1.0000 -0.6960618162
O   O9        1.0  0.48170  0.32160  0.52390  1.0000 -0.7431130671
O   O10       1.0  0.67840  0.20230  0.16010  1.0000 -0.7431130671
O   O11       1.0  0.79770  0.95780  0.47610  1.0000 -0.7431130671
O   O12       1.0  0.04220  0.51830  0.83990  1.0000 -0.7431130671
O   O13       1.0  0.26830  0.29220  0.33990  1.0000 -0.7431130671
O   O14       1.0  0.70780  0.04770  0.97610  1.0000 -0.7431130671
O   O15       1.0  0.95230  0.92840  0.66010  1.0000 -0.7431130671
O   O16       1.0  0.07160  0.73170  0.02390  1.0000 -0.7431130671
O   O17       1.0  0.42680  0.39840  0.63880  1.0000 -0.706261363
O   O18       1.0  0.60160  0.24040  0.02840  1.0000 -0.706261363
O   O19       1.0  0.75960  0.78800  0.36120  1.0000 -0.706261363
O   O20       1.0  0.21200  0.57320  0.97160  1.0000 -0.706261363
O   O21       1.0  0.32320  0.46200  0.47160  1.0000 -0.706261363
O   O22       1.0  0.53800  0.00960  0.86120  1.0000 -0.706261363
O   O23       1.0  0.99040  0.85160  0.52840  1.0000 -0.706261363
O   O24       1.0  0.14840  0.67680  0.13880  1.0000 -0.706261363
O   O25       1.0  0.72770  0.34200  0.97350  1.0000 -0.4806802683
O   O26       1.0  0.65800  0.63150  0.38570  1.0000 -0.4806802683
O   O27       1.0  0.36850  0.75420  0.02650  1.0000 -0.4806802683
O   O28       1.0  0.24580  0.27230  0.61430  1.0000 -0.4806802683
O   O29       1.0  0.02230  0.49580  0.11430  1.0000 -0.4806802683
O   O30       1.0  0.50420  0.61850  0.52650  1.0000 -0.4806802683
O   O31       1.0  0.38150  0.90800  0.88570  1.0000 -0.4806802683
O   O32       1.0  0.09200  0.97770  0.47350  1.0000 -0.4806802683
O   O33       1.0  0.57810  0.28070  0.85940  1.0000 -0.4506601692
O   O34       1.0  0.71930  0.57870  0.29740  1.0000 -0.4506601692
O   O35       1.0  0.42130  0.71870  0.14060  1.0000 -0.4506601692
O   O36       1.0  0.28130  0.42190  0.70260  1.0000 -0.4506601692
O   O37       1.0  0.17190  0.53130  0.20260  1.0000 -0.4506601692
O   O38       1.0  0.46870  0.67130  0.64060  1.0000 -0.4506601692
O   O39       1.0  0.32870  0.96930  0.79740  1.0000 -0.4506601692
O   O40       1.0  0.03070  0.82810  0.35940  1.0000 -0.4506601692
O   O41       1.0  0.93420  0.54730  0.96350  1.0000 -0.5236825758
O   O42       1.0  0.45270  0.41620  0.38690  1.0000 -0.5236825758
O   O43       1.0  0.58380  0.97070  0.03650  1.0000 -0.5236825758
O   O44       1.0  0.02930  0.06580  0.61310  1.0000 -0.5236825758
O   O45       1.0  0.81580  0.27930  0.11310  1.0000 -0.5236825758
O   O46       1.0  0.72070  0.83380  0.53650  1.0000 -0.5236825758
O   O47       1.0  0.16620  0.70270  0.88690  1.0000 -0.5236825758
O   O48       1.0  0.29730  0.18420  0.46350  1.0000 -0.5236825758
O   O49       1.0  0.87727  0.57037  0.83610  1.0000 -0.4927126207
O   O50       1.0  0.42963  0.26573  0.30690  1.0000 -0.4927126207
O   O51       1.0  0.73427  0.04117  0.16390  1.0000 -0.4927126207
O   O52       1.0  0.95883  0.12273  0.69310  1.0000 -0.4927126207
O   O53       1.0  0.87273  0.20883  0.19310  1.0000 -0.4927126207
O   O54       1.0  0.79117  0.98427  0.66390  1.0000 -0.4927126207
O   O55       1.0  0.01573  0.67963  0.80690  1.0000 -0.4927126207
O   O56       1.0  0.32037  0.12727  0.33610  1.0000 -0.4927126207
