# DDEC6 charges by PACMAN v1.1 (https://github.com/mtap-research/PACMAN-charge/)
data_0000[Zn][nan]3[ASR]12
_chemical_formula_sum              "Zn10 H8 C40 O36"
_cell_length_a       7.4374
_cell_length_b       16.4283
_cell_length_c       15.775
_cell_angle_alpha    90
_cell_angle_beta     113.184
_cell_angle_gamma    90

_symmetry_space_group_name_H-M    "P 1"
_symmetry_Int_Tables_number       1

loop_
  _symmetry_equiv_pos_as_xyz
  'x, y, z'

loop_
  _atom_site_type_symbol
  _atom_site_label
  _atom_site_symmetry_multiplicity
  _atom_site_fract_x
  _atom_site_fract_y
  _atom_site_fract_z
  _atom_site_occupancy
  _atom_site_charge
Zn  Zn1       1.0  0.71244  0.12791  0.52026  1.0000 0.9773804768
Zn  Zn2       1.0  0.28756  0.62791  0.97974  1.0000 0.9773804768
Zn  Zn3       1.0  0.28756  0.87209  0.47974  1.0000 0.9773804768
Zn  Zn4       1.0  0.71244  0.37209  0.02026  1.0000 0.9773804768
Zn  Zn5       1.0  0.00000  0.00000  0.50000  1.0000 0.9937778934
Zn  Zn6       1.0  0.00000  0.50000  0.00000  1.0000 0.9937778934
Zn  Zn7       1.0  0.54123  0.01827  0.31879  1.0000 0.9698132946
Zn  Zn8       1.0  0.45877  0.51827  0.18121  1.0000 0.9698132946
Zn  Zn9       1.0  0.45877  0.98173  0.68121  1.0000 0.9698132946
Zn  Zn10      1.0  0.54123  0.48173  0.81879  1.0000 0.9698132946
H   H1        1.0  0.75480  0.29330  0.32490  1.0000 0.1346619501
H   H2        1.0  0.24520  0.79330  0.17510  1.0000 0.1346619501
H   H3        1.0  0.24520  0.70670  0.67510  1.0000 0.1346619501
H   H4        1.0  0.75480  0.20670  0.82490  1.0000 0.1346619501
H   H5        1.0  0.31900  0.27490  0.27150  1.0000 0.1363279409
H   H6        1.0  0.68100  0.77490  0.22850  1.0000 0.1363279409
H   H7        1.0  0.68100  0.72510  0.72850  1.0000 0.1363279409
H   H8        1.0  0.31900  0.22510  0.77150  1.0000 0.1363279409
C   C1        1.0  0.07120  0.34020  0.23890  1.0000 -0.0354091004
C   C2        1.0  0.92880  0.84020  0.26110  1.0000 -0.0354091004
C   C3        1.0  0.92880  0.65980  0.76110  1.0000 -0.0354091004
C   C4        1.0  0.07120  0.15980  0.73890  1.0000 -0.0354091004
C   C5        1.0  0.12720  0.40022  0.18140  1.0000 0.6156466131
C   C6        1.0  0.87280  0.90022  0.31860  1.0000 0.6156466131
C   C7        1.0  0.87280  0.59978  0.81860  1.0000 0.6156466131
C   C8        1.0  0.12720  0.09978  0.68140  1.0000 0.6156466131
C   C9        1.0  0.31870  0.15397  0.37250  1.0000 0.614976935
C   C10       1.0  0.68130  0.65397  0.12750  1.0000 0.6156466131
C   C11       1.0  0.68130  0.84603  0.62750  1.0000 0.6156466131
C   C12       1.0  0.31870  0.34603  0.87250  1.0000 0.614976935
C   C13       1.0  0.89770  0.34501  0.25450  1.0000 -0.0614337167
C   C14       1.0  0.10230  0.84501  0.24550  1.0000 -0.0614337167
C   C15       1.0  0.10230  0.65499  0.74550  1.0000 -0.0614337167
C   C16       1.0  0.89770  0.15499  0.75450  1.0000 -0.0614337167
C   C17       1.0  0.16480  0.21922  0.33380  1.0000 -0.0051643833
C   C18       1.0  0.83520  0.71922  0.16620  1.0000 -0.0042538988
C   C19       1.0  0.83520  0.78078  0.66620  1.0000 -0.0051643833
C   C20       1.0  0.16480  0.28078  0.83380  1.0000 -0.0042538988
C   C21       1.0  0.94120  0.16336  0.40650  1.0000 0.5981015637
C   C22       1.0  0.05880  0.66336  0.09350  1.0000 0.5981015637
C   C23       1.0  0.05880  0.83664  0.59350  1.0000 0.5981015637
C   C24       1.0  0.94120  0.33664  0.90650  1.0000 0.5981015637
C   C25       1.0  0.86600  0.28856  0.31200  1.0000 -0.0943782107
C   C26       1.0  0.13400  0.78856  0.18800  1.0000 -0.0943782107
C   C27       1.0  0.13400  0.71144  0.68800  1.0000 -0.0943782107
C   C28       1.0  0.86600  0.21144  0.81200  1.0000 -0.0943782107
C   C29       1.0  0.20260  0.27751  0.28030  1.0000 -0.1206537933
C   C30       1.0  0.79740  0.77751  0.21970  1.0000 -0.1206537933
C   C31       1.0  0.79740  0.72249  0.71970  1.0000 -0.1206537933
C   C32       1.0  0.20260  0.22249  0.78030  1.0000 -0.1206537933
C   C33       1.0  0.99500  0.22481  0.35110  1.0000 -0.0473946157
C   C34       1.0  0.00500  0.72481  0.14890  1.0000 -0.0473946157
C   C35       1.0  0.00500  0.77519  0.64890  1.0000 -0.0473946157
C   C36       1.0  0.99500  0.27519  0.85110  1.0000 -0.0473946157
C   C37       1.0  0.74060  0.40719  0.21290  1.0000 0.5981015637
C   C38       1.0  0.25940  0.90719  0.28710  1.0000 0.5981015637
C   C39       1.0  0.25940  0.59281  0.78710  1.0000 0.5981015637
C   C40       1.0  0.74060  0.09281  0.71290  1.0000 0.5981015637
O   O1        1.0  0.70054  0.01747  0.45364  1.0000 -0.7406512127
O   O2        1.0  0.29946  0.51747  0.04636  1.0000 -0.7406512127
O   O3        1.0  0.29946  0.98253  0.54636  1.0000 -0.7406512127
O   O4        1.0  0.70054  0.48253  0.95364  1.0000 -0.7406512127
O   O5        1.0  0.02180  0.09523  0.41790  1.0000 -0.4807349146
O   O6        1.0  0.97820  0.59523  0.08210  1.0000 -0.4807349146
O   O7        1.0  0.97820  0.90477  0.58210  1.0000 -0.4807349146
O   O8        1.0  0.02180  0.40477  0.91790  1.0000 -0.4807349146
O   O9        1.0  0.69162  0.44959  0.26602  1.0000 -0.4807349146
O   O10       1.0  0.30838  0.94959  0.23398  1.0000 -0.4807349146
O   O11       1.0  0.30838  0.55041  0.73398  1.0000 -0.4807349146
O   O12       1.0  0.69162  0.05041  0.76602  1.0000 -0.4807349146
O   O13       1.0  0.33434  0.10547  0.31574  1.0000 -0.5148554818
O   O14       1.0  0.66566  0.60547  0.18426  1.0000 -0.5148554818
O   O15       1.0  0.66566  0.89453  0.68426  1.0000 -0.5148554818
O   O16       1.0  0.33434  0.39453  0.81574  1.0000 -0.5148554818
O   O17       1.0  0.65177  0.41322  0.12677  1.0000 -0.5019995646
O   O18       1.0  0.34823  0.91322  0.37323  1.0000 -0.5019995646
O   O19       1.0  0.34823  0.58678  0.87323  1.0000 -0.5019995646
O   O20       1.0  0.65177  0.08678  0.62677  1.0000 -0.5019995646
O   O21       1.0  0.00389  0.41485  0.10189  1.0000 -0.5302425401
O   O22       1.0  0.99611  0.91485  0.39811  1.0000 -0.5302425401
O   O23       1.0  0.99611  0.58515  0.89811  1.0000 -0.5302425401
O   O24       1.0  0.00389  0.08515  0.60189  1.0000 -0.5302425401
O   O25       1.0  0.29241  0.42963  0.21661  1.0000 -0.4907387943
O   O26       1.0  0.70759  0.92963  0.28339  1.0000 -0.4907387943
O   O27       1.0  0.70759  0.57037  0.78339  1.0000 -0.4907387943
O   O28       1.0  0.29241  0.07037  0.71661  1.0000 -0.4907387943
O   O29       1.0  0.81540  0.18520  0.43670  1.0000 -0.5475593285
O   O30       1.0  0.18460  0.68520  0.06330  1.0000 -0.5475593285
O   O31       1.0  0.18460  0.81480  0.56330  1.0000 -0.5475593285
O   O32       1.0  0.81540  0.31480  0.93670  1.0000 -0.5475593285
O   O33       1.0  0.42590  0.15824  0.45650  1.0000 -0.4907387943
O   O34       1.0  0.57410  0.65824  0.04350  1.0000 -0.4907387943
O   O35       1.0  0.57410  0.84176  0.54350  1.0000 -0.4907387943
O   O36       1.0  0.42590  0.34176  0.95650  1.0000 -0.4907387943
