# DDEC6 charges by PACMAN v1.1 (https://github.com/mtap-research/PACMAN-charge/)
data_0000[PrSb][dia]3[ASR]1
_chemical_formula_sum              "Pr2 Sb4 H48 C40 N8 O40"
_cell_length_a       7.2343
_cell_length_b       10.7031
_cell_length_c       23.0805
_cell_angle_alpha    90
_cell_angle_beta     90
_cell_angle_gamma    90

_symmetry_space_group_name_H-M    "P 1"
_symmetry_Int_Tables_number       1

loop_
  _symmetry_equiv_pos_as_xyz
  'x, y, z'

loop_
  _atom_site_type_symbol
  _atom_site_label
  _atom_site_symmetry_multiplicity
  _atom_site_fract_x
  _atom_site_fract_y
  _atom_site_fract_z
  _atom_site_occupancy
  _atom_site_charge
Pr  Pr1       1.0  0.10300  0.50000  0.50000  1.0000 1.8231374062
Pr  Pr2       1.0  0.60300  0.00000  0.00000  1.0000 1.8231374062
Sb  Sb1       1.0  0.79884  0.27440  0.25860  1.0000 0.9742204584
Sb  Sb2       1.0  0.79884  0.72560  0.74140  1.0000 0.9742204584
Sb  Sb3       1.0  0.29884  0.77440  0.24140  1.0000 0.9742204584
Sb  Sb4       1.0  0.29884  0.22560  0.75860  1.0000 0.9742204584
H   H1        1.0  0.52420  0.40180  0.39950  1.0000 0.1405642367
H   H2        1.0  0.52420  0.59820  0.60050  1.0000 0.1405642367
H   H3        1.0  0.02420  0.90180  0.10050  1.0000 0.1405642367
H   H4        1.0  0.02420  0.09820  0.89950  1.0000 0.1405642367
H   H5        1.0  0.58800  0.48720  0.34800  1.0000 0.1578280068
H   H6        1.0  0.58800  0.51280  0.65200  1.0000 0.1578280068
H   H7        1.0  0.08800  0.98720  0.15200  1.0000 0.1578280068
H   H8        1.0  0.08800  0.01280  0.84800  1.0000 0.1578280068
H   H9        1.0  0.40870  0.17380  0.36590  1.0000 0.1405642367
H   H10       1.0  0.40870  0.82620  0.63410  1.0000 0.1405642367
H   H11       1.0  0.90870  0.67380  0.13410  1.0000 0.1405642367
H   H12       1.0  0.90870  0.32620  0.86590  1.0000 0.1405642367
H   H13       1.0  0.60520  0.18940  0.39340  1.0000 0.1495436854
H   H14       1.0  0.60520  0.81060  0.60660  1.0000 0.1495436854
H   H15       1.0  0.10520  0.68940  0.10660  1.0000 0.1495436854
H   H16       1.0  0.10520  0.31060  0.89340  1.0000 0.1495436854
H   H17       1.0  0.39960  0.42830  0.28140  1.0000 0.1146052303
H   H18       1.0  0.39960  0.57170  0.71860  1.0000 0.1146052303
H   H19       1.0  0.89960  0.92830  0.21860  1.0000 0.1146052303
H   H20       1.0  0.89960  0.07170  0.78140  1.0000 0.1146052303
H   H21       1.0  0.28550  0.33150  0.31790  1.0000 0.1267462782
H   H22       1.0  0.28550  0.66850  0.68210  1.0000 0.1267462782
H   H23       1.0  0.78550  0.83150  0.18210  1.0000 0.1267462782
H   H24       1.0  0.78550  0.16850  0.81790  1.0000 0.1267462782
H   H25       1.0  0.34380  0.17530  0.25100  1.0000 0.1146052303
H   H26       1.0  0.34380  0.82470  0.74900  1.0000 0.1152715794
H   H27       1.0  0.84380  0.67530  0.24900  1.0000 0.1146052303
H   H28       1.0  0.84380  0.32470  0.75100  1.0000 0.1146052303
H   H29       1.0  0.26150  0.29030  0.21760  1.0000 0.1267462782
H   H30       1.0  0.26150  0.70970  0.78240  1.0000 0.1267462782
H   H31       1.0  0.76150  0.79030  0.28240  1.0000 0.1267462782
H   H32       1.0  0.76150  0.20970  0.71760  1.0000 0.1267462782
H   H33       1.0  0.41040  0.39930  0.15380  1.0000 0.1495436854
H   H34       1.0  0.41040  0.60070  0.84620  1.0000 0.1495436854
H   H35       1.0  0.91040  0.89930  0.34620  1.0000 0.1495436854
H   H36       1.0  0.91040  0.10070  0.65380  1.0000 0.1495436854
H   H37       1.0  0.60390  0.36050  0.12910  1.0000 0.1495436854
H   H38       1.0  0.60390  0.63950  0.87090  1.0000 0.1495436854
H   H39       1.0  0.10390  0.86050  0.37090  1.0000 0.1495436854
H   H40       1.0  0.10390  0.13950  0.62910  1.0000 0.1495436854
H   H41       1.0  0.44540  0.16220  0.13410  1.0000 0.1495436854
H   H42       1.0  0.44540  0.83780  0.86590  1.0000 0.1495436854
H   H43       1.0  0.94540  0.66220  0.36590  1.0000 0.1495436854
H   H44       1.0  0.94540  0.33780  0.63410  1.0000 0.1495436854
H   H45       1.0  0.50530  0.07980  0.18720  1.0000 0.1495436854
H   H46       1.0  0.50530  0.92020  0.81280  1.0000 0.1495436854
H   H47       1.0  0.00530  0.57980  0.31280  1.0000 0.1495436854
H   H48       1.0  0.00530  0.42020  0.68720  1.0000 0.1495436854
C   C1        1.0  0.60750  0.40700  0.36664  1.0000 -0.2781197988
C   C2        1.0  0.60750  0.59300  0.63336  1.0000 -0.2781197988
C   C3        1.0  0.10750  0.90700  0.13336  1.0000 -0.2781197988
C   C4        1.0  0.10750  0.09300  0.86664  1.0000 -0.2781197988
C   C5        1.0  0.80540  0.39970  0.38810  1.0000 0.6268849409
C   C6        1.0  0.80540  0.60030  0.61190  1.0000 0.6268849409
C   C7        1.0  0.30540  0.89970  0.11190  1.0000 0.6268849409
C   C8        1.0  0.30540  0.10030  0.88810  1.0000 0.6268849409
C   C9        1.0  0.53870  0.18460  0.35700  1.0000 -0.2996663116
C   C10       1.0  0.53870  0.81540  0.64300  1.0000 -0.2996663116
C   C11       1.0  0.03870  0.68460  0.14300  1.0000 -0.2996663116
C   C12       1.0  0.03870  0.31540  0.85700  1.0000 -0.2996663116
C   C13       1.0  0.60520  0.07180  0.32414  1.0000 0.589071337
C   C14       1.0  0.60520  0.92820  0.67586  1.0000 0.589071337
C   C15       1.0  0.10520  0.57180  0.17586  1.0000 0.589071337
C   C16       1.0  0.10520  0.42820  0.82414  1.0000 0.589071337
C   C17       1.0  0.39200  0.34120  0.29279  1.0000 -0.1341093742
C   C18       1.0  0.39200  0.65880  0.70721  1.0000 -0.1341093742
C   C19       1.0  0.89200  0.84120  0.20721  1.0000 -0.1341093742
C   C20       1.0  0.89200  0.15880  0.79279  1.0000 -0.1341093742
C   C21       1.0  0.36740  0.26100  0.23946  1.0000 -0.1364407354
C   C22       1.0  0.36740  0.73900  0.76054  1.0000 -0.1364407354
C   C23       1.0  0.86740  0.76100  0.26054  1.0000 -0.1364407354
C   C24       1.0  0.86740  0.23900  0.73946  1.0000 -0.1364407354
C   C25       1.0  0.53660  0.37890  0.16447  1.0000 -0.2893262022
C   C26       1.0  0.53660  0.62110  0.83553  1.0000 -0.2893262022
C   C27       1.0  0.03660  0.87890  0.33553  1.0000 -0.2893262022
C   C28       1.0  0.03660  0.12110  0.66447  1.0000 -0.2893262022
C   C29       1.0  0.62370  0.49100  0.19369  1.0000 0.5952758528
C   C30       1.0  0.62370  0.50900  0.80631  1.0000 0.5952758528
C   C31       1.0  0.12370  0.99100  0.30631  1.0000 0.5952758528
C   C32       1.0  0.12370  0.00900  0.69369  1.0000 0.5952758528
C   C33       1.0  0.53730  0.15280  0.16439  1.0000 -0.2893262022
C   C34       1.0  0.53730  0.84720  0.83561  1.0000 -0.2893262022
C   C35       1.0  0.03730  0.65280  0.33561  1.0000 -0.2893262022
C   C36       1.0  0.03730  0.34720  0.66439  1.0000 -0.2893262022
C   C37       1.0  0.22570  0.63430  0.36271  1.0000 0.6448433436
C   C38       1.0  0.22570  0.36570  0.63729  1.0000 0.6448433436
C   C39       1.0  0.72570  0.13430  0.13729  1.0000 0.6448433436
C   C40       1.0  0.72570  0.86570  0.86271  1.0000 0.6448433436
N   N1        1.0  0.56310  0.30570  0.32507  1.0000 -0.0398046747
N   N2        1.0  0.56310  0.69430  0.67493  1.0000 -0.0398046747
N   N3        1.0  0.06310  0.80570  0.17493  1.0000 -0.0398046747
N   N4        1.0  0.06310  0.19430  0.82507  1.0000 -0.0398046747
N   N5        1.0  0.53580  0.26550  0.20215  1.0000 -0.0297191255
N   N6        1.0  0.53580  0.73450  0.79785  1.0000 -0.0297191255
N   N7        1.0  0.03580  0.76550  0.29785  1.0000 -0.0297191255
N   N8        1.0  0.03580  0.23450  0.70215  1.0000 -0.0297191255
O   O1        1.0  0.91680  0.33580  0.35930  1.0000 -0.5195464902
O   O2        1.0  0.91680  0.66420  0.64070  1.0000 -0.5195464902
O   O3        1.0  0.41680  0.83580  0.14070  1.0000 -0.5195464902
O   O4        1.0  0.41680  0.16420  0.85930  1.0000 -0.5195464902
O   O5        1.0  0.84360  0.46340  0.43182  1.0000 -0.6634596699
O   O6        1.0  0.84360  0.53660  0.56818  1.0000 -0.6634596699
O   O7        1.0  0.34360  0.96340  0.06818  1.0000 -0.6634596699
O   O8        1.0  0.34360  0.03660  0.93182  1.0000 -0.6634596699
O   O9        1.0  0.70540  0.09170  0.27814  1.0000 -0.5105433725
O   O10       1.0  0.70540  0.90830  0.72186  1.0000 -0.5105433725
O   O11       1.0  0.20540  0.59170  0.22186  1.0000 -0.5105433725
O   O12       1.0  0.20540  0.40830  0.77814  1.0000 -0.5105433725
O   O13       1.0  0.56740  0.96680  0.34121  1.0000 -0.5105433725
O   O14       1.0  0.56740  0.03320  0.65879  1.0000 -0.5105433725
O   O15       1.0  0.06740  0.46680  0.15879  1.0000 -0.5105433725
O   O16       1.0  0.06740  0.53320  0.84121  1.0000 -0.5105433725
O   O17       1.0  0.71750  0.46910  0.23955  1.0000 -0.5195464902
O   O18       1.0  0.71750  0.53090  0.76045  1.0000 -0.5195464902
O   O19       1.0  0.21750  0.96910  0.26045  1.0000 -0.5195464902
O   O20       1.0  0.21750  0.03090  0.73955  1.0000 -0.5195464902
O   O21       1.0  0.60360  0.59500  0.17154  1.0000 -0.5311412179
O   O22       1.0  0.60360  0.40500  0.82846  1.0000 -0.5311412179
O   O23       1.0  0.10360  0.09500  0.32846  1.0000 -0.5311412179
O   O24       1.0  0.10360  0.90500  0.67154  1.0000 -0.5311412179
O   O25       1.0  0.86150  0.18040  0.16422  1.0000 -0.5045778864
O   O26       1.0  0.86150  0.81960  0.83578  1.0000 -0.5045778864
O   O27       1.0  0.36150  0.68040  0.33578  1.0000 -0.5045778864
O   O28       1.0  0.36150  0.31960  0.66422  1.0000 -0.5045778864
O   O29       1.0  0.23750  0.57160  0.40784  1.0000 -0.6718361341
O   O30       1.0  0.23750  0.42840  0.59216  1.0000 -0.6718361341
O   O31       1.0  0.73750  0.07160  0.09216  1.0000 -0.6718361341
O   O32       1.0  0.73750  0.92840  0.90784  1.0000 -0.6718361341
O   O33       1.0  0.20780  0.31020  0.43886  1.0000 -0.0054647723
O   O34       1.0  0.20780  0.68980  0.56114  1.0000 -0.0054647723
O   O35       1.0  0.70780  0.81020  0.06114  1.0000 -0.0172860437
O   O36       1.0  0.70780  0.18980  0.93886  1.0000 -0.0172860437
O   O37       1.0  0.28900  0.31480  0.47030  1.0000 -0.0723266807
O   O38       1.0  0.28900  0.68520  0.52970  1.0000 -0.0723266807
O   O39       1.0  0.78900  0.81480  0.02970  1.0000 -0.0723266807
O   O40       1.0  0.78900  0.18520  0.97030  1.0000 -0.0723266807
