# DDEC6 charges by PACMAN v1.1 (https://github.com/mtap-research/PACMAN-charge/)
data_0000[Co][pcu]3[ASR]1
_chemical_formula_sum              "Co4 H88 C128 N16 O28"
_cell_length_a       10.061
_cell_length_b       25.034
_cell_length_c       15.8151
_cell_angle_alpha    90
_cell_angle_beta     115.21
_cell_angle_gamma    90

_symmetry_space_group_name_H-M    "P 1"
_symmetry_Int_Tables_number       1

loop_
  _symmetry_equiv_pos_as_xyz
  'x, y, z'

loop_
  _atom_site_type_symbol
  _atom_site_label
  _atom_site_symmetry_multiplicity
  _atom_site_fract_x
  _atom_site_fract_y
  _atom_site_fract_z
  _atom_site_occupancy
  _atom_site_charge
Co  Co1       1.0  0.88603  0.52123  0.85893  1.0000 0.8333211899
Co  Co2       1.0  0.11397  0.47877  0.14107  1.0000 0.8333211899
Co  Co3       1.0  0.11397  0.02123  0.64107  1.0000 0.8333211899
Co  Co4       1.0  0.88603  0.97877  0.35893  1.0000 0.8333211899
H   H1        1.0  0.68940  0.43200  0.86740  1.0000 0.1013438146
H   H2        1.0  0.31060  0.56800  0.13260  1.0000 0.1013438146
H   H3        1.0  0.66200  0.34170  0.86200  1.0000 0.1328918373
H   H4        1.0  0.33800  0.65830  0.13800  1.0000 0.1328918373
H   H5        1.0  0.04210  0.32960  0.83830  1.0000 0.1404268401
H   H6        1.0  0.95790  0.67040  0.16170  1.0000 0.1404268401
H   H7        1.0  0.05570  0.42060  0.84410  1.0000 0.1096367472
H   H8        1.0  0.94430  0.57940  0.15590  1.0000 0.1096367472
H   H9        1.0  0.69750  0.18480  0.87190  1.0000 0.1096367472
H   H10       1.0  0.30250  0.81520  0.12810  1.0000 0.1096367472
H   H11       1.0  0.61700  0.09700  0.84860  1.0000 0.1404268401
H   H12       1.0  0.38300  0.90300  0.15140  1.0000 0.1404268401
H   H13       1.0  0.95520  0.05720  0.79170  1.0000 0.1562162399
H   H14       1.0  0.04480  0.94280  0.20830  1.0000 0.1562162399
H   H15       1.0  0.03630  0.14460  0.81760  1.0000 0.1201348549
H   H16       1.0  0.96370  0.85540  0.18240  1.0000 0.1201348549
H   H17       1.0  0.59960  0.93780  0.71480  1.0000 0.1404268401
H   H18       1.0  0.40040  0.06220  0.28520  1.0000 0.1404268401
H   H19       1.0  0.68470  0.85170  0.74010  1.0000 0.1096367472
H   H20       1.0  0.31530  0.14830  0.25990  1.0000 0.1096367472
H   H21       1.0  0.06940  0.90380  0.93370  1.0000 0.1201348549
H   H22       1.0  0.93060  0.09620  0.06630  1.0000 0.1201348549
H   H23       1.0  0.97900  0.99010  0.91060  1.0000 0.1328918373
H   H24       1.0  0.02100  0.00990  0.08940  1.0000 0.1328918373
H   H25       1.0  0.64590  0.70200  0.77430  1.0000 0.1328918373
H   H26       1.0  0.35410  0.29800  0.22570  1.0000 0.1328918373
H   H27       1.0  0.66680  0.61210  0.78570  1.0000 0.1096367472
H   H28       1.0  0.33320  0.38790  0.21430  1.0000 0.1096367472
H   H29       1.0  0.08610  0.62200  0.91890  1.0000 0.1096367472
H   H30       1.0  0.91390  0.37800  0.08110  1.0000 0.1096367472
H   H31       1.0  0.07600  0.71260  0.91830  1.0000 0.1404268401
H   H32       1.0  0.92400  0.28740  0.08170  1.0000 0.1404268401
H   H33       1.0  0.67960  0.45590  0.12450  1.0000 0.1201348549
H   H34       1.0  0.32040  0.54410  0.87550  1.0000 0.1201348549
H   H35       1.0  0.44120  0.45570  0.10780  1.0000 0.1201348549
H   H36       1.0  0.55880  0.54430  0.89220  1.0000 0.1201348549
H   H37       1.0  0.57480  0.50830  0.38100  1.0000 0.1201348549
H   H38       1.0  0.42520  0.49170  0.61900  1.0000 0.1201348549
H   H39       1.0  0.74300  0.51830  0.53480  1.0000 0.1096367472
H   H40       1.0  0.25700  0.48170  0.46520  1.0000 0.1096367472
H   H41       1.0  0.74750  0.25850  0.84740  1.0000 0.2757776439
H   H42       1.0  0.25250  0.74150  0.15260  1.0000 0.2757776439
H   H43       1.0  0.75030  0.78490  0.81980  1.0000 0.2757776439
H   H44       1.0  0.24970  0.21510  0.18020  1.0000 0.2757776439
H   H45       1.0  0.31060  0.93200  0.63260  1.0000 0.1013438146
H   H46       1.0  0.68940  0.06800  0.36740  1.0000 0.1013438146
H   H47       1.0  0.33800  0.84170  0.63800  1.0000 0.1328918373
H   H48       1.0  0.66200  0.15830  0.36200  1.0000 0.1328918373
H   H49       1.0  0.95790  0.82960  0.66170  1.0000 0.1404268401
H   H50       1.0  0.04210  0.17040  0.33830  1.0000 0.1404268401
H   H51       1.0  0.94430  0.92060  0.65590  1.0000 0.1096367472
H   H52       1.0  0.05570  0.07940  0.34410  1.0000 0.1096367472
H   H53       1.0  0.30250  0.68480  0.62810  1.0000 0.1096367472
H   H54       1.0  0.69750  0.31520  0.37190  1.0000 0.1096367472
H   H55       1.0  0.38300  0.59700  0.65140  1.0000 0.1404268401
H   H56       1.0  0.61700  0.40300  0.34860  1.0000 0.1404268401
H   H57       1.0  0.04480  0.55720  0.70830  1.0000 0.1562162399
H   H58       1.0  0.95520  0.44280  0.29170  1.0000 0.1562162399
H   H59       1.0  0.96370  0.64460  0.68240  1.0000 0.1201348549
H   H60       1.0  0.03630  0.35540  0.31760  1.0000 0.1201348549
H   H61       1.0  0.40040  0.43780  0.78520  1.0000 0.1404268401
H   H62       1.0  0.59960  0.56220  0.21480  1.0000 0.1404268401
H   H63       1.0  0.31530  0.35170  0.75990  1.0000 0.1096367472
H   H64       1.0  0.68470  0.64830  0.24010  1.0000 0.1096367472
H   H65       1.0  0.93060  0.40380  0.56630  1.0000 0.1201348549
H   H66       1.0  0.06940  0.59620  0.43370  1.0000 0.1201348549
H   H67       1.0  0.02100  0.49010  0.58940  1.0000 0.1328918373
H   H68       1.0  0.97900  0.50990  0.41060  1.0000 0.1328918373
H   H69       1.0  0.35410  0.20200  0.72570  1.0000 0.1328918373
H   H70       1.0  0.64590  0.79800  0.27430  1.0000 0.1328918373
H   H71       1.0  0.33320  0.11210  0.71430  1.0000 0.1096367472
H   H72       1.0  0.66680  0.88790  0.28570  1.0000 0.1096367472
H   H73       1.0  0.91390  0.12200  0.58110  1.0000 0.1096367472
H   H74       1.0  0.08610  0.87800  0.41890  1.0000 0.1096367472
H   H75       1.0  0.92400  0.21260  0.58170  1.0000 0.1404268401
H   H76       1.0  0.07600  0.78740  0.41830  1.0000 0.1404268401
H   H77       1.0  0.32040  0.95590  0.37550  1.0000 0.1201348549
H   H78       1.0  0.67960  0.04410  0.62450  1.0000 0.1096367472
H   H79       1.0  0.55880  0.95570  0.39220  1.0000 0.1201348549
H   H80       1.0  0.44120  0.04430  0.60780  1.0000 0.1201348549
H   H81       1.0  0.42520  0.00830  0.11900  1.0000 0.1201348549
H   H82       1.0  0.57480  0.99170  0.88100  1.0000 0.1201348549
H   H83       1.0  0.25700  0.01830  0.96520  1.0000 0.1096367472
H   H84       1.0  0.74300  0.98170  0.03480  1.0000 0.1096367472
H   H85       1.0  0.25250  0.75850  0.65260  1.0000 0.2757776439
H   H86       1.0  0.74750  0.24150  0.34740  1.0000 0.2757776439
H   H87       1.0  0.24970  0.28490  0.68020  1.0000 0.2757776439
H   H88       1.0  0.75030  0.71510  0.31980  1.0000 0.2757776439
C   C1        1.0  0.76180  0.41106  0.86210  1.0000 0.0879165105
C   C2        1.0  0.23820  0.58894  0.13790  1.0000 0.0879165105
C   C3        1.0  0.74470  0.35673  0.85940  1.0000 -0.2654668927
C   C4        1.0  0.25530  0.64327  0.14060  1.0000 -0.2654668927
C   C5        1.0  0.85150  0.32432  0.85270  1.0000 0.2727910861
C   C6        1.0  0.14850  0.67568  0.14730  1.0000 0.2727910861
C   C7        1.0  0.96930  0.34945  0.84530  1.0000 -0.2331346326
C   C8        1.0  0.03070  0.65055  0.15470  1.0000 -0.2331346326
C   C9        1.0  0.97570  0.40428  0.84850  1.0000 0.1013438146
C   C10       1.0  0.02430  0.59572  0.15150  1.0000 0.1013438146
C   C11       1.0  0.92870  0.23026  0.85530  1.0000 0.4710414916
C   C12       1.0  0.07130  0.76974  0.14470  1.0000 0.4710414916
C   C13       1.0  0.87400  0.17398  0.84530  1.0000 -0.0507639214
C   C14       1.0  0.12600  0.82602  0.15470  1.0000 -0.0507639214
C   C15       1.0  0.74940  0.15923  0.85550  1.0000 -0.1277176646
C   C16       1.0  0.25060  0.84077  0.14450  1.0000 -0.1244988084
C   C17       1.0  0.70100  0.10681  0.84180  1.0000 -0.1972257981
C   C18       1.0  0.29900  0.89319  0.15820  1.0000 -0.1972257981
C   C19       1.0  0.77930  0.06941  0.81790  1.0000 0.2452763677
C   C20       1.0  0.22070  0.93059  0.18210  1.0000 0.2452763677
C   C21       1.0  0.90350  0.08288  0.80810  1.0000 -0.1972257981
C   C22       1.0  0.09650  0.91712  0.19190  1.0000 -0.1972257981
C   C23       1.0  0.95070  0.13524  0.82290  1.0000 -0.0804418014
C   C24       1.0  0.04930  0.86476  0.17710  1.0000 -0.0804418014
C   C25       1.0  0.78230  0.97191  0.81030  1.0000 0.2452763677
C   C26       1.0  0.21770  0.02809  0.18970  1.0000 0.2452763677
C   C27       1.0  0.69420  0.93073  0.75970  1.0000 -0.1885089815
C   C28       1.0  0.30580  0.06927  0.24030  1.0000 -0.1885089815
C   C29       1.0  0.74480  0.87931  0.77500  1.0000 -0.1277176646
C   C30       1.0  0.25520  0.12069  0.22500  1.0000 -0.1277176646
C   C31       1.0  0.88440  0.86810  0.84170  1.0000 -0.0507639214
C   C32       1.0  0.11560  0.13190  0.15830  1.0000 -0.0507639214
C   C33       1.0  0.97330  0.91039  0.89060  1.0000 -0.0804418014
C   C34       1.0  0.02670  0.08961  0.10940  1.0000 -0.0804418014
C   C35       1.0  0.92030  0.96212  0.87580  1.0000 -0.1972257981
C   C36       1.0  0.07970  0.03788  0.12420  1.0000 -0.1972257981
C   C37       1.0  0.94570  0.81254  0.86330  1.0000 0.4637918532
C   C38       1.0  0.05430  0.18746  0.13670  1.0000 0.4637918532
C   C39       1.0  0.86020  0.71870  0.84550  1.0000 0.2581622884
C   C40       1.0  0.13980  0.28130  0.15450  1.0000 0.2581622884
C   C41       1.0  0.73830  0.68660  0.80560  1.0000 -0.2553143442
C   C42       1.0  0.26170  0.31340  0.19440  1.0000 -0.2513132572
C   C43       1.0  0.75210  0.63244  0.81170  1.0000 0.0826133428
C   C44       1.0  0.24790  0.36756  0.18830  1.0000 0.0826133428
C   C45       1.0  0.99450  0.63820  0.88970  1.0000 0.0826133428
C   C46       1.0  0.00550  0.36180  0.11030  1.0000 0.0826133428
C   C47       1.0  0.98980  0.69310  0.88890  1.0000 -0.2331346326
C   C48       1.0  0.01020  0.30690  0.11110  1.0000 -0.2331346326
C   C49       1.0  0.80080  0.50143  0.02290  1.0000 0.5543228746
C   C50       1.0  0.19920  0.49857  0.97710  1.0000 0.5543228746
C   C51       1.0  0.64500  0.50036  0.01100  1.0000 -0.0367458357
C   C52       1.0  0.35500  0.49964  0.98900  1.0000 -0.0367458357
C   C53       1.0  0.60750  0.47376  0.07440  1.0000 -0.1095993808
C   C54       1.0  0.39250  0.52624  0.92560  1.0000 -0.1095993808
C   C55       1.0  0.46470  0.47345  0.06430  1.0000 -0.1095993808
C   C56       1.0  0.53530  0.52655  0.93570  1.0000 -0.1095993808
C   C57       1.0  0.54470  0.50489  0.42880  1.0000 -0.1095993808
C   C58       1.0  0.45530  0.49511  0.57120  1.0000 -0.1095993808
C   C59       1.0  0.64520  0.51102  0.52070  1.0000 -0.1095993808
C   C60       1.0  0.35480  0.48898  0.47930  1.0000 -0.1095993808
C   C61       1.0  0.60030  0.50628  0.59230  1.0000 -0.014164917
C   C62       1.0  0.39970  0.49372  0.40770  1.0000 -0.014164917
C   C63       1.0  0.70750  0.51357  0.69200  1.0000 0.5220700264
C   C64       1.0  0.29250  0.48643  0.30800  1.0000 0.5220700264
C   C65       1.0  0.23820  0.91106  0.63790  1.0000 0.0879165105
C   C66       1.0  0.76180  0.08894  0.36210  1.0000 0.0879165105
C   C67       1.0  0.25530  0.85673  0.64060  1.0000 -0.2654668927
C   C68       1.0  0.74470  0.14327  0.35940  1.0000 -0.2654668927
C   C69       1.0  0.14850  0.82432  0.64730  1.0000 0.2727910861
C   C70       1.0  0.85150  0.17568  0.35270  1.0000 0.2727910861
C   C71       1.0  0.03070  0.84945  0.65470  1.0000 -0.2331346326
C   C72       1.0  0.96930  0.15055  0.34530  1.0000 -0.2331346326
C   C73       1.0  0.02430  0.90428  0.65150  1.0000 0.1013438146
C   C74       1.0  0.97570  0.09572  0.34850  1.0000 0.1013438146
C   C75       1.0  0.07130  0.73026  0.64470  1.0000 0.4710414916
C   C76       1.0  0.92870  0.26974  0.35530  1.0000 0.4710414916
C   C77       1.0  0.12600  0.67398  0.65470  1.0000 -0.0507639214
C   C78       1.0  0.87400  0.32602  0.34530  1.0000 -0.0507639214
C   C79       1.0  0.25060  0.65923  0.64450  1.0000 -0.1277176646
C   C80       1.0  0.74940  0.34077  0.35550  1.0000 -0.1277176646
C   C81       1.0  0.29900  0.60681  0.65820  1.0000 -0.1972257981
C   C82       1.0  0.70100  0.39319  0.34180  1.0000 -0.1972257981
C   C83       1.0  0.22070  0.56941  0.68210  1.0000 0.2452763677
C   C84       1.0  0.77930  0.43059  0.31790  1.0000 0.2452763677
C   C85       1.0  0.09650  0.58288  0.69190  1.0000 -0.1972257981
C   C86       1.0  0.90350  0.41712  0.30810  1.0000 -0.1972257981
C   C87       1.0  0.04930  0.63524  0.67710  1.0000 -0.0804418014
C   C88       1.0  0.95070  0.36476  0.32290  1.0000 -0.0804418014
C   C89       1.0  0.21770  0.47191  0.68970  1.0000 0.2452763677
C   C90       1.0  0.78230  0.52809  0.31030  1.0000 0.2452763677
C   C91       1.0  0.30580  0.43073  0.74030  1.0000 -0.1885089815
C   C92       1.0  0.69420  0.56927  0.25970  1.0000 -0.1885089815
C   C93       1.0  0.25520  0.37931  0.72500  1.0000 -0.1277176646
C   C94       1.0  0.74480  0.62069  0.27500  1.0000 -0.1277176646
C   C95       1.0  0.11560  0.36810  0.65830  1.0000 -0.0507639214
C   C96       1.0  0.88440  0.63190  0.34170  1.0000 -0.0507639214
C   C97       1.0  0.02670  0.41039  0.60940  1.0000 -0.0804418014
C   C98       1.0  0.97330  0.58961  0.39060  1.0000 -0.0804418014
C   C99       1.0  0.07970  0.46212  0.62420  1.0000 -0.1972257981
C   C100      1.0  0.92030  0.53788  0.37580  1.0000 -0.1972257981
C   C101      1.0  0.05430  0.31254  0.63670  1.0000 0.4637918532
C   C102      1.0  0.94570  0.68746  0.36330  1.0000 0.4637918532
C   C103      1.0  0.13980  0.21870  0.65450  1.0000 0.2581622884
C   C104      1.0  0.86020  0.78130  0.34550  1.0000 0.2581622884
C   C105      1.0  0.26170  0.18660  0.69440  1.0000 -0.2553143442
C   C106      1.0  0.73830  0.81340  0.30560  1.0000 -0.2553143442
C   C107      1.0  0.24790  0.13244  0.68830  1.0000 0.0826133428
C   C108      1.0  0.75210  0.86756  0.31170  1.0000 0.0826133428
C   C109      1.0  0.00550  0.13820  0.61030  1.0000 0.0826133428
C   C110      1.0  0.99450  0.86180  0.38970  1.0000 0.0826133428
C   C111      1.0  0.01020  0.19310  0.61110  1.0000 -0.2331346326
C   C112      1.0  0.98980  0.80690  0.38890  1.0000 -0.2331346326
C   C113      1.0  0.19920  0.00143  0.47710  1.0000 0.5543228746
C   C114      1.0  0.80080  0.99857  0.52290  1.0000 0.5543228746
C   C115      1.0  0.35500  0.00036  0.48900  1.0000 -0.0367458357
C   C116      1.0  0.64500  0.99964  0.51100  1.0000 -0.0367458357
C   C117      1.0  0.39250  0.97376  0.42560  1.0000 -0.1095993808
C   C118      1.0  0.60750  0.02624  0.57440  1.0000 -0.1095993808
C   C119      1.0  0.53530  0.97345  0.43570  1.0000 -0.1095993808
C   C120      1.0  0.46470  0.02655  0.56430  1.0000 -0.1095993808
C   C121      1.0  0.45530  0.00489  0.07120  1.0000 -0.1095993808
C   C122      1.0  0.54470  0.99511  0.92880  1.0000 -0.1095993808
C   C123      1.0  0.35480  0.01102  0.97930  1.0000 -0.1095993808
C   C124      1.0  0.64520  0.98898  0.02070  1.0000 -0.1095993808
C   C125      1.0  0.39970  0.00628  0.90770  1.0000 -0.014164917
C   C126      1.0  0.60030  0.99372  0.09230  1.0000 -0.014164917
C   C127      1.0  0.29250  0.01357  0.80800  1.0000 0.5220700264
C   C128      1.0  0.70750  0.98643  0.19200  1.0000 0.5220700264
N   N1        1.0  0.87600  0.43587  0.85760  1.0000 -0.2513132572
N   N2        1.0  0.12400  0.56413  0.14240  1.0000 -0.2513132572
N   N3        1.0  0.83110  0.26920  0.85130  1.0000 -0.3660224617
N   N4        1.0  0.16890  0.73080  0.14870  1.0000 -0.3660224617
N   N5        1.0  0.83950  0.77389  0.84000  1.0000 -0.3611625969
N   N6        1.0  0.16050  0.22611  0.16000  1.0000 -0.3611625969
N   N7        1.0  0.87840  0.60694  0.85190  1.0000 -0.2221255056
N   N8        1.0  0.12160  0.39306  0.14810  1.0000 -0.2221255056
N   N9        1.0  0.12400  0.93587  0.64240  1.0000 -0.2513132572
N   N10       1.0  0.87600  0.06413  0.35760  1.0000 -0.2513132572
N   N11       1.0  0.16890  0.76920  0.64870  1.0000 -0.3660224617
N   N12       1.0  0.83110  0.23080  0.35130  1.0000 -0.3660224617
N   N13       1.0  0.16050  0.27389  0.66000  1.0000 -0.3611625969
N   N14       1.0  0.83950  0.72611  0.34000  1.0000 -0.3611625969
N   N15       1.0  0.12160  0.10694  0.64810  1.0000 -0.2221255056
N   N16       1.0  0.87840  0.89306  0.35190  1.0000 -0.2221255056
O   O1        1.0  0.05020  0.24033  0.86220  1.0000 -0.4443646535
O   O2        1.0  0.94980  0.75967  0.13780  1.0000 -0.4443646535
O   O3        1.0  0.71080  0.02056  0.79400  1.0000 -0.2221255056
O   O4        1.0  0.28920  0.97944  0.20600  1.0000 -0.2221255056
O   O5        1.0  0.07440  0.80331  0.89830  1.0000 -0.4334829315
O   O6        1.0  0.92560  0.19669  0.10170  1.0000 -0.4334829315
O   O7        1.0  0.89347  0.47624  0.09217  1.0000 -0.5482653618
O   O8        1.0  0.10653  0.52376  0.90783  1.0000 -0.5482653618
O   O9        1.0  0.82890  0.52744  0.96540  1.0000 -0.5482653618
O   O10       1.0  0.17110  0.47256  0.03460  1.0000 -0.5482653618
O   O11       1.0  0.84219  0.51728  0.71199  1.0000 -0.538571322
O   O12       1.0  0.15781  0.48272  0.28801  1.0000 -0.53477844
O   O13       1.0  0.66075  0.51619  0.75365  1.0000 -0.538571322
O   O14       1.0  0.33925  0.48381  0.24635  1.0000 -0.538571322
O   O15       1.0  0.94980  0.74033  0.63780  1.0000 -0.4443646535
O   O16       1.0  0.05020  0.25967  0.36220  1.0000 -0.4443646535
O   O17       1.0  0.28920  0.52056  0.70600  1.0000 -0.2221255056
O   O18       1.0  0.71080  0.47944  0.29400  1.0000 -0.2221255056
O   O19       1.0  0.92560  0.30331  0.60170  1.0000 -0.4334829315
O   O20       1.0  0.07440  0.69669  0.39830  1.0000 -0.4334829315
O   O21       1.0  0.10653  0.97624  0.40783  1.0000 -0.5482653618
O   O22       1.0  0.89347  0.02376  0.59217  1.0000 -0.5482653618
O   O23       1.0  0.17110  0.02744  0.53460  1.0000 -0.5482653618
O   O24       1.0  0.82890  0.97256  0.46540  1.0000 -0.5482653618
O   O25       1.0  0.15781  0.01728  0.78801  1.0000 -0.538571322
O   O26       1.0  0.84219  0.98272  0.21199  1.0000 -0.538571322
O   O27       1.0  0.33925  0.01619  0.74635  1.0000 -0.538571322
O   O28       1.0  0.66075  0.98381  0.25365  1.0000 -0.538571322
