# DDEC6 charges by PACMAN v1.1 (https://github.com/mtap-research/PACMAN-charge/)
data_0000[La][nan]3[ASR]2
_chemical_formula_sum              "La4 C12 O24"
_cell_length_a       8.7198
_cell_length_b       10.226
_cell_length_c       10.415
_cell_angle_alpha    90
_cell_angle_beta     109.45
_cell_angle_gamma    90

_symmetry_space_group_name_H-M    "P 1"
_symmetry_Int_Tables_number       1

loop_
  _symmetry_equiv_pos_as_xyz
  'x, y, z'

loop_
  _atom_site_type_symbol
  _atom_site_label
  _atom_site_symmetry_multiplicity
  _atom_site_fract_x
  _atom_site_fract_y
  _atom_site_fract_z
  _atom_site_occupancy
  _atom_site_charge
La  La1       1.0  0.75000  0.06804  0.50000  1.0000 1.7105164133
La  La2       1.0  0.25000  0.93196  0.50000  1.0000 1.7105164133
La  La3       1.0  0.25000  0.73621  0.00000  1.0000 1.6904378138
La  La4       1.0  0.75000  0.26379  0.00000  1.0000 1.6802641355
C   C1        1.0  0.58980  0.87010  0.22900  1.0000 0.5102215719
C   C2        1.0  0.91020  0.87010  0.77100  1.0000 0.5102215719
C   C3        1.0  0.41020  0.12990  0.77100  1.0000 0.5102215719
C   C4        1.0  0.08980  0.12990  0.22900  1.0000 0.5102215719
C   C5        1.0  0.46430  0.85700  0.30470  1.0000 0.5102215719
C   C6        1.0  0.03570  0.85700  0.69530  1.0000 0.5102215719
C   C7        1.0  0.53570  0.14300  0.69530  1.0000 0.5102215719
C   C8        1.0  0.96430  0.14300  0.30470  1.0000 0.5102215719
C   C9        1.0  0.50770  0.52710  0.93210  1.0000 0.5151699387
C   C10       1.0  0.99230  0.52710  0.06790  1.0000 0.5102215719
C   C11       1.0  0.49230  0.47290  0.06790  1.0000 0.5102215719
C   C12       1.0  0.00770  0.47290  0.93210  1.0000 0.5102215719
O   O1        1.0  0.72560  0.91830  0.29790  1.0000 -0.5457588829
O   O2        1.0  0.77440  0.91830  0.70210  1.0000 -0.5457588829
O   O3        1.0  0.27440  0.08170  0.70210  1.0000 -0.5396630364
O   O4        1.0  0.22560  0.08170  0.29790  1.0000 -0.5396630364
O   O5        1.0  0.50670  0.90220  0.42450  1.0000 -0.5975414313
O   O6        1.0  0.99330  0.90220  0.57550  1.0000 -0.5975414313
O   O7        1.0  0.49330  0.09780  0.57550  1.0000 -0.5947476424
O   O8        1.0  0.00670  0.09780  0.42450  1.0000 -0.5947476424
O   O9        1.0  0.54550  0.83400  0.10780  1.0000 -0.5185256549
O   O10       1.0  0.95450  0.83400  0.89220  1.0000 -0.5185256549
O   O11       1.0  0.45450  0.16600  0.89220  1.0000 -0.5185256549
O   O12       1.0  0.04550  0.16600  0.10780  1.0000 -0.5185256549
O   O13       1.0  0.33020  0.80600  0.24550  1.0000 -0.5396630364
O   O14       1.0  0.16980  0.80600  0.75450  1.0000 -0.5396630364
O   O15       1.0  0.66980  0.19400  0.75450  1.0000 -0.5396630364
O   O16       1.0  0.83020  0.19400  0.24550  1.0000 -0.5396630364
O   O17       1.0  0.43540  0.63270  0.88830  1.0000 -0.5032593332
O   O18       1.0  0.06460  0.63270  0.11170  1.0000 -0.5032593332
O   O19       1.0  0.56460  0.36730  0.11170  1.0000 -0.5032593332
O   O20       1.0  0.93540  0.36730  0.88830  1.0000 -0.5032593332
O   O21       1.0  0.40790  0.53860  0.12050  1.0000 -0.5295319803
O   O22       1.0  0.09210  0.53860  0.87950  1.0000 -0.5295319803
O   O23       1.0  0.59210  0.46140  0.87950  1.0000 -0.5295319803
O   O24       1.0  0.90790  0.46140  0.12050  1.0000 -0.5295319803
