# DDEC6 charges by PACMAN v1.1 (https://github.com/mtap-research/PACMAN-charge/)
data_0000[Co][nan]3[ASR]18
_chemical_formula_sum              "Co10 H8 C40 O36"
_cell_length_a       7.412
_cell_length_b       16.4666
_cell_length_c       15.6594
_cell_angle_alpha    90
_cell_angle_beta     112.764
_cell_angle_gamma    90

_symmetry_space_group_name_H-M    "P 1"
_symmetry_Int_Tables_number       1

loop_
  _symmetry_equiv_pos_as_xyz
  'x, y, z'

loop_
  _atom_site_type_symbol
  _atom_site_label
  _atom_site_symmetry_multiplicity
  _atom_site_fract_x
  _atom_site_fract_y
  _atom_site_fract_z
  _atom_site_occupancy
  _atom_site_charge
Co  Co1       1.0  0.50000  0.00000  0.50000  1.0000 1.0630371874
Co  Co2       1.0  0.50000  0.50000  0.00000  1.0000 1.0630371874
Co  Co3       1.0  0.03243  0.01325  0.32329  1.0000 1.0196574038
Co  Co4       1.0  0.96757  0.51325  0.17671  1.0000 1.0196574038
Co  Co5       1.0  0.96757  0.98675  0.67671  1.0000 1.0196574038
Co  Co6       1.0  0.03243  0.48675  0.82329  1.0000 1.0196574038
Co  Co7       1.0  0.21564  0.12792  0.52663  1.0000 1.0450946396
Co  Co8       1.0  0.78436  0.62792  0.97337  1.0000 1.0450946396
Co  Co9       1.0  0.78436  0.87208  0.47337  1.0000 1.0450946396
Co  Co10      1.0  0.21564  0.37208  0.02663  1.0000 1.0450946396
H   H1        1.0  0.26310  0.29560  0.33080  1.0000 0.1337081851
H   H2        1.0  0.73690  0.79560  0.16920  1.0000 0.1337081851
H   H3        1.0  0.73690  0.70440  0.66920  1.0000 0.1337081851
H   H4        1.0  0.26310  0.20440  0.83080  1.0000 0.1337081851
H   H5        1.0  0.82590  0.27460  0.27420  1.0000 0.1337081851
H   H6        1.0  0.17410  0.77460  0.22580  1.0000 0.1337081851
H   H7        1.0  0.17410  0.72540  0.72580  1.0000 0.1337081851
H   H8        1.0  0.82590  0.22540  0.77420  1.0000 0.1337081851
C   C1        1.0  0.81790  0.15208  0.37530  1.0000 0.6147505348
C   C2        1.0  0.18210  0.65208  0.12470  1.0000 0.6147505348
C   C3        1.0  0.18210  0.84792  0.62470  1.0000 0.6147505348
C   C4        1.0  0.81790  0.34792  0.87530  1.0000 0.6147505348
C   C5        1.0  0.57943  0.34009  0.24213  1.0000 -0.039440928
C   C6        1.0  0.42057  0.84009  0.25787  1.0000 -0.039440928
C   C7        1.0  0.42057  0.65991  0.75787  1.0000 -0.039440928
C   C8        1.0  0.57943  0.15991  0.74213  1.0000 -0.039440928
C   C9        1.0  0.49713  0.22485  0.35303  1.0000 -0.039440928
C   C10       1.0  0.50287  0.72485  0.14697  1.0000 -0.039440928
C   C11       1.0  0.50287  0.77515  0.64697  1.0000 -0.039440928
C   C12       1.0  0.49713  0.27515  0.85303  1.0000 -0.039440928
C   C13       1.0  0.63405  0.39785  0.18155  1.0000 0.6147505348
C   C14       1.0  0.36595  0.89785  0.31845  1.0000 0.6147505348
C   C15       1.0  0.36595  0.60215  0.81845  1.0000 0.6147505348
C   C16       1.0  0.63405  0.10215  0.68155  1.0000 0.6147505348
C   C17       1.0  0.66844  0.21897  0.33704  1.0000 -0.0024772448
C   C18       1.0  0.33156  0.71897  0.16296  1.0000 -0.0024772448
C   C19       1.0  0.33156  0.78103  0.66296  1.0000 -0.0024772448
C   C20       1.0  0.66844  0.28103  0.83704  1.0000 -0.0024772448
C   C21       1.0  0.37312  0.28984  0.31652  1.0000 -0.103870844
C   C22       1.0  0.62688  0.78984  0.18348  1.0000 -0.103870844
C   C23       1.0  0.62688  0.71016  0.68348  1.0000 -0.103870844
C   C24       1.0  0.37312  0.21016  0.81652  1.0000 -0.103870844
C   C25       1.0  0.43881  0.16223  0.40721  1.0000 0.5898364713
C   C26       1.0  0.56119  0.66223  0.09279  1.0000 0.5898364713
C   C27       1.0  0.56119  0.83777  0.59279  1.0000 0.5898364713
C   C28       1.0  0.43881  0.33777  0.90721  1.0000 0.5898364713
C   C29       1.0  0.70905  0.27748  0.28305  1.0000 -0.1268516233
C   C30       1.0  0.29095  0.77748  0.21695  1.0000 -0.1268516233
C   C31       1.0  0.29095  0.72252  0.71695  1.0000 -0.1268516233
C   C32       1.0  0.70905  0.22252  0.78305  1.0000 -0.1268516233
C   C33       1.0  0.40722  0.34654  0.25962  1.0000 -0.0507282814
C   C34       1.0  0.59278  0.84654  0.24038  1.0000 -0.0507282814
C   C35       1.0  0.59278  0.65346  0.74038  1.0000 -0.0507282814
C   C36       1.0  0.40722  0.15346  0.75962  1.0000 -0.0507282814
C   C37       1.0  0.25151  0.41013  0.22141  1.0000 0.5898364713
C   C38       1.0  0.74849  0.91013  0.27859  1.0000 0.5898364713
C   C39       1.0  0.74849  0.58987  0.77859  1.0000 0.5898364713
C   C40       1.0  0.25151  0.08987  0.72141  1.0000 0.5898364713
O   O1        1.0  0.20110  0.01656  0.46000  1.0000 -0.7770727569
O   O2        1.0  0.79890  0.51656  0.04000  1.0000 -0.7770727569
O   O3        1.0  0.79890  0.98344  0.54000  1.0000 -0.7770727569
O   O4        1.0  0.20110  0.48344  0.96000  1.0000 -0.7770727569
O   O5        1.0  0.83253  0.10296  0.31853  1.0000 -0.519315883
O   O6        1.0  0.16747  0.60296  0.18147  1.0000 -0.519315883
O   O7        1.0  0.16747  0.89704  0.68147  1.0000 -0.519315883
O   O8        1.0  0.83253  0.39704  0.81853  1.0000 -0.519315883
O   O9        1.0  0.92347  0.15546  0.46047  1.0000 -0.5068633253
O   O10       1.0  0.07653  0.65546  0.03953  1.0000 -0.5068633253
O   O11       1.0  0.07653  0.84454  0.53953  1.0000 -0.5068633253
O   O12       1.0  0.92347  0.34454  0.96047  1.0000 -0.5068633253
O   O13       1.0  0.15491  0.41761  0.13561  1.0000 -0.519315883
O   O14       1.0  0.84509  0.91761  0.36439  1.0000 -0.519315883
O   O15       1.0  0.84509  0.58239  0.86439  1.0000 -0.519315883
O   O16       1.0  0.15491  0.08239  0.63561  1.0000 -0.519315883
O   O17       1.0  0.51965  0.09416  0.41755  1.0000 -0.4805310959
O   O18       1.0  0.48035  0.59416  0.08245  1.0000 -0.4805310959
O   O19       1.0  0.48035  0.90584  0.58245  1.0000 -0.4805310959
O   O20       1.0  0.51965  0.40584  0.91755  1.0000 -0.4805310959
O   O21       1.0  0.20890  0.45194  0.27750  1.0000 -0.4850619728
O   O22       1.0  0.79110  0.95194  0.22250  1.0000 -0.4850619728
O   O23       1.0  0.79110  0.54806  0.72250  1.0000 -0.4850619728
O   O24       1.0  0.20890  0.04806  0.77750  1.0000 -0.4850619728
O   O25       1.0  0.50371  0.41528  0.10311  1.0000 -0.5651660258
O   O26       1.0  0.49629  0.91528  0.39689  1.0000 -0.5651660258
O   O27       1.0  0.49629  0.58472  0.89689  1.0000 -0.5651660258
O   O28       1.0  0.50371  0.08472  0.60311  1.0000 -0.5651660258
O   O29       1.0  0.30837  0.18302  0.43527  1.0000 -0.5582933123
O   O30       1.0  0.69163  0.68302  0.06473  1.0000 -0.5582933123
O   O31       1.0  0.69163  0.81698  0.56473  1.0000 -0.5582933123
O   O32       1.0  0.30837  0.31698  0.93527  1.0000 -0.5582933123
O   O33       1.0  0.80366  0.42304  0.21136  1.0000 -0.4984309147
O   O34       1.0  0.19634  0.92304  0.28864  1.0000 -0.4984309147
O   O35       1.0  0.19634  0.57696  0.78864  1.0000 -0.4984309147
O   O36       1.0  0.80366  0.07696  0.71136  1.0000 -0.4984309147
