# DDEC6 charges by PACMAN v1.1 (https://github.com/mtap-research/PACMAN-charge/)
data_0000[Co][nan]3[ASR]13
_chemical_formula_sum              "Co8 H72 C124 N24 O52"
_cell_length_a       13.8088
_cell_length_b       18.5351
_cell_length_c       20.5663
_cell_angle_alpha    90
_cell_angle_beta     108.935
_cell_angle_gamma    90

_symmetry_space_group_name_H-M    "P 1"
_symmetry_Int_Tables_number       1

loop_
  _symmetry_equiv_pos_as_xyz
  'x, y, z'

loop_
  _atom_site_type_symbol
  _atom_site_label
  _atom_site_symmetry_multiplicity
  _atom_site_fract_x
  _atom_site_fract_y
  _atom_site_fract_z
  _atom_site_occupancy
  _atom_site_charge
Co  Co1       1.0  0.95262  0.69856  0.79139  1.0000 0.8904136726
Co  Co2       1.0  0.04738  0.19856  0.70861  1.0000 0.8904136726
Co  Co3       1.0  0.04738  0.30144  0.20861  1.0000 0.8904136726
Co  Co4       1.0  0.95262  0.80144  0.29139  1.0000 0.8904136726
Co  Co5       1.0  0.69801  0.65390  0.67505  1.0000 0.978610144
Co  Co6       1.0  0.30199  0.15390  0.82495  1.0000 0.978610144
Co  Co7       1.0  0.30199  0.34610  0.32495  1.0000 0.978610144
Co  Co8       1.0  0.69801  0.84610  0.17505  1.0000 0.978610144
H   H1        1.0  0.93260  0.91390  0.73620  1.0000 0.1286997748
H   H2        1.0  0.06740  0.41390  0.76380  1.0000 0.1286997748
H   H3        1.0  0.06740  0.08610  0.26380  1.0000 0.1286997748
H   H4        1.0  0.93260  0.58610  0.23620  1.0000 0.1286997748
H   H5        1.0  0.16560  0.63880  0.78280  1.0000 0.0993820853
H   H6        1.0  0.83440  0.13880  0.71720  1.0000 0.0993820853
H   H7        1.0  0.83440  0.36120  0.21720  1.0000 0.0993820853
H   H8        1.0  0.16560  0.86120  0.28280  1.0000 0.0993820853
H   H9        1.0  0.17650  0.80070  0.38560  1.0000 0.0993820853
H   H10       1.0  0.82350  0.30070  0.11440  1.0000 0.0993820853
H   H11       1.0  0.82350  0.19930  0.61440  1.0000 0.0993820853
H   H12       1.0  0.17650  0.69930  0.88560  1.0000 0.0993820853
H   H13       1.0  0.27320  0.77210  0.49680  1.0000 0.1509696897
H   H14       1.0  0.72680  0.27210  0.00320  1.0000 0.1509696897
H   H15       1.0  0.72680  0.22790  0.50320  1.0000 0.1509696897
H   H16       1.0  0.27320  0.72790  0.99680  1.0000 0.1509696897
H   H17       1.0  0.25710  0.63360  0.70710  1.0000 0.1408918874
H   H18       1.0  0.74290  0.13360  0.79290  1.0000 0.1408918874
H   H19       1.0  0.74290  0.36640  0.29290  1.0000 0.1408918874
H   H20       1.0  0.25710  0.86640  0.20710  1.0000 0.1408918874
H   H21       1.0  0.94360  0.68930  0.39960  1.0000 0.1170288073
H   H22       1.0  0.05640  0.18930  0.10040  1.0000 0.1170288073
H   H23       1.0  0.05640  0.31070  0.60040  1.0000 0.1170288073
H   H24       1.0  0.94360  0.81070  0.89960  1.0000 0.1170288073
H   H25       1.0  0.36570  0.75780  0.68920  1.0000 0.1509696897
H   H26       1.0  0.63430  0.25780  0.81080  1.0000 0.1509696897
H   H27       1.0  0.63430  0.24220  0.31080  1.0000 0.1509696897
H   H28       1.0  0.36570  0.74220  0.18920  1.0000 0.1509696897
H   H29       1.0  0.03260  0.65660  0.51140  1.0000 0.1509696897
H   H30       1.0  0.96740  0.15660  0.98860  1.0000 0.1509696897
H   H31       1.0  0.96740  0.34340  0.48860  1.0000 0.1509696897
H   H32       1.0  0.03260  0.84340  0.01140  1.0000 0.1509696897
H   H33       1.0  0.06290  0.78100  0.59030  1.0000 0.1408918874
H   H34       1.0  0.93710  0.28100  0.90970  1.0000 0.1408918874
H   H35       1.0  0.93710  0.21900  0.40970  1.0000 0.1408918874
H   H36       1.0  0.06290  0.71900  0.09030  1.0000 0.1408918874
H   H37       1.0  0.32370  0.61620  0.53370  1.0000 0.1509696897
H   H38       1.0  0.67630  0.11620  0.96630  1.0000 0.1509696897
H   H39       1.0  0.67630  0.38380  0.46630  1.0000 0.1509696897
H   H40       1.0  0.32370  0.88380  0.03370  1.0000 0.1509696897
H   H41       1.0  0.98240  0.78520  0.67150  1.0000 0.1080486895
H   H42       1.0  0.01760  0.28520  0.82850  1.0000 0.1080486895
H   H43       1.0  0.01760  0.21480  0.32850  1.0000 0.1080486895
H   H44       1.0  0.98240  0.71480  0.17150  1.0000 0.1080486895
H   H45       1.0  0.81460  0.05610  0.58230  1.0000 0.1408918874
H   H46       1.0  0.18540  0.55610  0.91770  1.0000 0.1408918874
H   H47       1.0  0.18540  0.94390  0.41770  1.0000 0.1408918874
H   H48       1.0  0.81460  0.44390  0.08230  1.0000 0.1408918874
H   H49       1.0  0.66800  0.86680  0.58570  1.0000 0.1408918874
H   H50       1.0  0.33200  0.36680  0.91430  1.0000 0.1408918874
H   H51       1.0  0.33200  0.13320  0.41430  1.0000 0.1408918874
H   H52       1.0  0.66800  0.63320  0.08570  1.0000 0.1408918874
H   H53       1.0  0.54050  0.74050  0.71630  1.0000 0.1170288073
H   H54       1.0  0.45950  0.24050  0.78370  1.0000 0.1170288073
H   H55       1.0  0.45950  0.25950  0.28370  1.0000 0.1170288073
H   H56       1.0  0.54050  0.75950  0.21630  1.0000 0.1170288073
H   H57       1.0  0.49890  0.60190  0.56630  1.0000 0.1170288073
H   H58       1.0  0.50110  0.10190  0.93370  1.0000 0.1170288073
H   H59       1.0  0.50110  0.39810  0.43370  1.0000 0.1170288073
H   H60       1.0  0.49890  0.89810  0.06630  1.0000 0.1170288073
H   H61       1.0  0.82050  0.74960  0.95420  1.0000 0.1170288073
H   H62       1.0  0.17950  0.24960  0.54580  1.0000 0.1170288073
H   H63       1.0  0.17950  0.25040  0.04580  1.0000 0.1170288073
H   H64       1.0  0.82050  0.75040  0.45420  1.0000 0.1170288073
H   H65       1.0  0.56590  0.65830  0.82570  1.0000 0.1286997748
H   H66       1.0  0.43410  0.15830  0.67430  1.0000 0.1286997748
H   H67       1.0  0.43410  0.34170  0.17430  1.0000 0.1286997748
H   H68       1.0  0.56590  0.84170  0.32570  1.0000 0.1286997748
H   H69       1.0  0.55430  0.76380  0.99530  1.0000 0.1408918874
H   H70       1.0  0.44570  0.26380  0.50470  1.0000 0.1408918874
H   H71       1.0  0.44570  0.23620  0.00470  1.0000 0.1408918874
H   H72       1.0  0.55430  0.73620  0.49530  1.0000 0.1408918874
C   C1        1.0  0.79850  0.80590  0.69990  1.0000 0.5747157791
C   C2        1.0  0.20150  0.30590  0.80010  1.0000 0.5747157791
C   C3        1.0  0.20150  0.19410  0.30010  1.0000 0.5747157791
C   C4        1.0  0.79850  0.69410  0.19990  1.0000 0.5747157791
C   C5        1.0  0.32510  0.68850  0.60800  1.0000 0.2085290262
C   C6        1.0  0.67490  0.18850  0.89200  1.0000 0.2085290262
C   C7        1.0  0.67490  0.31150  0.39200  1.0000 0.2085290262
C   C8        1.0  0.32510  0.81150  0.10800  1.0000 0.2085290262
C   C9        1.0  0.16970  0.70490  0.63790  1.0000 0.2215673337
C   C10       1.0  0.83030  0.20490  0.86210  1.0000 0.2215673337
C   C11       1.0  0.83030  0.29510  0.36210  1.0000 0.2215673337
C   C12       1.0  0.16970  0.79510  0.13790  1.0000 0.2215673337
C   C13       1.0  0.88130  0.92680  0.69520  1.0000 -0.0990654594
C   C14       1.0  0.11870  0.42680  0.80480  1.0000 -0.0990654594
C   C15       1.0  0.11870  0.07320  0.30480  1.0000 -0.0990654594
C   C16       1.0  0.88130  0.57320  0.19520  1.0000 -0.0990654594
C   C17       1.0  0.14440  0.66790  0.74320  1.0000 0.0993820853
C   C18       1.0  0.85560  0.16790  0.75680  1.0000 0.0993820853
C   C19       1.0  0.85560  0.33210  0.25680  1.0000 0.0993820853
C   C20       1.0  0.14440  0.83210  0.24320  1.0000 0.0993820853
C   C21       1.0  0.14690  0.77190  0.41170  1.0000 0.1080486895
C   C22       1.0  0.85310  0.27190  0.08830  1.0000 0.1080486895
C   C23       1.0  0.85310  0.22810  0.58830  1.0000 0.1080486895
C   C24       1.0  0.14690  0.72810  0.91170  1.0000 0.1080486895
C   C25       1.0  0.80080  0.87920  0.66640  1.0000 -0.0020236184
C   C26       1.0  0.19920  0.37920  0.83360  1.0000 -0.0020236184
C   C27       1.0  0.19920  0.12080  0.33360  1.0000 -0.0020236184
C   C28       1.0  0.80080  0.62080  0.16640  1.0000 -0.0020236184
C   C29       1.0  0.20530  0.75560  0.47850  1.0000 -0.2241025931
C   C30       1.0  0.79470  0.25560  0.02150  1.0000 -0.2241025931
C   C31       1.0  0.79470  0.24440  0.52150  1.0000 -0.2241025931
C   C32       1.0  0.20530  0.74440  0.97850  1.0000 -0.2241025931
C   C33       1.0  0.88780  0.99260  0.66490  1.0000 -0.0070121768
C   C34       1.0  0.11220  0.49260  0.83510  1.0000 -0.0070121768
C   C35       1.0  0.11220  0.00740  0.33510  1.0000 -0.0070121768
C   C36       1.0  0.88780  0.50740  0.16490  1.0000 -0.0070121768
C   C37       1.0  0.19960  0.66400  0.69760  1.0000 -0.2281005734
C   C38       1.0  0.80040  0.16400  0.80240  1.0000 -0.2281005734
C   C39       1.0  0.80040  0.33600  0.30240  1.0000 -0.2281005734
C   C40       1.0  0.19960  0.83600  0.19760  1.0000 -0.2281005734
C   C41       1.0  0.01060  0.70670  0.41990  1.0000 0.1170288073
C   C42       1.0  0.98940  0.20670  0.08010  1.0000 0.1170288073
C   C43       1.0  0.98940  0.29330  0.58010  1.0000 0.1170288073
C   C44       1.0  0.01060  0.79330  0.91990  1.0000 0.1170288073
C   C45       1.0  0.97510  0.04390  0.69840  1.0000 0.5432888428
C   C46       1.0  0.02490  0.54390  0.80160  1.0000 0.5432888428
C   C47       1.0  0.02490  0.95610  0.30160  1.0000 0.5432888428
C   C48       1.0  0.97510  0.45610  0.19840  1.0000 0.5432888428
C   C49       1.0  0.39120  0.72580  0.66320  1.0000 -0.2281005734
C   C50       1.0  0.60880  0.22580  0.83680  1.0000 -0.2281005734
C   C51       1.0  0.60880  0.27420  0.33680  1.0000 -0.2281005734
C   C52       1.0  0.39120  0.77420  0.16320  1.0000 -0.2281005734
C   C53       1.0  0.06290  0.68730  0.48710  1.0000 -0.2241025931
C   C54       1.0  0.93710  0.18730  0.01290  1.0000 -0.2241025931
C   C55       1.0  0.93710  0.31270  0.51290  1.0000 -0.2241025931
C   C56       1.0  0.06290  0.81270  0.98710  1.0000 -0.2241025931
C   C57       1.0  0.16110  0.71390  0.51800  1.0000 0.2085290262
C   C58       1.0  0.83890  0.21390  0.98200  1.0000 0.2085290262
C   C59       1.0  0.83890  0.28610  0.48200  1.0000 0.2085290262
C   C60       1.0  0.16110  0.78610  0.01800  1.0000 0.2085290262
C   C61       1.0  0.08580  0.75110  0.62930  1.0000 -0.2241025931
C   C62       1.0  0.91420  0.25110  0.87070  1.0000 -0.2241025931
C   C63       1.0  0.91420  0.24890  0.37070  1.0000 -0.2241025931
C   C64       1.0  0.08580  0.74890  0.12930  1.0000 -0.2241025931
C   C65       1.0  0.36640  0.64200  0.57150  1.0000 -0.2281005734
C   C66       1.0  0.63360  0.14200  0.92850  1.0000 -0.2281005734
C   C67       1.0  0.63360  0.35800  0.42850  1.0000 -0.2281005734
C   C68       1.0  0.36640  0.85800  0.07150  1.0000 -0.2281005734
C   C69       1.0  0.73080  0.96410  0.57660  1.0000 0.0645197015
C   C70       1.0  0.26920  0.46410  0.92340  1.0000 0.0645197015
C   C71       1.0  0.26920  0.03590  0.42340  1.0000 0.0645197015
C   C72       1.0  0.73080  0.53590  0.07660  1.0000 0.0645197015
C   C73       1.0  0.03710  0.75270  0.67800  1.0000 0.1170288073
C   C74       1.0  0.96290  0.25270  0.82200  1.0000 0.1170288073
C   C75       1.0  0.96290  0.24730  0.32200  1.0000 0.1170288073
C   C76       1.0  0.03710  0.74730  0.17800  1.0000 0.1170288073
C   C77       1.0  0.81150  0.01200  0.60410  1.0000 -0.1508483039
C   C78       1.0  0.18850  0.51200  0.89590  1.0000 -0.1508483039
C   C79       1.0  0.18850  0.98800  0.39590  1.0000 -0.1508483039
C   C80       1.0  0.81150  0.48800  0.10410  1.0000 -0.1508483039
C   C81       1.0  0.72330  0.89800  0.60590  1.0000 -0.1401061518
C   C82       1.0  0.27670  0.39800  0.89410  1.0000 -0.1401061518
C   C83       1.0  0.27670  0.10200  0.39410  1.0000 -0.1401061518
C   C84       1.0  0.72330  0.60200  0.10590  1.0000 -0.1401061518
C   C85       1.0  0.75500  0.68100  0.83080  1.0000 0.5934294024
C   C86       1.0  0.24500  0.18100  0.66920  1.0000 0.5934294024
C   C87       1.0  0.24500  0.31900  0.16920  1.0000 0.5934294024
C   C88       1.0  0.75500  0.81900  0.33080  1.0000 0.5934294024
C   C89       1.0  0.49610  0.71470  0.67920  1.0000 0.1170288073
C   C90       1.0  0.50390  0.21470  0.82080  1.0000 0.1170288073
C   C91       1.0  0.50390  0.28530  0.32080  1.0000 0.1170288073
C   C92       1.0  0.49610  0.78530  0.17920  1.0000 0.1170288073
C   C93       1.0  0.47180  0.63390  0.59140  1.0000 0.0993820853
C   C94       1.0  0.52820  0.13390  0.90860  1.0000 0.0993820853
C   C95       1.0  0.52820  0.36610  0.40860  1.0000 0.0993820853
C   C96       1.0  0.47180  0.86610  0.09140  1.0000 0.0993820853
C   C97       1.0  0.70190  0.70070  0.88100  1.0000 -0.0187370312
C   C98       1.0  0.29810  0.20070  0.61900  1.0000 -0.0187370312
C   C99       1.0  0.29810  0.29930  0.11900  1.0000 -0.0187370312
C   C100      1.0  0.70190  0.79930  0.38100  1.0000 -0.0187370312
C   C101      1.0  0.75020  0.73940  0.94200  1.0000 -0.0990654594
C   C102      1.0  0.24980  0.23940  0.55800  1.0000 -0.0990654594
C   C103      1.0  0.24980  0.26060  0.05800  1.0000 -0.0990654594
C   C104      1.0  0.75020  0.76060  0.44200  1.0000 -0.0990654594
C   C105      1.0  0.59990  0.68390  0.86600  1.0000 -0.1508483039
C   C106      1.0  0.40010  0.18390  0.63400  1.0000 -0.1508483039
C   C107      1.0  0.40010  0.31610  0.13400  1.0000 -0.1508483039
C   C108      1.0  0.59990  0.81610  0.36600  1.0000 -0.1508483039
C   C109      1.0  0.54600  0.70480  0.91030  1.0000 0.0645197015
C   C110      1.0  0.45400  0.20480  0.58970  1.0000 0.0645197015
C   C111      1.0  0.45400  0.29520  0.08970  1.0000 0.0645197015
C   C112      1.0  0.54600  0.79520  0.41030  1.0000 0.0645197015
C   C113      1.0  0.69570  0.76260  0.98440  1.0000 -0.0020236184
C   C114      1.0  0.30430  0.26260  0.51560  1.0000 -0.0020236184
C   C115      1.0  0.30430  0.23740  0.01560  1.0000 -0.0020236184
C   C116      1.0  0.69570  0.73740  0.48440  1.0000 -0.0020236184
C   C117      1.0  0.59210  0.74660  0.96790  1.0000 -0.1401061518
C   C118      1.0  0.40790  0.24660  0.53210  1.0000 -0.1401061518
C   C119      1.0  0.40790  0.25340  0.03210  1.0000 -0.1401061518
C   C120      1.0  0.59210  0.75340  0.46790  1.0000 -0.1401061518
C   C121      1.0  0.74680  0.80810  0.04810  1.0000 0.5601340244
C   C122      1.0  0.25320  0.30810  0.45190  1.0000 0.5601340244
C   C123      1.0  0.25320  0.19190  0.95190  1.0000 0.5601340244
C   C124      1.0  0.74680  0.69190  0.54810  1.0000 0.5601340244
N   N1        1.0  0.06280  0.71060  0.73450  1.0000 -0.2564957282
N   N2        1.0  0.93720  0.21060  0.76550  1.0000 -0.2564957282
N   N3        1.0  0.93720  0.28940  0.26550  1.0000 -0.2564957282
N   N4        1.0  0.06280  0.78940  0.23450  1.0000 -0.2564957282
N   N5        1.0  0.21740  0.69890  0.58810  1.0000 -0.1648789039
N   N6        1.0  0.78260  0.19890  0.91190  1.0000 -0.1648789039
N   N7        1.0  0.78260  0.30110  0.41190  1.0000 -0.1648789039
N   N8        1.0  0.21740  0.80110  0.08810  1.0000 -0.1655266574
N   N9        1.0  0.65070  0.98460  0.51120  1.0000 0.5029766717
N   N10       1.0  0.34930  0.48460  0.98880  1.0000 0.5029766717
N   N11       1.0  0.34930  0.01540  0.48880  1.0000 0.5029766717
N   N12       1.0  0.65070  0.51540  0.01120  1.0000 0.5029766717
N   N13       1.0  0.05090  0.74910  0.38210  1.0000 -0.2436081534
N   N14       1.0  0.94910  0.24910  0.11790  1.0000 -0.2436081534
N   N15       1.0  0.94910  0.25090  0.61790  1.0000 -0.2436081534
N   N16       1.0  0.05090  0.75090  0.88210  1.0000 -0.2436081534
N   N17       1.0  0.53720  0.66930  0.64450  1.0000 -0.2761913902
N   N18       1.0  0.46280  0.16930  0.85550  1.0000 -0.2761913902
N   N19       1.0  0.46280  0.33070  0.35550  1.0000 -0.2761913902
N   N20       1.0  0.53720  0.83070  0.14450  1.0000 -0.2761913902
N   N21       1.0  0.43710  0.68500  0.89370  1.0000 0.5107261696
N   N22       1.0  0.56290  0.18500  0.60630  1.0000 0.5107261696
N   N23       1.0  0.56290  0.31500  0.10630  1.0000 0.5107261696
N   N24       1.0  0.43710  0.81500  0.39370  1.0000 0.5107261696
O   O1        1.0  0.87920  0.79150  0.74900  1.0000 -0.5405440769
O   O2        1.0  0.12080  0.29150  0.75100  1.0000 -0.5405440769
O   O3        1.0  0.12080  0.20850  0.25100  1.0000 -0.5405440769
O   O4        1.0  0.87920  0.70850  0.24900  1.0000 -0.5405440769
O   O5        1.0  0.72140  0.76660  0.67530  1.0000 -0.5405440769
O   O6        1.0  0.27860  0.26660  0.82470  1.0000 -0.5405440769
O   O7        1.0  0.27860  0.23340  0.32470  1.0000 -0.5405440769
O   O8        1.0  0.72140  0.73340  0.17530  1.0000 -0.5405440769
O   O9        1.0  0.03790  0.02460  0.75480  1.0000 -0.4736028081
O   O10       1.0  0.96210  0.52460  0.74520  1.0000 -0.4736028081
O   O11       1.0  0.96210  0.97540  0.24520  1.0000 -0.4736028081
O   O12       1.0  0.03790  0.47540  0.25480  1.0000 -0.4736028081
O   O13       1.0  0.57890  0.94280  0.48720  1.0000 -0.3289246103
O   O14       1.0  0.42110  0.44280  0.01280  1.0000 -0.3289246103
O   O15       1.0  0.42110  0.05720  0.51280  1.0000 -0.3289246103
O   O16       1.0  0.57890  0.55720  0.98720  1.0000 -0.3289246103
O   O17       1.0  0.65640  0.04220  0.48580  1.0000 -0.302229329
O   O18       1.0  0.34360  0.54220  0.01420  1.0000 -0.302229329
O   O19       1.0  0.34360  0.95780  0.51420  1.0000 -0.302229329
O   O20       1.0  0.65640  0.45780  0.98580  1.0000 -0.302229329
O   O21       1.0  0.86010  0.64060  0.69869  1.0000 -0.246121063
O   O22       1.0  0.13990  0.14060  0.80131  1.0000 -0.2436081534
O   O23       1.0  0.13990  0.35940  0.30131  1.0000 -0.246121063
O   O24       1.0  0.86010  0.85940  0.19869  1.0000 -0.2436081534
O   O25       1.0  0.69870  0.65450  0.77453  1.0000 -0.5674158475
O   O26       1.0  0.30130  0.15450  0.72547  1.0000 -0.5674158475
O   O27       1.0  0.30130  0.34550  0.22547  1.0000 -0.5674158475
O   O28       1.0  0.69870  0.84550  0.27453  1.0000 -0.5674158475
O   O29       1.0  0.85090  0.69150  0.84836  1.0000 -0.5405440769
O   O30       1.0  0.14910  0.19150  0.65164  1.0000 -0.5405440769
O   O31       1.0  0.14910  0.30850  0.15164  1.0000 -0.5405440769
O   O32       1.0  0.85090  0.80850  0.34836  1.0000 -0.5405440769
O   O33       1.0  0.68510  0.84250  0.07170  1.0000 -0.5830886206
O   O34       1.0  0.31490  0.34250  0.42830  1.0000 -0.5830886206
O   O35       1.0  0.31490  0.15750  0.92830  1.0000 -0.5830886206
O   O36       1.0  0.68510  0.65750  0.57170  1.0000 -0.5830886206
O   O37       1.0  0.39740  0.64800  0.84250  1.0000 -0.3216586923
O   O38       1.0  0.60260  0.14800  0.65750  1.0000 -0.3216586923
O   O39       1.0  0.60260  0.35200  0.15750  1.0000 -0.3216586923
O   O40       1.0  0.39740  0.85200  0.34250  1.0000 -0.3216586923
O   O41       1.0  0.39330  0.70490  0.93170  1.0000 -0.302229329
O   O42       1.0  0.60670  0.20490  0.56830  1.0000 -0.302229329
O   O43       1.0  0.60670  0.29510  0.06830  1.0000 -0.302229329
O   O44       1.0  0.39330  0.79510  0.43170  1.0000 -0.302229329
O   O45       1.0  0.97590  0.10290  0.66789  1.0000 -0.5603876552
O   O46       1.0  0.02410  0.60290  0.83211  1.0000 -0.5603876552
O   O47       1.0  0.02410  0.89710  0.33211  1.0000 -0.5603876552
O   O48       1.0  0.97590  0.39710  0.16789  1.0000 -0.5603876552
O   O49       1.0  0.84160  0.80740  0.07340  1.0000 -0.5067089936
O   O50       1.0  0.15840  0.30740  0.42660  1.0000 -0.5067089936
O   O51       1.0  0.15840  0.19260  0.92660  1.0000 -0.5067089936
O   O52       1.0  0.84160  0.69260  0.57340  1.0000 -0.5067089936
