# DDEC6 charges by PACMAN v1.1 (https://github.com/mtap-research/PACMAN-charge/)
data_0000[Er][unc]3[ASR]1
_chemical_formula_sum              "Er4 H12 C36 O24"
_cell_length_a       6.072
_cell_length_b       9.53
_cell_length_c       19.844
_cell_angle_alpha    90
_cell_angle_beta     90
_cell_angle_gamma    90

_symmetry_space_group_name_H-M    "P 1"
_symmetry_Int_Tables_number       1

loop_
  _symmetry_equiv_pos_as_xyz
  'x, y, z'

loop_
  _atom_site_type_symbol
  _atom_site_label
  _atom_site_symmetry_multiplicity
  _atom_site_fract_x
  _atom_site_fract_y
  _atom_site_fract_z
  _atom_site_occupancy
  _atom_site_charge
Er  Er1       1.0  0.78610  0.46710  0.81370  1.0000 1.9887000185
Er  Er2       1.0  0.71390  0.53290  0.31370  1.0000 1.9887000185
Er  Er3       1.0  0.21390  0.96710  0.68630  1.0000 1.9887000185
Er  Er4       1.0  0.28610  0.03290  0.18630  1.0000 1.9887000185
H   H1        1.0  0.82317  0.47231  0.06155  1.0000 0.1014656632
H   H2        1.0  0.42051  0.61512  0.95883  1.0000 0.1014656632
H   H3        1.0  0.56619  0.70484  0.06929  1.0000 0.0817649376
H   H4        1.0  0.67683  0.52769  0.56155  1.0000 0.1014656632
H   H5        1.0  0.07949  0.38488  0.45883  1.0000 0.1014656632
H   H6        1.0  0.93381  0.29516  0.56929  1.0000 0.0817649376
H   H7        1.0  0.17683  0.97231  0.43845  1.0000 0.1014656632
H   H8        1.0  0.57949  0.11512  0.54117  1.0000 0.1014656632
H   H9        1.0  0.43426  0.20514  0.42895  1.0000 0.0817649376
H   H10       1.0  0.32317  0.02769  0.93845  1.0000 0.1014656632
H   H11       1.0  0.92051  0.88488  0.04117  1.0000 0.1014656632
H   H12       1.0  0.06619  0.79516  0.93071  1.0000 0.0817649376
C   C1        1.0  0.28710  0.62540  0.12800  1.0000 -0.0397333191
C   C2        1.0  0.08140  0.56120  0.12570  1.0000 -0.0397333191
C   C3        1.0  0.99260  0.52360  0.06400  1.0000 -0.0923727218
C   C4        1.0  0.10670  0.54720  0.00400  1.0000 -0.0228461984
C   C5        1.0  0.31850  0.60480  0.00680  1.0000 -0.082991815
C   C6        1.0  0.40060  0.64850  0.06840  1.0000 -0.096318715
C   C7        1.0  0.38890  0.67030  0.19440  1.0000 0.6682825994
C   C8        1.0  0.94410  0.54090  0.18730  1.0000 0.5730038744
C   C9        1.0  0.00240  0.50780  0.93710  1.0000 0.557292999
C   C10       1.0  0.21290  0.37460  0.62800  1.0000 -0.0397333191
C   C11       1.0  0.41860  0.43880  0.62570  1.0000 -0.0397333191
C   C12       1.0  0.50740  0.47640  0.56400  1.0000 -0.0923727218
C   C13       1.0  0.39330  0.45280  0.50400  1.0000 -0.0228461984
C   C14       1.0  0.18150  0.39520  0.50680  1.0000 -0.082991815
C   C15       1.0  0.09940  0.35150  0.56840  1.0000 -0.096318715
C   C16       1.0  0.11110  0.32970  0.69440  1.0000 0.6682825994
C   C17       1.0  0.55590  0.45910  0.68730  1.0000 0.5730038744
C   C18       1.0  0.49760  0.49220  0.43710  1.0000 0.557292999
C   C19       1.0  0.71290  0.12540  0.37200  1.0000 -0.0397333191
C   C20       1.0  0.91860  0.06120  0.37430  1.0000 -0.0397333191
C   C21       1.0  0.00740  0.02360  0.43600  1.0000 -0.0923727218
C   C22       1.0  0.89330  0.04720  0.49600  1.0000 -0.0228461984
C   C23       1.0  0.68150  0.10480  0.49320  1.0000 -0.082991815
C   C24       1.0  0.59940  0.14850  0.43160  1.0000 -0.096318715
C   C25       1.0  0.61110  0.17030  0.30560  1.0000 0.6682825994
C   C26       1.0  0.05590  0.04090  0.31270  1.0000 0.5730038744
C   C27       1.0  0.99760  0.00780  0.56290  1.0000 0.557292999
C   C28       1.0  0.78710  0.87460  0.87200  1.0000 -0.0397333191
C   C29       1.0  0.58140  0.93880  0.87430  1.0000 -0.0397333191
C   C30       1.0  0.49260  0.97640  0.93600  1.0000 -0.0923727218
C   C31       1.0  0.60670  0.95280  0.99600  1.0000 -0.0228461984
C   C32       1.0  0.81850  0.89520  0.99320  1.0000 -0.082991815
C   C33       1.0  0.90060  0.85150  0.93160  1.0000 -0.096318715
C   C34       1.0  0.88890  0.82970  0.80560  1.0000 0.6682825994
C   C35       1.0  0.44410  0.95910  0.81270  1.0000 0.5730038744
C   C36       1.0  0.50240  0.99220  0.06290  1.0000 0.557292999
O   O1        1.0  0.42530  0.80320  0.20220  1.0000 -0.6761833567
O   O2        1.0  0.44160  0.57750  0.23410  1.0000 -0.5833808321
O   O3        1.0  0.84860  0.42690  0.19660  1.0000 -0.5685568738
O   O4        1.0  0.92420  0.64040  0.22850  1.0000 -0.6352527279
O   O5        1.0  0.80140  0.49420  0.93440  1.0000 -0.6252028484
O   O6        1.0  0.11860  0.49610  0.88490  1.0000 -0.6094030279
O   O7        1.0  0.07470  0.19680  0.70220  1.0000 -0.6761833567
O   O8        1.0  0.05840  0.42250  0.73410  1.0000 -0.5833808321
O   O9        1.0  0.65140  0.57310  0.69660  1.0000 -0.5685568738
O   O10       1.0  0.57580  0.35960  0.72850  1.0000 -0.6352527279
O   O11       1.0  0.69860  0.50580  0.43440  1.0000 -0.6252028484
O   O12       1.0  0.38140  0.50390  0.38490  1.0000 -0.6094030279
O   O13       1.0  0.57470  0.30320  0.29780  1.0000 -0.6761833567
O   O14       1.0  0.55840  0.07750  0.26590  1.0000 -0.5833808321
O   O15       1.0  0.15140  0.92690  0.30340  1.0000 -0.5685568738
O   O16       1.0  0.07580  0.14040  0.27150  1.0000 -0.6352527279
O   O17       1.0  0.19860  0.99420  0.56560  1.0000 -0.6252028484
O   O18       1.0  0.88140  0.99610  0.61510  1.0000 -0.6094030279
O   O19       1.0  0.92530  0.69680  0.79780  1.0000 -0.6761833567
O   O20       1.0  0.94160  0.92250  0.76590  1.0000 -0.5833808321
O   O21       1.0  0.34860  0.07310  0.80340  1.0000 -0.5685568738
O   O22       1.0  0.42420  0.85960  0.77150  1.0000 -0.6352527279
O   O23       1.0  0.30140  0.00580  0.06560  1.0000 -0.6252028484
O   O24       1.0  0.61860  0.00390  0.11510  1.0000 -0.6094030279
