# DDEC6 charges by PACMAN v1.1 (https://github.com/mtap-research/PACMAN-charge/)
data_0000[In][pts]3[ASR]1
_chemical_formula_sum              "In4 H128 C216 O32"
_cell_length_a       20.7561
_cell_length_b       20.7561
_cell_length_c       31.7789
_cell_angle_alpha    89.2593
_cell_angle_beta     90.7407
_cell_angle_gamma    137.784

_symmetry_space_group_name_H-M    "P 1"
_symmetry_Int_Tables_number       1

loop_
  _symmetry_equiv_pos_as_xyz
  'x, y, z'

loop_
  _atom_site_type_symbol
  _atom_site_label
  _atom_site_symmetry_multiplicity
  _atom_site_fract_x
  _atom_site_fract_y
  _atom_site_fract_z
  _atom_site_occupancy
  _atom_site_charge
In  In1       1.0  0.19645  0.75981  0.70056  1.0000 1.3496355339
In  In2       1.0  0.24019  0.80355  0.20056  1.0000 1.3496355339
In  In3       1.0  0.75981  0.19645  0.79944  1.0000 1.3496355339
In  In4       1.0  0.80355  0.24019  0.29944  1.0000 1.3496355339
H   H1        1.0  0.49060  0.92800  0.77520  1.0000 0.1484588905
H   H2        1.0  0.07200  0.50940  0.27520  1.0000 0.1484588905
H   H3        1.0  0.59070  0.93590  0.81590  1.0000 0.1299266777
H   H4        1.0  0.06410  0.40930  0.31590  1.0000 0.1299266777
H   H5        1.0  0.37050  0.65330  0.83690  1.0000 0.1127691426
H   H6        1.0  0.34670  0.62950  0.33690  1.0000 0.1127691426
H   H7        1.0  0.27130  0.64490  0.79600  1.0000 0.1299266777
H   H8        1.0  0.35510  0.72870  0.29600  1.0000 0.1299266777
H   H9        1.0  0.67180  0.90260  0.82300  1.0000 0.1299266777
H   H10       1.0  0.09740  0.32820  0.32300  1.0000 0.1299266777
H   H11       1.0  0.77310  0.90950  0.86040  1.0000 0.1191950865
H   H12       1.0  0.09050  0.22690  0.36040  1.0000 0.1191950865
H   H13       1.0  0.54770  0.69570  0.93460  1.0000 0.1191950865
H   H14       1.0  0.30430  0.45230  0.43460  1.0000 0.1191950865
H   H15       1.0  0.45170  0.69150  0.89570  1.0000 0.1191950865
H   H16       1.0  0.30850  0.54830  0.39570  1.0000 0.1191950865
H   H17       1.0  0.68290  0.68970  0.86910  1.0000 0.1299266777
H   H18       1.0  0.31030  0.31710  0.36910  1.0000 0.1299266777
H   H19       1.0  0.76870  0.68030  0.82960  1.0000 0.1191950865
H   H20       1.0  0.31970  0.23130  0.32960  1.0000 0.1191950865
H   H21       1.0  0.01030  0.91810  0.88400  1.0000 0.1127691426
H   H22       1.0  0.08190  0.98970  0.38400  1.0000 0.1127691426
H   H23       1.0  0.92310  0.92330  0.92480  1.0000 0.1191950865
H   H24       1.0  0.07670  0.07690  0.42480  1.0000 0.1191950865
H   H25       1.0  0.84370  0.64230  0.82080  1.0000 0.1191950865
H   H26       1.0  0.35770  0.15630  0.32080  1.0000 0.1191950865
H   H27       1.0  0.92700  0.63440  0.77790  1.0000 0.1299266777
H   H28       1.0  0.36560  0.07300  0.27790  1.0000 0.1299266777
H   H29       1.0  0.16140  0.91880  0.78910  1.0000 0.1372058698
H   H30       1.0  0.08120  0.83860  0.28910  1.0000 0.1372058698
H   H31       1.0  0.07660  0.92540  0.83020  1.0000 0.1127691426
H   H32       1.0  0.07460  0.92340  0.33020  1.0000 0.1127691426
H   H33       1.0  0.74740  0.94600  0.97410  1.0000 0.1299266777
H   H34       1.0  0.05400  0.25260  0.47410  1.0000 0.1299266777
H   H35       1.0  0.66030  0.95270  0.01280  1.0000 0.1191950865
H   H36       1.0  0.04730  0.33970  0.51280  1.0000 0.1191950865
H   H37       1.0  0.51630  0.69850  0.06490  1.0000 0.1191950865
H   H38       1.0  0.30150  0.48370  0.56490  1.0000 0.1191950865
H   H39       1.0  0.61280  0.69940  0.03080  1.0000 0.1299266777
H   H40       1.0  0.30060  0.38720  0.53080  1.0000 0.1299266777
H   H41       1.0  0.62290  0.96730  0.08260  1.0000 0.1191950865
H   H42       1.0  0.03270  0.37710  0.58260  1.0000 0.1191950865
H   H43       1.0  0.53160  0.96780  0.12430  1.0000 0.1372058698
H   H44       1.0  0.03220  0.46840  0.62430  1.0000 0.1372058698
H   H45       1.0  0.30420  0.68440  0.10580  1.0000 0.1372058698
H   H46       1.0  0.31560  0.69580  0.60580  1.0000 0.1372058698
H   H47       1.0  0.39540  0.68560  0.06470  1.0000 0.1191950865
H   H48       1.0  0.31440  0.60460  0.56470  1.0000 0.1191950865
H   H49       1.0  0.86370  0.91970  0.03310  1.0000 0.1299266777
H   H50       1.0  0.08030  0.13630  0.53310  1.0000 0.1299266777
H   H51       1.0  0.95820  0.91960  0.07030  1.0000 0.1127691426
H   H52       1.0  0.08040  0.04180  0.57030  1.0000 0.1127691426
H   H53       1.0  0.83370  0.68030  0.01020  1.0000 0.1191950865
H   H54       1.0  0.31970  0.16630  0.51020  1.0000 0.1191950865
H   H55       1.0  0.74590  0.68710  0.97040  1.0000 0.1299266777
H   H56       1.0  0.31290  0.25410  0.47040  1.0000 0.1299266777
H   H57       1.0  0.08860  0.94020  0.07050  1.0000 0.103472948
H   H58       1.0  0.05980  0.91140  0.57050  1.0000 0.103472948
H   H59       1.0  0.18260  0.93940  0.11010  1.0000 0.1191950865
H   H60       1.0  0.06060  0.81740  0.61010  1.0000 0.1191950865
H   H61       1.0  0.95890  0.65230  0.11700  1.0000 0.1372058698
H   H62       1.0  0.34770  0.04110  0.61700  1.0000 0.1372058698
H   H63       1.0  0.86670  0.65430  0.07810  1.0000 0.1191950865
H   H64       1.0  0.34570  0.13330  0.57810  1.0000 0.1191950865
H   H65       1.0  0.92800  0.49060  0.72480  1.0000 0.1484588905
H   H66       1.0  0.50940  0.07200  0.22480  1.0000 0.1484588905
H   H67       1.0  0.93590  0.59070  0.68410  1.0000 0.1299266777
H   H68       1.0  0.40930  0.06410  0.18410  1.0000 0.1299266777
H   H69       1.0  0.65330  0.37050  0.66310  1.0000 0.1127691426
H   H70       1.0  0.62950  0.34670  0.16310  1.0000 0.1127691426
H   H71       1.0  0.64490  0.27130  0.70400  1.0000 0.1299266777
H   H72       1.0  0.72870  0.35510  0.20400  1.0000 0.1299266777
H   H73       1.0  0.90260  0.67180  0.67700  1.0000 0.1299266777
H   H74       1.0  0.32820  0.09740  0.17700  1.0000 0.1299266777
H   H75       1.0  0.90950  0.77310  0.63960  1.0000 0.1191950865
H   H76       1.0  0.22690  0.09050  0.13960  1.0000 0.1191950865
H   H77       1.0  0.69570  0.54770  0.56540  1.0000 0.1191950865
H   H78       1.0  0.45230  0.30430  0.06540  1.0000 0.1191950865
H   H79       1.0  0.69150  0.45170  0.60430  1.0000 0.1191950865
H   H80       1.0  0.54830  0.30850  0.10430  1.0000 0.1191950865
H   H81       1.0  0.68970  0.68290  0.63090  1.0000 0.1299266777
H   H82       1.0  0.31710  0.31030  0.13090  1.0000 0.1299266777
H   H83       1.0  0.68030  0.76870  0.67040  1.0000 0.1191950865
H   H84       1.0  0.23130  0.31970  0.17040  1.0000 0.1191950865
H   H85       1.0  0.91810  0.01030  0.61600  1.0000 0.1127691426
H   H86       1.0  0.98970  0.08190  0.11600  1.0000 0.1127691426
H   H87       1.0  0.92330  0.92310  0.57520  1.0000 0.1191950865
H   H88       1.0  0.07690  0.07670  0.07520  1.0000 0.1191950865
H   H89       1.0  0.64230  0.84370  0.67920  1.0000 0.1191950865
H   H90       1.0  0.15630  0.35770  0.17920  1.0000 0.1191950865
H   H91       1.0  0.63440  0.92700  0.72210  1.0000 0.1299266777
H   H92       1.0  0.07300  0.36560  0.22210  1.0000 0.1299266777
H   H93       1.0  0.91880  0.16140  0.71090  1.0000 0.1372058698
H   H94       1.0  0.83860  0.08120  0.21090  1.0000 0.1372058698
H   H95       1.0  0.92540  0.07660  0.66980  1.0000 0.1127691426
H   H96       1.0  0.92340  0.07460  0.16980  1.0000 0.1127691426
H   H97       1.0  0.94600  0.74740  0.52590  1.0000 0.1299266777
H   H98       1.0  0.25260  0.05400  0.02590  1.0000 0.1299266777
H   H99       1.0  0.95270  0.66030  0.48720  1.0000 0.1191950865
H   H100      1.0  0.33970  0.04730  0.98720  1.0000 0.1191950865
H   H101      1.0  0.69850  0.51630  0.43510  1.0000 0.1191950865
H   H102      1.0  0.48370  0.30150  0.93510  1.0000 0.1191950865
H   H103      1.0  0.69940  0.61280  0.46920  1.0000 0.1299266777
H   H104      1.0  0.38720  0.30060  0.96920  1.0000 0.1299266777
H   H105      1.0  0.96730  0.62290  0.41740  1.0000 0.1191950865
H   H106      1.0  0.37710  0.03270  0.91740  1.0000 0.1191950865
H   H107      1.0  0.96780  0.53160  0.37570  1.0000 0.1372058698
H   H108      1.0  0.46840  0.03220  0.87570  1.0000 0.1372058698
H   H109      1.0  0.68440  0.30420  0.39420  1.0000 0.1372058698
H   H110      1.0  0.69580  0.31560  0.89420  1.0000 0.1372058698
H   H111      1.0  0.68560  0.39540  0.43530  1.0000 0.1191950865
H   H112      1.0  0.60460  0.31440  0.93530  1.0000 0.1191950865
H   H113      1.0  0.91970  0.86370  0.46690  1.0000 0.1299266777
H   H114      1.0  0.13630  0.08030  0.96690  1.0000 0.1299266777
H   H115      1.0  0.91960  0.95820  0.42970  1.0000 0.1127691426
H   H116      1.0  0.04180  0.08040  0.92970  1.0000 0.1127691426
H   H117      1.0  0.68030  0.83370  0.48980  1.0000 0.1191950865
H   H118      1.0  0.16630  0.31970  0.98980  1.0000 0.1191950865
H   H119      1.0  0.68710  0.74590  0.52960  1.0000 0.1299266777
H   H120      1.0  0.25410  0.31290  0.02960  1.0000 0.1299266777
H   H121      1.0  0.94020  0.08860  0.42950  1.0000 0.103472948
H   H122      1.0  0.91140  0.05980  0.92950  1.0000 0.103472948
H   H123      1.0  0.93940  0.18260  0.38990  1.0000 0.1191950865
H   H124      1.0  0.81740  0.06060  0.88990  1.0000 0.1191950865
H   H125      1.0  0.65230  0.95890  0.38300  1.0000 0.1372058698
H   H126      1.0  0.04110  0.34770  0.88300  1.0000 0.1372058698
H   H127      1.0  0.65430  0.86670  0.42190  1.0000 0.1191950865
H   H128      1.0  0.13330  0.34570  0.92190  1.0000 0.1191950865
C   C1        1.0  0.30824  0.77916  0.75266  1.0000 0.5410617813
C   C2        1.0  0.22084  0.69176  0.25266  1.0000 0.5410617813
C   C3        1.0  0.37356  0.78744  0.78032  1.0000 0.0025507634
C   C4        1.0  0.21256  0.62644  0.28032  1.0000 0.0025507634
C   C5        1.0  0.46644  0.87236  0.78700  1.0000 -0.0740663484
C   C6        1.0  0.12764  0.53356  0.28700  1.0000 -0.0740663484
C   C7        1.0  0.52686  0.87734  0.81166  1.0000 -0.1218068824
C   C8        1.0  0.12266  0.47314  0.31166  1.0000 -0.1218068824
C   C9        1.0  0.49001  0.79339  0.82972  1.0000 0.0695469605
C   C10       1.0  0.20661  0.50999  0.32972  1.0000 0.0695469605
C   C11       1.0  0.39537  0.70863  0.82410  1.0000 -0.148821515
C   C12       1.0  0.29137  0.60463  0.32410  1.0000 -0.148821515
C   C13       1.0  0.33559  0.70321  0.79960  1.0000 -0.0878511494
C   C14       1.0  0.29679  0.66441  0.29960  1.0000 -0.0878511494
C   C15       1.0  0.55330  0.79670  0.85601  1.0000 0.0695469605
C   C16       1.0  0.20330  0.44670  0.35601  1.0000 0.0695469605
C   C17       1.0  0.64797  0.86123  0.84565  1.0000 -0.1218068824
C   C18       1.0  0.13877  0.35203  0.34565  1.0000 -0.1218068824
C   C19       1.0  0.70922  0.86638  0.86824  1.0000 -0.148821515
C   C20       1.0  0.13362  0.29078  0.36824  1.0000 -0.148821515
C   C21       1.0  0.67257  0.80363  0.90443  1.0000 0.0759438127
C   C22       1.0  0.19637  0.32743  0.40443  1.0000 0.0759438127
C   C23       1.0  0.57451  0.73869  0.91236  1.0000 -0.148821515
C   C24       1.0  0.26131  0.42549  0.41236  1.0000 -0.148821515
C   C25       1.0  0.51621  0.73539  0.88900  1.0000 -0.1328220393
C   C26       1.0  0.26461  0.48379  0.38900  1.0000 -0.1328220393
C   C27       1.0  0.73587  0.80713  0.92939  1.0000 -0.0363432281
C   C28       1.0  0.19287  0.26413  0.42939  1.0000 -0.0363432281
C   C29       1.0  0.79378  0.80442  0.90391  1.0000 0.0759438127
C   C30       1.0  0.19558  0.20622  0.40391  1.0000 0.0759438127
C   C31       1.0  0.74865  0.73395  0.87350  1.0000 -0.148821515
C   C32       1.0  0.26605  0.25135  0.37350  1.0000 -0.148821515
C   C33       1.0  0.80049  0.72851  0.84940  1.0000 -0.1405426674
C   C34       1.0  0.27149  0.19951  0.34940  1.0000 -0.1405426674
C   C35       1.0  0.89687  0.79293  0.85475  1.0000 0.0636495109
C   C36       1.0  0.20707  0.10313  0.35475  1.0000 0.0636495109
C   C37       1.0  0.94374  0.86926  0.88200  1.0000 -0.1405426674
C   C38       1.0  0.13074  0.05626  0.38200  1.0000 -0.1405426674
C   C39       1.0  0.89079  0.87261  0.90630  1.0000 -0.148821515
C   C40       1.0  0.12739  0.10921  0.40630  1.0000 -0.148821515
C   C41       1.0  0.95179  0.78661  0.82907  1.0000 0.0695469605
C   C42       1.0  0.21339  0.04821  0.32907  1.0000 0.0695469605
C   C43       1.0  0.90730  0.69790  0.81410  1.0000 -0.148821515
C   C44       1.0  0.30210  0.09270  0.31410  1.0000 -0.148821515
C   C45       1.0  0.95805  0.69295  0.78910  1.0000 -0.0878511494
C   C46       1.0  0.30705  0.04195  0.28910  1.0000 -0.0878511494
C   C47       1.0  0.05399  0.77401  0.78075  1.0000 -0.0066326312
C   C48       1.0  0.22599  0.94601  0.28075  1.0000 -0.0066326312
C   C49       1.0  0.09780  0.86280  0.79560  1.0000 -0.0878511494
C   C50       1.0  0.13720  0.90220  0.29560  1.0000 -0.0878511494
C   C51       1.0  0.04622  0.86658  0.81980  1.0000 -0.148821515
C   C52       1.0  0.13342  0.95378  0.31980  1.0000 -0.148821515
C   C53       1.0  0.73942  0.81058  0.97147  1.0000 -0.028808225
C   C54       1.0  0.18942  0.26058  0.47147  1.0000 -0.028808225
C   C55       1.0  0.68603  0.81797  0.99677  1.0000 0.0695469605
C   C56       1.0  0.18203  0.31397  0.49677  1.0000 0.0695469605
C   C57       1.0  0.70130  0.89650  0.99271  1.0000 -0.148821515
C   C58       1.0  0.10350  0.29870  0.49271  1.0000 -0.148821515
C   C59       1.0  0.64932  0.90048  0.01580  1.0000 -0.1328220393
C   C60       1.0  0.09952  0.35068  0.51580  1.0000 -0.1328220393
C   C61       1.0  0.57825  0.82515  0.04458  1.0000 0.0695469605
C   C62       1.0  0.17485  0.42175  0.54458  1.0000 0.0695469605
C   C63       1.0  0.56463  0.75017  0.04760  1.0000 -0.1328220393
C   C64       1.0  0.24983  0.43537  0.54760  1.0000 -0.1328220393
C   C65       1.0  0.62011  0.74869  0.02580  1.0000 -0.148821515
C   C66       1.0  0.25131  0.37989  0.52580  1.0000 -0.148821515
C   C67       1.0  0.51858  0.82602  0.07033  1.0000 0.0695469605
C   C68       1.0  0.17398  0.48142  0.57033  1.0000 0.0695469605
C   C69       1.0  0.55886  0.91034  0.08759  1.0000 -0.148821515
C   C70       1.0  0.08966  0.44114  0.58759  1.0000 -0.148821515
C   C71       1.0  0.50381  0.91079  0.11273  1.0000 -0.0806065227
C   C72       1.0  0.08921  0.49619  0.61273  1.0000 -0.0806065227
C   C73       1.0  0.40881  0.82679  0.12012  1.0000 -0.0159904008
C   C74       1.0  0.17321  0.59119  0.62012  1.0000 -0.0159904008
C   C75       1.0  0.36855  0.74165  0.10150  1.0000 -0.0806065227
C   C76       1.0  0.25835  0.63145  0.60150  1.0000 -0.0806065227
C   C77       1.0  0.42318  0.74222  0.07690  1.0000 -0.148821515
C   C78       1.0  0.25778  0.57682  0.57690  1.0000 -0.148821515
C   C79       1.0  0.79737  0.80603  0.99682  1.0000 0.0759438127
C   C80       1.0  0.19397  0.20263  0.49682  1.0000 0.0759438127
C   C81       1.0  0.85924  0.87256  0.02770  1.0000 -0.148821515
C   C82       1.0  0.12744  0.14076  0.52770  1.0000 -0.148821515
C   C83       1.0  0.91467  0.87133  0.05080  1.0000 -0.148821515
C   C84       1.0  0.12867  0.08533  0.55080  1.0000 -0.148821515
C   C85       1.0  0.90714  0.79946  0.04555  1.0000 0.0759438127
C   C86       1.0  0.20054  0.09286  0.54555  1.0000 0.0759438127
C   C87       1.0  0.84134  0.72986  0.01460  1.0000 -0.1405426674
C   C88       1.0  0.27014  0.15866  0.51460  1.0000 -0.1405426674
C   C89       1.0  0.78821  0.73359  0.99070  1.0000 -0.1405426674
C   C90       1.0  0.26641  0.21179  0.49070  1.0000 -0.1405426674
C   C91       1.0  0.96790  0.79850  0.07077  1.0000 0.0695469605
C   C92       1.0  0.20150  0.03210  0.57077  1.0000 0.0695469605
C   C93       1.0  0.06223  0.88217  0.08025  1.0000 -0.1578723863
C   C94       1.0  0.11783  0.93777  0.58025  1.0000 -0.1578723863
C   C95       1.0  0.11907  0.88233  0.10391  1.0000 -0.097113995
C   C96       1.0  0.11767  0.88093  0.60391  1.0000 -0.097113995
C   C97       1.0  0.07837  0.79423  0.11831  1.0000 0.0025507634
C   C98       1.0  0.20577  0.92163  0.61831  1.0000 0.0025507634
C   C99       1.0  0.98498  0.71062  0.10798  1.0000 -0.0806065227
C   C100      1.0  0.28938  0.01502  0.60798  1.0000 -0.0806065227
C   C101      1.0  0.92964  0.71156  0.08465  1.0000 -0.148821515
C   C102      1.0  0.28844  0.07036  0.58465  1.0000 -0.148821515
C   C103      1.0  0.10766  0.76734  0.75395  1.0000 0.5346469804
C   C104      1.0  0.23266  0.89234  0.25395  1.0000 0.5346469804
C   C105      1.0  0.13724  0.79436  0.14618  1.0000 0.5410617813
C   C106      1.0  0.20564  0.86276  0.64618  1.0000 0.5410617813
C   C107      1.0  0.34849  0.82171  0.14824  1.0000 0.5346469804
C   C108      1.0  0.17829  0.65151  0.64824  1.0000 0.5346469804
C   C109      1.0  0.77916  0.30824  0.74734  1.0000 0.5410617813
C   C110      1.0  0.69176  0.22084  0.24734  1.0000 0.5410617813
C   C111      1.0  0.78744  0.37356  0.71968  1.0000 0.0025507634
C   C112      1.0  0.62644  0.21256  0.21968  1.0000 0.0025507634
C   C113      1.0  0.87236  0.46644  0.71300  1.0000 -0.0740663484
C   C114      1.0  0.53356  0.12764  0.21300  1.0000 -0.0740663484
C   C115      1.0  0.87734  0.52686  0.68834  1.0000 -0.1218068824
C   C116      1.0  0.47314  0.12266  0.18834  1.0000 -0.1218068824
C   C117      1.0  0.79339  0.49001  0.67028  1.0000 0.0695469605
C   C118      1.0  0.50999  0.20661  0.17028  1.0000 0.0695469605
C   C119      1.0  0.70863  0.39537  0.67590  1.0000 -0.148821515
C   C120      1.0  0.60463  0.29137  0.17590  1.0000 -0.148821515
C   C121      1.0  0.70321  0.33559  0.70040  1.0000 -0.0878511494
C   C122      1.0  0.66441  0.29679  0.20040  1.0000 -0.0878511494
C   C123      1.0  0.79670  0.55330  0.64399  1.0000 0.0695469605
C   C124      1.0  0.44670  0.20330  0.14399  1.0000 0.0695469605
C   C125      1.0  0.86123  0.64797  0.65435  1.0000 -0.1218068824
C   C126      1.0  0.35203  0.13877  0.15435  1.0000 -0.1218068824
C   C127      1.0  0.86638  0.70922  0.63176  1.0000 -0.148821515
C   C128      1.0  0.29078  0.13362  0.13176  1.0000 -0.148821515
C   C129      1.0  0.80363  0.67257  0.59557  1.0000 0.0759438127
C   C130      1.0  0.32743  0.19637  0.09557  1.0000 0.0759438127
C   C131      1.0  0.73869  0.57451  0.58764  1.0000 -0.148821515
C   C132      1.0  0.42549  0.26131  0.08764  1.0000 -0.148821515
C   C133      1.0  0.73539  0.51621  0.61100  1.0000 -0.1328220393
C   C134      1.0  0.48379  0.26461  0.11100  1.0000 -0.1328220393
C   C135      1.0  0.80713  0.73587  0.57061  1.0000 -0.0363432281
C   C136      1.0  0.26413  0.19287  0.07061  1.0000 -0.0363432281
C   C137      1.0  0.80442  0.79378  0.59609  1.0000 0.0759438127
C   C138      1.0  0.20622  0.19558  0.09609  1.0000 0.0759438127
C   C139      1.0  0.73395  0.74865  0.62650  1.0000 -0.148821515
C   C140      1.0  0.25135  0.26605  0.12650  1.0000 -0.148821515
C   C141      1.0  0.72851  0.80049  0.65060  1.0000 -0.1405426674
C   C142      1.0  0.19951  0.27149  0.15060  1.0000 -0.1405426674
C   C143      1.0  0.79293  0.89687  0.64525  1.0000 0.0636495109
C   C144      1.0  0.10313  0.20707  0.14525  1.0000 0.0636495109
C   C145      1.0  0.86926  0.94374  0.61800  1.0000 -0.1405426674
C   C146      1.0  0.05626  0.13074  0.11800  1.0000 -0.1405426674
C   C147      1.0  0.87261  0.89079  0.59370  1.0000 -0.148821515
C   C148      1.0  0.10921  0.12739  0.09370  1.0000 -0.148821515
C   C149      1.0  0.78661  0.95179  0.67093  1.0000 0.0695469605
C   C150      1.0  0.04821  0.21339  0.17093  1.0000 0.0695469605
C   C151      1.0  0.69790  0.90730  0.68590  1.0000 -0.148821515
C   C152      1.0  0.09270  0.30210  0.18590  1.0000 -0.148821515
C   C153      1.0  0.69295  0.95805  0.71090  1.0000 -0.0878511494
C   C154      1.0  0.04195  0.30705  0.21090  1.0000 -0.0878511494
C   C155      1.0  0.77401  0.05399  0.71925  1.0000 -0.0066326312
C   C156      1.0  0.94601  0.22599  0.21925  1.0000 -0.0066326312
C   C157      1.0  0.86280  0.09780  0.70440  1.0000 -0.0878511494
C   C158      1.0  0.90220  0.13720  0.20440  1.0000 -0.0878511494
C   C159      1.0  0.86658  0.04622  0.68020  1.0000 -0.148821515
C   C160      1.0  0.95378  0.13342  0.18020  1.0000 -0.148821515
C   C161      1.0  0.81058  0.73942  0.52853  1.0000 -0.028808225
C   C162      1.0  0.26058  0.18942  0.02853  1.0000 -0.028808225
C   C163      1.0  0.81797  0.68603  0.50323  1.0000 0.0695469605
C   C164      1.0  0.31397  0.18203  0.00323  1.0000 0.0695469605
C   C165      1.0  0.89650  0.70130  0.50729  1.0000 -0.148821515
C   C166      1.0  0.29870  0.10350  0.00729  1.0000 -0.148821515
C   C167      1.0  0.90048  0.64932  0.48420  1.0000 -0.1328220393
C   C168      1.0  0.35068  0.09952  0.98420  1.0000 -0.1328220393
C   C169      1.0  0.82515  0.57825  0.45542  1.0000 0.0695469605
C   C170      1.0  0.42175  0.17485  0.95542  1.0000 0.0695469605
C   C171      1.0  0.75017  0.56463  0.45240  1.0000 -0.1328220393
C   C172      1.0  0.43537  0.24983  0.95240  1.0000 -0.1328220393
C   C173      1.0  0.74869  0.62011  0.47420  1.0000 -0.148821515
C   C174      1.0  0.37989  0.25131  0.97420  1.0000 -0.148821515
C   C175      1.0  0.82602  0.51858  0.42967  1.0000 0.0695469605
C   C176      1.0  0.48142  0.17398  0.92967  1.0000 0.0695469605
C   C177      1.0  0.91034  0.55886  0.41241  1.0000 -0.148821515
C   C178      1.0  0.44114  0.08966  0.91241  1.0000 -0.148821515
C   C179      1.0  0.91079  0.50381  0.38727  1.0000 -0.0806065227
C   C180      1.0  0.49619  0.08921  0.88727  1.0000 -0.0806065227
C   C181      1.0  0.82679  0.40881  0.37988  1.0000 -0.0159904008
C   C182      1.0  0.59119  0.17321  0.87988  1.0000 -0.0159904008
C   C183      1.0  0.74165  0.36855  0.39850  1.0000 -0.0806065227
C   C184      1.0  0.63145  0.25835  0.89850  1.0000 -0.0806065227
C   C185      1.0  0.74222  0.42318  0.42310  1.0000 -0.148821515
C   C186      1.0  0.57682  0.25778  0.92310  1.0000 -0.148821515
C   C187      1.0  0.80603  0.79737  0.50318  1.0000 0.0759438127
C   C188      1.0  0.20263  0.19397  0.00318  1.0000 0.0759438127
C   C189      1.0  0.87256  0.85924  0.47230  1.0000 -0.148821515
C   C190      1.0  0.14076  0.12744  0.97230  1.0000 -0.148821515
C   C191      1.0  0.87133  0.91467  0.44920  1.0000 -0.148821515
C   C192      1.0  0.08533  0.12867  0.94920  1.0000 -0.148821515
C   C193      1.0  0.79946  0.90714  0.45445  1.0000 0.0759438127
C   C194      1.0  0.09286  0.20054  0.95445  1.0000 0.0759438127
C   C195      1.0  0.72986  0.84134  0.48540  1.0000 -0.1405426674
C   C196      1.0  0.15866  0.27014  0.98540  1.0000 -0.1405426674
C   C197      1.0  0.73359  0.78821  0.50930  1.0000 -0.1405426674
C   C198      1.0  0.21179  0.26641  0.00930  1.0000 -0.1405426674
C   C199      1.0  0.79850  0.96790  0.42923  1.0000 0.0695469605
C   C200      1.0  0.03210  0.20150  0.92923  1.0000 0.0695469605
C   C201      1.0  0.88217  0.06223  0.41975  1.0000 -0.1578723863
C   C202      1.0  0.93777  0.11783  0.91975  1.0000 -0.1578723863
C   C203      1.0  0.88233  0.11907  0.39609  1.0000 -0.097113995
C   C204      1.0  0.88093  0.11767  0.89609  1.0000 -0.097113995
C   C205      1.0  0.79423  0.07837  0.38169  1.0000 0.0025507634
C   C206      1.0  0.92163  0.20577  0.88169  1.0000 0.0025507634
C   C207      1.0  0.71062  0.98498  0.39202  1.0000 -0.0806065227
C   C208      1.0  0.01502  0.28938  0.89202  1.0000 -0.0806065227
C   C209      1.0  0.71156  0.92964  0.41535  1.0000 -0.148821515
C   C210      1.0  0.07036  0.28844  0.91535  1.0000 -0.148821515
C   C211      1.0  0.76734  0.10766  0.74605  1.0000 0.5346469804
C   C212      1.0  0.89234  0.23266  0.24605  1.0000 0.5346469804
C   C213      1.0  0.79436  0.13724  0.35382  1.0000 0.5410617813
C   C214      1.0  0.86276  0.20564  0.85382  1.0000 0.5410617813
C   C215      1.0  0.82171  0.34849  0.35176  1.0000 0.5346469804
C   C216      1.0  0.65151  0.17829  0.85176  1.0000 0.5346469804
O   O1        1.0  0.34513  0.85467  0.73335  1.0000 -0.5166250319
O   O2        1.0  0.14533  0.65487  0.23335  1.0000 -0.5166250319
O   O3        1.0  0.22389  0.70151  0.74795  1.0000 -0.5114833788
O   O4        1.0  0.29849  0.77611  0.24795  1.0000 -0.5114833788
O   O5        1.0  0.19433  0.84487  0.74478  1.0000 -0.5166250319
O   O6        1.0  0.15513  0.80567  0.24478  1.0000 -0.5166250319
O   O7        1.0  0.06860  0.68920  0.74035  1.0000 -0.5044639633
O   O8        1.0  0.31080  0.93140  0.24035  1.0000 -0.5044639633
O   O9        1.0  0.09856  0.71624  0.16272  1.0000 -0.5114833788
O   O10       1.0  0.28376  0.90144  0.66272  1.0000 -0.5114833788
O   O11       1.0  0.22306  0.87254  0.15423  1.0000 -0.5375166462
O   O12       1.0  0.12746  0.77694  0.65423  1.0000 -0.5375166462
O   O13       1.0  0.26125  0.74375  0.15282  1.0000 -0.5114833788
O   O14       1.0  0.25625  0.73875  0.65282  1.0000 -0.5114833788
O   O15       1.0  0.38544  0.89536  0.16771  1.0000 -0.5114833788
O   O16       1.0  0.10464  0.61456  0.66771  1.0000 -0.5114833788
O   O17       1.0  0.85467  0.34513  0.76665  1.0000 -0.5166250319
O   O18       1.0  0.65487  0.14533  0.26665  1.0000 -0.5166250319
O   O19       1.0  0.70151  0.22389  0.75205  1.0000 -0.5114833788
O   O20       1.0  0.77611  0.29849  0.25205  1.0000 -0.5114833788
O   O21       1.0  0.84487  0.19433  0.75522  1.0000 -0.5166250319
O   O22       1.0  0.80567  0.15513  0.25522  1.0000 -0.5166250319
O   O23       1.0  0.68920  0.06860  0.75965  1.0000 -0.5044639633
O   O24       1.0  0.93140  0.31080  0.25965  1.0000 -0.5044639633
O   O25       1.0  0.71624  0.09856  0.33728  1.0000 -0.5114833788
O   O26       1.0  0.90144  0.28376  0.83728  1.0000 -0.5114833788
O   O27       1.0  0.87254  0.22306  0.34577  1.0000 -0.5375166462
O   O28       1.0  0.77694  0.12746  0.84577  1.0000 -0.5375166462
O   O29       1.0  0.74375  0.26125  0.34718  1.0000 -0.5114833788
O   O30       1.0  0.73875  0.25625  0.84718  1.0000 -0.5114833788
O   O31       1.0  0.89536  0.38544  0.33229  1.0000 -0.5114833788
O   O32       1.0  0.61456  0.10464  0.83229  1.0000 -0.5114833788
