# DDEC6 charges by PACMAN v1.1 (https://github.com/mtap-research/PACMAN-charge/)
data_0000[Gd][flu]3[ASR]1
_chemical_formula_sum              "Gd2 H14 C26 N4 O12"
_cell_length_a       9.1283
_cell_length_b       9.6603
_cell_length_c       11.5482
_cell_angle_alpha    106.829
_cell_angle_beta     93.772
_cell_angle_gamma    108.027

_symmetry_space_group_name_H-M    "P 1"
_symmetry_Int_Tables_number       1

loop_
  _symmetry_equiv_pos_as_xyz
  'x, y, z'

loop_
  _atom_site_type_symbol
  _atom_site_label
  _atom_site_symmetry_multiplicity
  _atom_site_fract_x
  _atom_site_fract_y
  _atom_site_fract_z
  _atom_site_occupancy
  _atom_site_charge
Gd  Gd1       1.0  0.27849  0.52876  0.99084  1.0000 2.0362314036
Gd  Gd2       1.0  0.72151  0.47124  0.00916  1.0000 2.0323747447
H   H1        1.0  0.96800  0.40969  0.57615  1.0000 0.1181169836
H   H2        1.0  0.03200  0.59031  0.42385  1.0000 0.1181169836
H   H3        1.0  0.88496  0.28414  0.36760  1.0000 0.1283231353
H   H4        1.0  0.11504  0.71586  0.63240  1.0000 0.1283231353
H   H5        1.0  0.35348  0.94819  0.03456  1.0000 0.1672723493
H   H6        1.0  0.64652  0.05181  0.96544  1.0000 0.1672723493
H   H7        1.0  0.88919  0.95471  0.19980  1.0000 0.1385153508
H   H8        1.0  0.11081  0.04529  0.80020  1.0000 0.1385153508
H   H9        1.0  0.89797  0.11304  0.17746  1.0000 0.1385153508
H   H10       1.0  0.10203  0.88696  0.82254  1.0000 0.1385153508
H   H11       1.0  0.26231  0.17426  0.57760  1.0000 0.1181169836
H   H12       1.0  0.73769  0.82574  0.42240  1.0000 0.1181169836
H   H13       1.0  0.16655  0.03569  0.37113  1.0000 0.1181169836
H   H14       1.0  0.83345  0.96431  0.62887  1.0000 0.1181169836
C   C1        1.0  0.01100  0.33500  0.53440  1.0000 -0.0992214369
C   C2        1.0  0.98900  0.66500  0.46560  1.0000 -0.0992214369
C   C3        1.0  0.96000  0.25900  0.41070  1.0000 -0.1558361898
C   C4        1.0  0.04000  0.74100  0.58930  1.0000 -0.1558361898
C   C5        1.0  0.44450  0.27540  0.07700  1.0000 0.6176384738
C   C6        1.0  0.55550  0.72460  0.92300  1.0000 0.6176384738
C   C7        1.0  0.05350  0.77170  0.07370  1.0000 0.6419501355
C   C8        1.0  0.94650  0.22830  0.92630  1.0000 0.6419501355
C   C9        1.0  0.12200  0.30400  0.59840  1.0000 -0.0198117203
C   C10       1.0  0.87800  0.69600  0.40160  1.0000 -0.0198117203
C   C11       1.0  0.31180  0.15480  0.09960  1.0000 0.0530304661
C   C12       1.0  0.68820  0.84520  0.90040  1.0000 0.0530304661
C   C13       1.0  0.28640  0.00080  0.06960  1.0000 -0.2328215936
C   C14       1.0  0.71360  0.99920  0.93040  1.0000 -0.2328215936
C   C15       1.0  0.14680  0.93890  0.09990  1.0000 -0.010207669
C   C16       1.0  0.85320  0.06110  0.90010  1.0000 -0.010207669
C   C17       1.0  0.95890  0.06110  0.21210  1.0000 -0.1976408163
C   C18       1.0  0.04110  0.93890  0.78790  1.0000 -0.1976408163
C   C19       1.0  0.01510  0.14670  0.34850  1.0000 0.1181169836
C   C20       1.0  0.98490  0.85330  0.65150  1.0000 0.1181169836
C   C21       1.0  0.18950  0.39960  0.73080  1.0000 0.5686599662
C   C22       1.0  0.81050  0.60040  0.26920  1.0000 0.5686599662
C   C23       1.0  0.18200  0.19420  0.53540  1.0000 -0.0992214369
C   C24       1.0  0.81800  0.80580  0.46460  1.0000 -0.0992214369
C   C25       1.0  0.12800  0.11400  0.41240  1.0000 -0.1543700347
C   C26       1.0  0.87200  0.88600  0.58760  1.0000 -0.1543700347
N   N1        1.0  0.09200  0.05640  0.14720  1.0000 0.1672723493
N   N2        1.0  0.90800  0.94360  0.85280  1.0000 0.1672723493
N   N3        1.0  0.19020  0.19070  0.14570  1.0000 -0.2456800143
N   N4        1.0  0.80980  0.80930  0.85430  1.0000 -0.2456800143
O   O1        1.0  0.13090  0.68140  0.04330  1.0000 -0.7190147588
O   O2        1.0  0.86910  0.31860  0.95670  1.0000 -0.7190147588
O   O3        1.0  0.42280  0.38980  0.05130  1.0000 -0.7412369201
O   O4        1.0  0.57720  0.61020  0.94870  1.0000 -0.7412369201
O   O5        1.0  0.11900  0.48610  0.78940  1.0000 -0.6281744191
O   O6        1.0  0.88100  0.51390  0.21060  1.0000 -0.6281744191
O   O7        1.0  0.91120  0.73140  0.07950  1.0000 -0.6281744191
O   O8        1.0  0.08880  0.26860  0.92050  1.0000 -0.6281744191
O   O9        1.0  0.30400  0.38300  0.78540  1.0000 -0.610972161
O   O10       1.0  0.69600  0.61700  0.21460  1.0000 -0.610972161
O   O11       1.0  0.57290  0.25620  0.08060  1.0000 -0.5855649958
O   O12       1.0  0.42710  0.74380  0.91940  1.0000 -0.5855649958
