# DDEC6 charges by PACMAN v1.1 (https://github.com/mtap-research/PACMAN-charge/)
data_0000[Tb][nan]3[ASR]5
_chemical_formula_sum              "Tb8 H56 C120 O48"
_cell_length_a       12.6804
_cell_length_b       13.844
_cell_length_c       27.8972
_cell_angle_alpha    75.4959
_cell_angle_beta     80.4582
_cell_angle_gamma    85.544

_symmetry_space_group_name_H-M    "P 1"
_symmetry_Int_Tables_number       1

loop_
  _symmetry_equiv_pos_as_xyz
  'x, y, z'

loop_
  _atom_site_type_symbol
  _atom_site_label
  _atom_site_symmetry_multiplicity
  _atom_site_fract_x
  _atom_site_fract_y
  _atom_site_fract_z
  _atom_site_occupancy
  _atom_site_charge
Tb  Tb1       1.0  0.96400  0.62607  0.93992  1.0000 2.0812023948
Tb  Tb2       1.0  0.03600  0.37393  0.06008  1.0000 2.0812023948
Tb  Tb3       1.0  0.87844  0.52138  0.55197  1.0000 2.0547157
Tb  Tb4       1.0  0.12156  0.47862  0.44803  1.0000 2.0547157
Tb  Tb5       1.0  0.53601  0.96233  0.58547  1.0000 2.0686839293
Tb  Tb6       1.0  0.46399  0.03767  0.41453  1.0000 2.0633810233
Tb  Tb7       1.0  0.51085  0.97805  0.91347  1.0000 2.0812023948
Tb  Tb8       1.0  0.48915  0.02195  0.08653  1.0000 2.0812023948
H   H1        1.0  0.26270  0.26280  0.94250  1.0000 0.1305760392
H   H2        1.0  0.73730  0.73720  0.05750  1.0000 0.1305760392
H   H3        1.0  0.23970  0.52780  0.84340  1.0000 0.1178648919
H   H4        1.0  0.76030  0.47220  0.15660  1.0000 0.1178648919
H   H5        1.0  0.97310  0.23900  0.65480  1.0000 0.1178648919
H   H6        1.0  0.02690  0.76100  0.34520  1.0000 0.1178648919
H   H7        1.0  0.44710  0.31410  0.80780  1.0000 0.1108688887
H   H8        1.0  0.55290  0.68590  0.19220  1.0000 0.1108688887
H   H9        1.0  0.93880  0.40550  0.80870  1.0000 0.1108688887
H   H10       1.0  0.06120  0.59450  0.19130  1.0000 0.1108688887
H   H11       1.0  0.25380  0.22870  0.56560  1.0000 0.1305760392
H   H12       1.0  0.74620  0.77130  0.43440  1.0000 0.1305760392
H   H13       1.0  0.49290  0.51680  0.65280  1.0000 0.1178648919
H   H14       1.0  0.50710  0.48320  0.34720  1.0000 0.1178648919
H   H15       1.0  0.38320  0.62670  0.79750  1.0000 0.1108688887
H   H16       1.0  0.61680  0.37330  0.20250  1.0000 0.1108688887
H   H17       1.0  0.74600  0.22820  0.01150  1.0000 0.1305760392
H   H18       1.0  0.25400  0.77180  0.98850  1.0000 0.1305760392
H   H19       1.0  0.64230  0.32540  0.80740  1.0000 0.1108688887
H   H20       1.0  0.35770  0.67460  0.19260  1.0000 0.1108688887
H   H21       1.0  0.45230  0.73720  0.72500  1.0000 0.1178648919
H   H22       1.0  0.54770  0.26280  0.27500  1.0000 0.1178648919
H   H23       1.0  0.92500  0.19890  0.74490  1.0000 0.1043707277
H   H24       1.0  0.07500  0.80110  0.25510  1.0000 0.1043707277
H   H25       1.0  0.86180  0.42780  0.88610  1.0000 0.1305760392
H   H26       1.0  0.13820  0.57220  0.11390  1.0000 0.1305760392
H   H27       1.0  0.79420  0.12380  0.80830  1.0000 0.1108688887
H   H28       1.0  0.20580  0.87620  0.19170  1.0000 0.1108688887
H   H29       1.0  0.67680  0.20880  0.87880  1.0000 0.1178648919
H   H30       1.0  0.32320  0.79120  0.12120  1.0000 0.1178648919
H   H31       1.0  0.66760  0.37580  0.72100  1.0000 0.1178648919
H   H32       1.0  0.33240  0.62420  0.27900  1.0000 0.1178648919
H   H33       1.0  0.19010  0.01720  0.69340  1.0000 0.1108688887
H   H34       1.0  0.80990  0.98280  0.30660  1.0000 0.1108688887
H   H35       1.0  0.96260  0.45770  0.72230  1.0000 0.1108688887
H   H36       1.0  0.03740  0.54230  0.27770  1.0000 0.1108688887
H   H37       1.0  0.42380  0.40450  0.72590  1.0000 0.1108688887
H   H38       1.0  0.57620  0.59550  0.27410  1.0000 0.1108688887
H   H39       1.0  0.90360  0.85500  0.78840  1.0000 0.1108688887
H   H40       1.0  0.09640  0.14500  0.21160  1.0000 0.1108688887
H   H41       1.0  0.03360  0.93000  0.72440  1.0000 0.1108688887
H   H42       1.0  0.96640  0.07000  0.27560  1.0000 0.1108688887
H   H43       1.0  0.27090  0.83480  0.61630  1.0000 0.1178648919
H   H44       1.0  0.72910  0.16520  0.38370  1.0000 0.1178648919
H   H45       1.0  0.93870  0.61780  0.76570  1.0000 0.1178648919
H   H46       1.0  0.06130  0.38220  0.23430  1.0000 0.1108688887
H   H47       1.0  0.08500  0.61580  0.61080  1.0000 0.1305760392
H   H48       1.0  0.91500  0.38420  0.38920  1.0000 0.1305760392
H   H49       1.0  0.27800  0.75470  0.48700  1.0000 0.135199375
H   H50       1.0  0.72200  0.24530  0.51300  1.0000 0.1305760392
H   H51       1.0  0.25150  0.77780  0.69330  1.0000 0.1108688887
H   H52       1.0  0.74850  0.22220  0.30670  1.0000 0.1108688887
H   H53       1.0  0.99640  0.63960  0.68080  1.0000 0.1108688887
H   H54       1.0  0.00360  0.36040  0.31920  1.0000 0.1108688887
H   H55       1.0  0.19050  0.76220  0.77780  1.0000 0.1178648919
H   H56       1.0  0.80950  0.23780  0.22220  1.0000 0.1178648919
C   C1        1.0  0.28370  0.30474  0.91116  1.0000 -0.0996897122
C   C2        1.0  0.71630  0.69526  0.08884  1.0000 -0.0996897122
C   C3        1.0  0.27100  0.46405  0.85175  1.0000 -0.1492226194
C   C4        1.0  0.72900  0.53595  0.14825  1.0000 -0.1405815362
C   C5        1.0  0.03920  0.20721  0.64799  1.0000 -0.1405815362
C   C6        1.0  0.96080  0.79279  0.35201  1.0000 -0.1405815362
C   C7        1.0  0.39500  0.33642  0.83068  1.0000 -0.1492226194
C   C8        1.0  0.60500  0.66358  0.16932  1.0000 -0.1492226194
C   C9        1.0  0.88390  0.39945  0.79135  1.0000 -0.1492226194
C   C10       1.0  0.11610  0.60055  0.20865  1.0000 -0.1492226194
C   C11       1.0  0.41390  0.17063  0.89077  1.0000 0.5680134367
C   C12       1.0  0.58610  0.82937  0.10923  1.0000 0.5680134367
C   C13       1.0  0.81940  0.42157  0.71273  1.0000 -0.0210416451
C   C14       1.0  0.18060  0.57843  0.28727  1.0000 -0.0210416451
C   C15       1.0  0.20760  0.20180  0.59470  1.0000 -0.0996897122
C   C16       1.0  0.79240  0.79820  0.40530  1.0000 -0.0996897122
C   C17       1.0  0.83480  0.45853  0.65697  1.0000 0.5637750696
C   C18       1.0  0.16520  0.54147  0.34303  1.0000 0.5637750696
C   C19       1.0  0.47050  0.53900  0.68180  1.0000 -0.093403107
C   C20       1.0  0.52950  0.46100  0.31820  1.0000 -0.093403107
C   C21       1.0  0.23930  0.11692  0.62818  1.0000 -0.0097704373
C   C22       1.0  0.76070  0.88308  0.37182  1.0000 -0.0097704373
C   C23       1.0  0.40480  0.60440  0.76850  1.0000 -0.1577875569
C   C24       1.0  0.59520  0.39560  0.23150  1.0000 -0.1577875569
C   C25       1.0  0.75180  0.25262  0.97698  1.0000 -0.0996897122
C   C26       1.0  0.24820  0.74738  0.02302  1.0000 -0.0996897122
C   C27       1.0  0.36210  0.27162  0.87728  1.0000 -0.0210416451
C   C28       1.0  0.63790  0.72838  0.12272  1.0000 -0.0210416451
C   C29       1.0  0.39520  0.50388  0.76952  1.0000 0.068573426
C   C30       1.0  0.60480  0.49612  0.23048  1.0000 0.068573426
C   C31       1.0  0.99090  0.07217  0.72683  1.0000 0.068573426
C   C32       1.0  0.00910  0.92783  0.27317  1.0000 0.068573426
C   C33       1.0  0.70720  0.35154  0.79036  1.0000 -0.1492226194
C   C34       1.0  0.29280  0.64846  0.20964  1.0000 -0.1492226194
C   C35       1.0  0.69880  0.20691  0.94939  1.0000 -0.0279252636
C   C36       1.0  0.30120  0.79309  0.05061  1.0000 -0.0279252636
C   C37       1.0  0.06870  0.12042  0.68188  1.0000 0.0617409791
C   C38       1.0  0.93130  0.87958  0.31812  1.0000 0.0617409791
C   C39       1.0  0.23600  0.39999  0.89881  1.0000 -0.0279252636
C   C40       1.0  0.76400  0.60001  0.10119  1.0000 -0.0210416451
C   C41       1.0  0.44620  0.67070  0.72490  1.0000 -0.0996897122
C   C42       1.0  0.55380  0.32930  0.27510  1.0000 -0.0996897122
C   C43       1.0  0.91980  0.12990  0.75300  1.0000 -0.1577875569
C   C44       1.0  0.08020  0.87010  0.24700  1.0000 -0.1577875569
C   C45       1.0  0.82250  0.37147  0.90163  1.0000 -0.1492226194
C   C46       1.0  0.17750  0.62853  0.09837  1.0000 -0.1492226194
C   C47       1.0  0.47900  0.63988  0.68062  1.0000 -0.0279252636
C   C48       1.0  0.52100  0.36012  0.31938  1.0000 -0.0279252636
C   C49       1.0  0.35170  0.43340  0.81760  1.0000 0.0519896872
C   C50       1.0  0.64830  0.56660  0.18240  1.0000 0.0519896872
C   C51       1.0  0.84130  0.08485  0.79105  1.0000 -0.093403107
C   C52       1.0  0.15870  0.91515  0.20895  1.0000 -0.093403107
C   C53       1.0  0.77270  0.32393  0.87297  1.0000 0.0617409791
C   C54       1.0  0.22730  0.67607  0.12703  1.0000 0.0617409791
C   C55       1.0  0.71030  0.24098  0.89732  1.0000 -0.1405815362
C   C56       1.0  0.28970  0.75902  0.10268  1.0000 -0.1405815362
C   C57       1.0  0.10810  0.24672  0.60408  1.0000 -0.0210416451
C   C58       1.0  0.89190  0.75328  0.39592  1.0000 -0.0210416451
C   C59       1.0  0.72210  0.38180  0.73860  1.0000 -0.093403107
C   C60       1.0  0.27790  0.61820  0.26140  1.0000 -0.093403107
C   C61       1.0  0.16940  0.07537  0.67143  1.0000 -0.1492226194
C   C62       1.0  0.83060  0.92463  0.32857  1.0000 -0.1492226194
C   C63       1.0  0.83250  0.98097  0.80373  1.0000 -0.0097704373
C   C64       1.0  0.16750  0.01903  0.19627  1.0000 -0.0097704373
C   C65       1.0  0.89820  0.43045  0.73935  1.0000 -0.0996897122
C   C66       1.0  0.10180  0.56955  0.26065  1.0000 -0.0996897122
C   C67       1.0  0.42900  0.47120  0.72580  1.0000 -0.1577875569
C   C68       1.0  0.57100  0.52880  0.27420  1.0000 -0.1577875569
C   C69       1.0  0.78770  0.35935  0.81755  1.0000 0.068573426
C   C70       1.0  0.21230  0.64065  0.18245  1.0000 0.068573426
C   C71       1.0  0.74080  0.93199  0.84151  1.0000 0.600104637
C   C72       1.0  0.25920  0.06801  0.15849  1.0000 0.600104637
C   C73       1.0  0.90630  0.92420  0.77920  1.0000 -0.093403107
C   C74       1.0  0.09370  0.07580  0.22080  1.0000 -0.093403107
C   C75       1.0  0.98490  0.96920  0.74080  1.0000 -0.1492226194
C   C76       1.0  0.01510  0.03080  0.25920  1.0000 -0.1492226194
C   C77       1.0  0.15140  0.43512  0.93638  1.0000 0.6502995263
C   C78       1.0  0.84860  0.56488  0.06362  1.0000 0.6502995263
C   C79       1.0  0.07030  0.33531  0.56519  1.0000 0.6444266509
C   C80       1.0  0.92970  0.66469  0.43481  1.0000 0.6444266509
C   C81       1.0  0.63190  0.11987  0.97673  1.0000 0.6791949044
C   C82       1.0  0.36810  0.88013  0.02327  1.0000 0.6791949044
C   C83       1.0  0.02040  0.67112  0.83578  1.0000 0.5637750696
C   C84       1.0  0.97960  0.32888  0.16422  1.0000 0.5637750696
C   C85       1.0  0.24610  0.79501  0.59849  1.0000 -0.1405815362
C   C86       1.0  0.75390  0.20499  0.40151  1.0000 -0.1349092279
C   C87       1.0  0.05830  0.68625  0.78065  1.0000 -0.0210416451
C   C88       1.0  0.94170  0.31375  0.21935  1.0000 -0.0210416451
C   C89       1.0  0.34730  0.06674  0.61726  1.0000 0.5680134367
C   C90       1.0  0.65270  0.93326  0.38274  1.0000 0.5680134367
C   C91       1.0  0.87410  0.38048  0.98332  1.0000 0.6502995263
C   C92       1.0  0.12590  0.61952  0.01668  1.0000 0.6502995263
C   C93       1.0  0.00160  0.65088  0.75122  1.0000 -0.0996897122
C   C94       1.0  0.99840  0.34912  0.24878  1.0000 -0.0996897122
C   C95       1.0  0.17690  0.67437  0.54453  1.0000 -0.0210416451
C   C96       1.0  0.82310  0.32563  0.45547  1.0000 -0.0210416451
C   C97       1.0  0.28410  0.80796  0.54764  1.0000 -0.0210416451
C   C98       1.0  0.71590  0.19204  0.45236  1.0000 -0.0210416451
C   C99       1.0  0.13600  0.66318  0.59532  1.0000 -0.1492226194
C   C100      1.0  0.86400  0.33682  0.40468  1.0000 -0.1492226194
C   C101      1.0  0.51980  0.71461  0.63349  1.0000 0.5931277047
C   C102      1.0  0.48020  0.28539  0.36651  1.0000 0.5931277047
C   C103      1.0  0.14320  0.60966  0.51474  1.0000 0.6293301653
C   C104      1.0  0.85680  0.39034  0.48526  1.0000 0.6293301653
C   C105      1.0  0.17090  0.72262  0.62328  1.0000 0.0775906328
C   C106      1.0  0.82910  0.27738  0.37672  1.0000 0.0775906328
C   C107      1.0  0.25080  0.74701  0.52079  1.0000 -0.0996897122
C   C108      1.0  0.74920  0.25299  0.47921  1.0000 -0.0996897122
C   C109      1.0  0.18770  0.74642  0.70758  1.0000 -0.1492226194
C   C110      1.0  0.81230  0.25358  0.29242  1.0000 -0.1492226194
C   C111      1.0  0.81330  0.33431  0.95339  1.0000 -0.0279252636
C   C112      1.0  0.18670  0.66569  0.04661  1.0000 -0.0279252636
C   C113      1.0  0.03650  0.66346  0.70014  1.0000 -0.1492226194
C   C114      1.0  0.96350  0.33654  0.29986  1.0000 -0.1492226194
C   C115      1.0  0.15200  0.73602  0.75868  1.0000 -0.0996897122
C   C116      1.0  0.84800  0.26398  0.24132  1.0000 -0.0996897122
C   C117      1.0  0.13090  0.71148  0.67782  1.0000 0.068573426
C   C118      1.0  0.86910  0.28852  0.32218  1.0000 0.068573426
C   C119      1.0  0.35770  0.89116  0.52144  1.0000 0.6687380146
C   C120      1.0  0.64230  0.10884  0.47856  1.0000 0.6687380146
O   O1        1.0  0.48540  0.14211  0.85909  1.0000 -0.6493045766
O   O2        1.0  0.51460  0.85789  0.14091  1.0000 -0.6493045766
O   O3        1.0  0.38530  0.11371  0.93329  1.0000 -0.6208964814
O   O4        1.0  0.61470  0.88629  0.06671  1.0000 -0.6208964814
O   O5        1.0  0.77510  0.42974  0.63196  1.0000 -0.6086800922
O   O6        1.0  0.22490  0.57026  0.36804  1.0000 -0.6086800922
O   O7        1.0  0.91010  0.51722  0.63638  1.0000 -0.6493045766
O   O8        1.0  0.08990  0.48278  0.36362  1.0000 -0.6493045766
O   O9        1.0  0.89660  0.32499  0.02441  1.0000 -0.6493045766
O   O10       1.0  0.10340  0.67501  0.97559  1.0000 -0.6493045766
O   O11       1.0  0.97880  0.37328  0.57742  1.0000 -0.6615618248
O   O12       1.0  0.02120  0.62672  0.42258  1.0000 -0.6615618248
O   O13       1.0  0.41180  0.10740  0.57930  1.0000 -0.6208964814
O   O14       1.0  0.58820  0.89260  0.42070  1.0000 -0.6208964814
O   O15       1.0  0.39660  0.93628  0.54742  1.0000 -0.6826935191
O   O16       1.0  0.60340  0.06372  0.45258  1.0000 -0.6826935191
O   O17       1.0  0.05970  0.71974  0.86086  1.0000 -0.6293087531
O   O18       1.0  0.94030  0.28026  0.13914  1.0000 -0.6293087531
O   O19       1.0  0.11080  0.52201  0.92219  1.0000 -0.6615618248
O   O20       1.0  0.88920  0.47799  0.07781  1.0000 -0.6615618248
O   O21       1.0  0.20680  0.59828  0.47632  1.0000 -0.6086800922
O   O22       1.0  0.79320  0.40172  0.52368  1.0000 -0.6086800922
O   O23       1.0  0.12510  0.37567  0.97773  1.0000 -0.6675340463
O   O24       1.0  0.87490  0.62433  0.02227  1.0000 -0.6675340463
O   O25       1.0  0.05530  0.56607  0.52823  1.0000 -0.7434872914
O   O26       1.0  0.94470  0.43393  0.47177  1.0000 -0.7434872914
O   O27       1.0  0.90100  0.46887  0.96663  1.0000 -0.710484289
O   O28       1.0  0.09900  0.53113  0.03337  1.0000 -0.710484289
O   O29       1.0  0.13300  0.36513  0.52597  1.0000 -0.6493045766
O   O30       1.0  0.86700  0.63487  0.47403  1.0000 -0.6493045766
O   O31       1.0  0.51690  0.80500  0.63620  1.0000 -0.7199543943
O   O32       1.0  0.48310  0.19500  0.36380  1.0000 -0.7199543943
O   O33       1.0  0.37470  0.91141  0.47419  1.0000 -0.6826935191
O   O34       1.0  0.62530  0.08859  0.52581  1.0000 -0.6826935191
O   O35       1.0  0.59740  0.06834  0.95176  1.0000 -0.692953818
O   O36       1.0  0.40260  0.93166  0.04824  1.0000 -0.692953818
O   O37       1.0  0.67010  0.99026  0.85854  1.0000 -0.710484289
O   O38       1.0  0.32990  0.00974  0.14146  1.0000 -0.710484289
O   O39       1.0  0.37100  0.98392  0.64518  1.0000 -0.6293087531
O   O40       1.0  0.62900  0.01608  0.35482  1.0000 -0.6293087531
O   O41       1.0  0.61430  0.10457  0.02373  1.0000 -0.6973685552
O   O42       1.0  0.38570  0.89543  0.97627  1.0000 -0.6973685552
O   O43       1.0  0.73700  0.83865  0.85225  1.0000 -0.5387656171
O   O44       1.0  0.26300  0.16135  0.14775  1.0000 -0.5387656171
O   O45       1.0  0.55270  0.68569  0.59431  1.0000 -0.5387656171
O   O46       1.0  0.44730  0.31431  0.40569  1.0000 -0.5387656171
O   O47       1.0  0.94930  0.60872  0.85658  1.0000 -0.6388039519
O   O48       1.0  0.05070  0.39128  0.14342  1.0000 -0.6388039519
