# DDEC6 charges by PACMAN v1.1 (https://github.com/mtap-research/PACMAN-charge/)
data_0000[Co][sit]3[ASR]1
_chemical_formula_sum              "Co12 H120 C216 O52"
_cell_length_a       17.564
_cell_length_b       20.8
_cell_length_c       25.629
_cell_angle_alpha    90
_cell_angle_beta     90
_cell_angle_gamma    90

_symmetry_space_group_name_H-M    "P 1"
_symmetry_Int_Tables_number       1

loop_
  _symmetry_equiv_pos_as_xyz
  'x, y, z'

loop_
  _atom_site_type_symbol
  _atom_site_label
  _atom_site_symmetry_multiplicity
  _atom_site_fract_x
  _atom_site_fract_y
  _atom_site_fract_z
  _atom_site_occupancy
  _atom_site_charge
Co  Co1       1.0  0.00311  0.43835  0.18198  1.0000 1.0507269085
Co  Co2       1.0  0.49689  0.93835  0.81802  1.0000 1.0507269085
Co  Co3       1.0  0.00311  0.43835  0.31802  1.0000 1.0507269085
Co  Co4       1.0  0.49689  0.93835  0.68198  1.0000 1.0507269085
Co  Co5       1.0  0.11362  0.33774  0.25000  1.0000 1.0711441816
Co  Co6       1.0  0.38638  0.83774  0.75000  1.0000 1.0711441816
Co  Co7       1.0  0.99689  0.56165  0.68198  1.0000 1.0507269085
Co  Co8       1.0  0.50311  0.06165  0.31802  1.0000 1.0507269085
Co  Co9       1.0  0.99689  0.56165  0.81802  1.0000 1.0507269085
Co  Co10      1.0  0.50311  0.06165  0.18198  1.0000 1.0507269085
Co  Co11      1.0  0.88638  0.66226  0.75000  1.0000 1.0711441816
Co  Co12      1.0  0.61362  0.16226  0.25000  1.0000 1.0711441816
H   H1        1.0  0.74520  0.46910  0.18930  1.0000 0.1295795099
H   H2        1.0  0.75480  0.96910  0.81070  1.0000 0.1295795099
H   H3        1.0  0.74520  0.46910  0.31070  1.0000 0.1295795099
H   H4        1.0  0.75480  0.96910  0.68930  1.0000 0.1295795099
H   H5        1.0  0.62600  0.50200  0.16420  1.0000 0.1179954521
H   H6        1.0  0.87400  0.00200  0.83580  1.0000 0.1179954521
H   H7        1.0  0.62600  0.50200  0.33580  1.0000 0.1179954521
H   H8        1.0  0.87400  0.00200  0.66420  1.0000 0.1179954521
H   H9        1.0  0.71210  0.53970  0.02320  1.0000 0.1114899768
H   H10       1.0  0.78790  0.03970  0.97680  1.0000 0.1114899768
H   H11       1.0  0.71210  0.53970  0.47680  1.0000 0.1114899768
H   H12       1.0  0.78790  0.03970  0.52320  1.0000 0.1114899768
H   H13       1.0  0.83040  0.50410  0.05600  1.0000 0.1295795099
H   H14       1.0  0.66960  0.00410  0.94400  1.0000 0.1295795099
H   H15       1.0  0.83040  0.50410  0.44400  1.0000 0.1295795099
H   H16       1.0  0.66960  0.00410  0.55600  1.0000 0.1295795099
H   H17       1.0  0.18920  0.53670  0.10990  1.0000 0.1295795099
H   H18       1.0  0.31080  0.03670  0.89010  1.0000 0.1295795099
H   H19       1.0  0.18920  0.53670  0.39010  1.0000 0.1295795099
H   H20       1.0  0.31080  0.03670  0.60990  1.0000 0.1295795099
H   H21       1.0  0.30120  0.58500  0.07790  1.0000 0.1179954521
H   H22       1.0  0.19880  0.08500  0.92210  1.0000 0.1179954521
H   H23       1.0  0.30120  0.58500  0.42210  1.0000 0.1179954521
H   H24       1.0  0.19880  0.08500  0.57790  1.0000 0.1179954521
H   H25       1.0  0.41570  0.42770  0.12200  1.0000 0.1179954521
H   H26       1.0  0.08430  0.92770  0.87800  1.0000 0.1179954521
H   H27       1.0  0.41570  0.42770  0.37800  1.0000 0.1179954521
H   H28       1.0  0.08430  0.92770  0.62200  1.0000 0.1179954521
H   H29       1.0  0.30530  0.38600  0.15810  1.0000 0.1295795099
H   H30       1.0  0.19470  0.88600  0.84190  1.0000 0.1295795099
H   H31       1.0  0.30530  0.38600  0.34190  1.0000 0.1295795099
H   H32       1.0  0.19470  0.88600  0.65810  1.0000 0.1295795099
H   H33       1.0  0.57140  0.79040  0.92690  1.0000 0.1295795099
H   H34       1.0  0.92860  0.29040  0.07310  1.0000 0.1295795099
H   H35       1.0  0.57140  0.79040  0.57310  1.0000 0.1295795099
H   H36       1.0  0.92860  0.29040  0.42690  1.0000 0.1295795099
H   H37       1.0  0.57990  0.71800  0.99150  1.0000 0.1179954521
H   H38       1.0  0.92010  0.21800  0.00850  1.0000 0.1179954521
H   H39       1.0  0.57990  0.71800  0.50850  1.0000 0.1179954521
H   H40       1.0  0.92010  0.21800  0.49150  1.0000 0.1179954521
H   H41       1.0  0.41090  0.61250  0.92390  1.0000 0.1114899768
H   H42       1.0  0.08910  0.11250  0.07610  1.0000 0.1114899768
H   H43       1.0  0.41090  0.61250  0.57610  1.0000 0.1114899768
H   H44       1.0  0.08910  0.11250  0.42390  1.0000 0.1114899768
H   H45       1.0  0.40330  0.68920  0.86140  1.0000 0.1179954521
H   H46       1.0  0.09670  0.18920  0.13860  1.0000 0.1179954521
H   H47       1.0  0.40330  0.68920  0.63860  1.0000 0.1179954521
H   H48       1.0  0.09670  0.18920  0.36140  1.0000 0.1179954521
H   H49       1.0  0.51750  0.49060  0.11730  1.0000 0.1114899768
H   H50       1.0  0.98250  0.99060  0.88270  1.0000 0.1114899768
H   H51       1.0  0.51750  0.49060  0.38270  1.0000 0.1114899768
H   H52       1.0  0.98250  0.99060  0.61730  1.0000 0.1114899768
H   H53       1.0  0.38970  0.58740  0.01720  1.0000 0.1114899768
H   H54       1.0  0.11030  0.08740  0.98280  1.0000 0.1114899768
H   H55       1.0  0.38970  0.58740  0.48280  1.0000 0.1114899768
H   H56       1.0  0.11030  0.08740  0.51720  1.0000 0.1114899768
H   H57       1.0  0.61760  0.60450  0.01620  1.0000 0.1179954521
H   H58       1.0  0.88240  0.10450  0.98380  1.0000 0.1179954521
H   H59       1.0  0.61760  0.60450  0.48380  1.0000 0.1179954521
H   H60       1.0  0.88240  0.10450  0.51620  1.0000 0.1179954521
H   H61       1.0  0.25480  0.53090  0.68930  1.0000 0.1295795099
H   H62       1.0  0.24520  0.03090  0.31070  1.0000 0.1295795099
H   H63       1.0  0.25480  0.53090  0.81070  1.0000 0.1295795099
H   H64       1.0  0.24520  0.03090  0.18930  1.0000 0.1295795099
H   H65       1.0  0.37400  0.49800  0.66420  1.0000 0.1179954521
H   H66       1.0  0.12600  0.99800  0.33580  1.0000 0.1179954521
H   H67       1.0  0.37400  0.49800  0.83580  1.0000 0.1179954521
H   H68       1.0  0.12600  0.99800  0.16420  1.0000 0.1179954521
H   H69       1.0  0.28790  0.46030  0.52320  1.0000 0.1114899768
H   H70       1.0  0.21210  0.96030  0.47680  1.0000 0.1114899768
H   H71       1.0  0.28790  0.46030  0.97680  1.0000 0.1114899768
H   H72       1.0  0.21210  0.96030  0.02320  1.0000 0.1114899768
H   H73       1.0  0.16960  0.49590  0.55600  1.0000 0.1295795099
H   H74       1.0  0.33040  0.99590  0.44400  1.0000 0.1295795099
H   H75       1.0  0.16960  0.49590  0.94400  1.0000 0.1295795099
H   H76       1.0  0.33040  0.99590  0.05600  1.0000 0.1295795099
H   H77       1.0  0.81080  0.46330  0.60990  1.0000 0.1295795099
H   H78       1.0  0.68920  0.96330  0.39010  1.0000 0.1295795099
H   H79       1.0  0.81080  0.46330  0.89010  1.0000 0.1295795099
H   H80       1.0  0.68920  0.96330  0.10990  1.0000 0.1295795099
H   H81       1.0  0.69880  0.41500  0.57790  1.0000 0.1179954521
H   H82       1.0  0.80120  0.91500  0.42210  1.0000 0.1179954521
H   H83       1.0  0.69880  0.41500  0.92210  1.0000 0.1179954521
H   H84       1.0  0.80120  0.91500  0.07790  1.0000 0.1179954521
H   H85       1.0  0.58430  0.57230  0.62200  1.0000 0.1179954521
H   H86       1.0  0.91570  0.07230  0.37800  1.0000 0.1179954521
H   H87       1.0  0.58430  0.57230  0.87800  1.0000 0.1179954521
H   H88       1.0  0.91570  0.07230  0.12200  1.0000 0.1179954521
H   H89       1.0  0.69470  0.61400  0.65810  1.0000 0.1295795099
H   H90       1.0  0.80530  0.11400  0.34190  1.0000 0.1295795099
H   H91       1.0  0.69470  0.61400  0.84190  1.0000 0.1295795099
H   H92       1.0  0.80530  0.11400  0.15810  1.0000 0.1295795099
H   H93       1.0  0.42860  0.20960  0.42690  1.0000 0.1295795099
H   H94       1.0  0.07140  0.70960  0.57310  1.0000 0.1295795099
H   H95       1.0  0.42860  0.20960  0.07310  1.0000 0.1295795099
H   H96       1.0  0.07140  0.70960  0.92690  1.0000 0.1295795099
H   H97       1.0  0.42010  0.28200  0.49150  1.0000 0.1179954521
H   H98       1.0  0.07990  0.78200  0.50850  1.0000 0.1179954521
H   H99       1.0  0.42010  0.28200  0.00850  1.0000 0.1179954521
H   H100      1.0  0.07990  0.78200  0.99150  1.0000 0.1179954521
H   H101      1.0  0.58910  0.38750  0.42390  1.0000 0.1114899768
H   H102      1.0  0.91090  0.88750  0.57610  1.0000 0.1114899768
H   H103      1.0  0.58910  0.38750  0.07610  1.0000 0.1114899768
H   H104      1.0  0.91090  0.88750  0.92390  1.0000 0.1114899768
H   H105      1.0  0.59670  0.31080  0.36140  1.0000 0.1179954521
H   H106      1.0  0.90330  0.81080  0.63860  1.0000 0.1179954521
H   H107      1.0  0.59670  0.31080  0.13860  1.0000 0.1179954521
H   H108      1.0  0.90330  0.81080  0.86140  1.0000 0.1179954521
H   H109      1.0  0.48250  0.50940  0.61730  1.0000 0.1114899768
H   H110      1.0  0.01750  0.00940  0.38270  1.0000 0.1114899768
H   H111      1.0  0.48250  0.50940  0.88270  1.0000 0.1114899768
H   H112      1.0  0.01750  0.00940  0.11730  1.0000 0.1114899768
H   H113      1.0  0.61030  0.41260  0.51720  1.0000 0.1114899768
H   H114      1.0  0.88970  0.91260  0.48280  1.0000 0.1114899768
H   H115      1.0  0.61030  0.41260  0.98280  1.0000 0.1114899768
H   H116      1.0  0.88970  0.91260  0.01720  1.0000 0.1114899768
H   H117      1.0  0.38240  0.39550  0.51620  1.0000 0.1179954521
H   H118      1.0  0.11760  0.89550  0.48380  1.0000 0.1179954521
H   H119      1.0  0.38240  0.39550  0.98380  1.0000 0.1179954521
H   H120      1.0  0.11760  0.89550  0.01620  1.0000 0.1179954521
C   C1        1.0  0.87970  0.47320  0.14860  1.0000 0.5067180277
C   C2        1.0  0.62030  0.97320  0.85140  1.0000 0.5067180277
C   C3        1.0  0.87970  0.47320  0.35140  1.0000 0.5067180277
C   C4        1.0  0.62030  0.97320  0.64860  1.0000 0.5067180277
C   C5        1.0  0.79920  0.49030  0.12770  1.0000 0.009132489
C   C6        1.0  0.70080  0.99030  0.87230  1.0000 0.009132489
C   C7        1.0  0.79920  0.49030  0.37230  1.0000 0.009132489
C   C8        1.0  0.70080  0.99030  0.62770  1.0000 0.009132489
C   C9        1.0  0.73940  0.48610  0.15600  1.0000 -0.1012307673
C   C10       1.0  0.76060  0.98610  0.84400  1.0000 -0.1012307673
C   C11       1.0  0.73940  0.48610  0.34400  1.0000 -0.1012307673
C   C12       1.0  0.76060  0.98610  0.65600  1.0000 -0.1012307673
C   C13       1.0  0.66680  0.50480  0.14120  1.0000 -0.152393568
C   C14       1.0  0.83320  0.00480  0.85880  1.0000 -0.152393568
C   C15       1.0  0.66680  0.50480  0.35880  1.0000 -0.152393568
C   C16       1.0  0.83320  0.00480  0.64120  1.0000 -0.152393568
C   C17       1.0  0.65760  0.52730  0.09210  1.0000 0.0693544157
C   C18       1.0  0.84240  0.02730  0.90790  1.0000 0.0693544157
C   C19       1.0  0.65760  0.52730  0.40790  1.0000 0.0693544157
C   C20       1.0  0.84240  0.02730  0.59210  1.0000 0.0693544157
C   C21       1.0  0.71760  0.52710  0.05780  1.0000 -0.1588723126
C   C22       1.0  0.78240  0.02710  0.94220  1.0000 -0.1588723126
C   C23       1.0  0.71760  0.52710  0.44220  1.0000 -0.1588723126
C   C24       1.0  0.78240  0.02710  0.55780  1.0000 -0.1588723126
C   C25       1.0  0.78890  0.50630  0.07850  1.0000 -0.1083883464
C   C26       1.0  0.71110  0.00630  0.92150  1.0000 -0.1083883464
C   C27       1.0  0.78890  0.50630  0.42150  1.0000 -0.1083883464
C   C28       1.0  0.71110  0.00630  0.57850  1.0000 -0.1083883464
C   C29       1.0  0.16870  0.42770  0.16970  1.0000 0.5741488517
C   C30       1.0  0.33130  0.92770  0.83030  1.0000 0.57522555
C   C31       1.0  0.16870  0.42770  0.33030  1.0000 0.5741488517
C   C32       1.0  0.33130  0.92770  0.66970  1.0000 0.57522555
C   C33       1.0  0.23800  0.46310  0.14120  1.0000 0.009132489
C   C34       1.0  0.26200  0.96310  0.85880  1.0000 0.009132489
C   C35       1.0  0.23800  0.46310  0.35880  1.0000 0.009132489
C   C36       1.0  0.26200  0.96310  0.64120  1.0000 0.009132489
C   C37       1.0  0.23580  0.51620  0.11470  1.0000 -0.0858056229
C   C38       1.0  0.26420  0.01620  0.88530  1.0000 -0.0858056229
C   C39       1.0  0.23580  0.51620  0.38530  1.0000 -0.0858056229
C   C40       1.0  0.26420  0.01620  0.61470  1.0000 -0.0858056229
C   C41       1.0  0.30250  0.54410  0.09260  1.0000 -0.152393568
C   C42       1.0  0.19750  0.04410  0.90740  1.0000 -0.152393568
C   C43       1.0  0.30250  0.54410  0.40740  1.0000 -0.152393568
C   C44       1.0  0.19750  0.04410  0.59260  1.0000 -0.152393568
C   C45       1.0  0.37030  0.50840  0.09380  1.0000 0.0693544157
C   C46       1.0  0.12970  0.00840  0.90620  1.0000 0.0693544157
C   C47       1.0  0.37030  0.50840  0.40620  1.0000 0.0693544157
C   C48       1.0  0.12970  0.00840  0.59380  1.0000 0.0693544157
C   C49       1.0  0.37060  0.45090  0.11960  1.0000 -0.152393568
C   C50       1.0  0.12940  0.95090  0.88040  1.0000 -0.152393568
C   C51       1.0  0.37060  0.45090  0.38040  1.0000 -0.152393568
C   C52       1.0  0.12940  0.95090  0.61960  1.0000 -0.152393568
C   C53       1.0  0.30490  0.42630  0.14230  1.0000 -0.1012307673
C   C54       1.0  0.19510  0.92630  0.85770  1.0000 -0.1012307673
C   C55       1.0  0.30490  0.42630  0.35770  1.0000 -0.1012307673
C   C56       1.0  0.19510  0.92630  0.64230  1.0000 -0.1012307673
C   C57       1.0  0.47570  0.79700  0.84670  1.0000 0.5956310015
C   C58       1.0  0.02430  0.29700  0.15330  1.0000 0.5956310015
C   C59       1.0  0.47570  0.79700  0.65330  1.0000 0.5956310015
C   C60       1.0  0.02430  0.29700  0.34670  1.0000 0.5956310015
C   C61       1.0  0.48450  0.74650  0.88600  1.0000 -0.0460457678
C   C62       1.0  0.01550  0.24650  0.11400  1.0000 -0.0460457678
C   C63       1.0  0.48450  0.74650  0.61400  1.0000 -0.0460457678
C   C64       1.0  0.01550  0.24650  0.38600  1.0000 -0.0460457678
C   C65       1.0  0.53940  0.75470  0.92690  1.0000 -0.0828231139
C   C66       1.0  0.96060  0.25470  0.07310  1.0000 -0.0828231139
C   C67       1.0  0.53940  0.75470  0.57310  1.0000 -0.0828231139
C   C68       1.0  0.96060  0.25470  0.42690  1.0000 -0.0828231139
C   C69       1.0  0.54460  0.71110  0.96510  1.0000 -0.152393568
C   C70       1.0  0.95540  0.21110  0.03490  1.0000 -0.152393568
C   C71       1.0  0.54460  0.71110  0.53490  1.0000 -0.152393568
C   C72       1.0  0.95540  0.21110  0.46510  1.0000 -0.152393568
C   C73       1.0  0.49860  0.65400  0.96760  1.0000 0.0693544157
C   C74       1.0  0.00140  0.15400  0.03240  1.0000 0.0693544157
C   C75       1.0  0.49860  0.65400  0.53240  1.0000 0.0693544157
C   C76       1.0  0.00140  0.15400  0.46760  1.0000 0.0693544157
C   C77       1.0  0.44330  0.64780  0.92520  1.0000 -0.1674543253
C   C78       1.0  0.05670  0.14780  0.07480  1.0000 -0.1674543253
C   C79       1.0  0.44330  0.64780  0.57480  1.0000 -0.1674543253
C   C80       1.0  0.05670  0.14780  0.42520  1.0000 -0.1674543253
C   C81       1.0  0.43950  0.69410  0.88760  1.0000 -0.0828231139
C   C82       1.0  0.06050  0.19410  0.11240  1.0000 -0.0828231139
C   C83       1.0  0.43950  0.69410  0.61240  1.0000 -0.0828231139
C   C84       1.0  0.06050  0.19410  0.38760  1.0000 -0.0828231139
C   C85       1.0  0.57910  0.54670  0.07020  1.0000 0.0854095177
C   C86       1.0  0.92090  0.04670  0.92980  1.0000 0.0854095177
C   C87       1.0  0.57910  0.54670  0.42980  1.0000 0.0854095177
C   C88       1.0  0.92090  0.04670  0.57020  1.0000 0.0854095177
C   C89       1.0  0.51350  0.52040  0.09040  1.0000 -0.2118466577
C   C90       1.0  0.98650  0.02040  0.90960  1.0000 -0.2118466577
C   C91       1.0  0.51350  0.52040  0.40960  1.0000 -0.2118466577
C   C92       1.0  0.98650  0.02040  0.59040  1.0000 -0.2118466577
C   C93       1.0  0.44050  0.53680  0.07180  1.0000 0.0812185207
C   C94       1.0  0.05950  0.03680  0.92820  1.0000 0.0812185207
C   C95       1.0  0.44050  0.53680  0.42820  1.0000 0.0812185207
C   C96       1.0  0.05950  0.03680  0.57180  1.0000 0.0812185207
C   C97       1.0  0.43700  0.57820  0.03160  1.0000 -0.1948941319
C   C98       1.0  0.06300  0.07820  0.96840  1.0000 -0.1954173862
C   C99       1.0  0.43700  0.57820  0.46840  1.0000 -0.1948941319
C   C100      1.0  0.06300  0.07820  0.53160  1.0000 -0.1954173862
C   C101      1.0  0.50360  0.60900  0.00960  1.0000 0.0693544157
C   C102      1.0  0.99640  0.10900  0.99040  1.0000 0.0693544157
C   C103      1.0  0.50360  0.60900  0.49040  1.0000 0.0693544157
C   C104      1.0  0.99640  0.10900  0.50960  1.0000 0.0693544157
C   C105      1.0  0.57300  0.58830  0.03070  1.0000 -0.1954173862
C   C106      1.0  0.92700  0.08830  0.96930  1.0000 -0.1954173862
C   C107      1.0  0.57300  0.58830  0.46930  1.0000 -0.1948941319
C   C108      1.0  0.92700  0.08830  0.53070  1.0000 -0.1954173862
C   C109      1.0  0.12030  0.52680  0.64860  1.0000 0.5067180277
C   C110      1.0  0.37970  0.02680  0.35140  1.0000 0.5067180277
C   C111      1.0  0.12030  0.52680  0.85140  1.0000 0.5067180277
C   C112      1.0  0.37970  0.02680  0.14860  1.0000 0.5067180277
C   C113      1.0  0.20080  0.50970  0.62770  1.0000 0.009132489
C   C114      1.0  0.29920  0.00970  0.37230  1.0000 0.009132489
C   C115      1.0  0.20080  0.50970  0.87230  1.0000 0.009132489
C   C116      1.0  0.29920  0.00970  0.12770  1.0000 0.009132489
C   C117      1.0  0.26060  0.51390  0.65600  1.0000 -0.1012307673
C   C118      1.0  0.23940  0.01390  0.34400  1.0000 -0.1012307673
C   C119      1.0  0.26060  0.51390  0.84400  1.0000 -0.1012307673
C   C120      1.0  0.23940  0.01390  0.15600  1.0000 -0.1012307673
C   C121      1.0  0.33320  0.49520  0.64120  1.0000 -0.152393568
C   C122      1.0  0.16680  0.99520  0.35880  1.0000 -0.152393568
C   C123      1.0  0.33320  0.49520  0.85880  1.0000 -0.152393568
C   C124      1.0  0.16680  0.99520  0.14120  1.0000 -0.152393568
C   C125      1.0  0.34240  0.47270  0.59210  1.0000 0.0693544157
C   C126      1.0  0.15760  0.97270  0.40790  1.0000 0.0693544157
C   C127      1.0  0.34240  0.47270  0.90790  1.0000 0.0693544157
C   C128      1.0  0.15760  0.97270  0.09210  1.0000 0.0693544157
C   C129      1.0  0.28240  0.47290  0.55780  1.0000 -0.1588723126
C   C130      1.0  0.21760  0.97290  0.44220  1.0000 -0.1588723126
C   C131      1.0  0.28240  0.47290  0.94220  1.0000 -0.1588723126
C   C132      1.0  0.21760  0.97290  0.05780  1.0000 -0.1588723126
C   C133      1.0  0.21110  0.49370  0.57850  1.0000 -0.1083883464
C   C134      1.0  0.28890  0.99370  0.42150  1.0000 -0.1083883464
C   C135      1.0  0.21110  0.49370  0.92150  1.0000 -0.1083883464
C   C136      1.0  0.28890  0.99370  0.07850  1.0000 -0.1083883464
C   C137      1.0  0.83130  0.57230  0.66970  1.0000 0.5741488517
C   C138      1.0  0.66870  0.07230  0.33030  1.0000 0.5741488517
C   C139      1.0  0.83130  0.57230  0.83030  1.0000 0.5741488517
C   C140      1.0  0.66870  0.07230  0.16970  1.0000 0.5741488517
C   C141      1.0  0.76200  0.53690  0.64120  1.0000 0.009132489
C   C142      1.0  0.73800  0.03690  0.35880  1.0000 0.009132489
C   C143      1.0  0.76200  0.53690  0.85880  1.0000 0.009132489
C   C144      1.0  0.73800  0.03690  0.14120  1.0000 0.009132489
C   C145      1.0  0.76420  0.48380  0.61470  1.0000 -0.0858056229
C   C146      1.0  0.73580  0.98380  0.38530  1.0000 -0.0858056229
C   C147      1.0  0.76420  0.48380  0.88530  1.0000 -0.0858056229
C   C148      1.0  0.73580  0.98380  0.11470  1.0000 -0.0858056229
C   C149      1.0  0.69750  0.45590  0.59260  1.0000 -0.152393568
C   C150      1.0  0.80250  0.95590  0.40740  1.0000 -0.152393568
C   C151      1.0  0.69750  0.45590  0.90740  1.0000 -0.152393568
C   C152      1.0  0.80250  0.95590  0.09260  1.0000 -0.152393568
C   C153      1.0  0.62970  0.49160  0.59380  1.0000 0.0693544157
C   C154      1.0  0.87030  0.99160  0.40620  1.0000 0.0693544157
C   C155      1.0  0.62970  0.49160  0.90620  1.0000 0.0693544157
C   C156      1.0  0.87030  0.99160  0.09380  1.0000 0.0693544157
C   C157      1.0  0.62940  0.54910  0.61960  1.0000 -0.152393568
C   C158      1.0  0.87060  0.04910  0.38040  1.0000 -0.152393568
C   C159      1.0  0.62940  0.54910  0.88040  1.0000 -0.152393568
C   C160      1.0  0.87060  0.04910  0.11960  1.0000 -0.152393568
C   C161      1.0  0.69510  0.57370  0.64230  1.0000 -0.1012307673
C   C162      1.0  0.80490  0.07370  0.35770  1.0000 -0.1012307673
C   C163      1.0  0.69510  0.57370  0.85770  1.0000 -0.1012307673
C   C164      1.0  0.80490  0.07370  0.14230  1.0000 -0.1012307673
C   C165      1.0  0.52430  0.20300  0.34670  1.0000 0.5947318853
C   C166      1.0  0.97570  0.70300  0.65330  1.0000 0.5956310015
C   C167      1.0  0.52430  0.20300  0.15330  1.0000 0.5947318853
C   C168      1.0  0.97570  0.70300  0.84670  1.0000 0.5956310015
C   C169      1.0  0.51550  0.25350  0.38600  1.0000 -0.0449209331
C   C170      1.0  0.98450  0.75350  0.61400  1.0000 -0.0460457678
C   C171      1.0  0.51550  0.25350  0.11400  1.0000 -0.0449209331
C   C172      1.0  0.98450  0.75350  0.88600  1.0000 -0.0460457678
C   C173      1.0  0.46060  0.24530  0.42690  1.0000 -0.0858056229
C   C174      1.0  0.03940  0.74530  0.57310  1.0000 -0.0858056229
C   C175      1.0  0.46060  0.24530  0.07310  1.0000 -0.0858056229
C   C176      1.0  0.03940  0.74530  0.92690  1.0000 -0.0858056229
C   C177      1.0  0.45540  0.28890  0.46510  1.0000 -0.152393568
C   C178      1.0  0.04460  0.78890  0.53490  1.0000 -0.152393568
C   C179      1.0  0.45540  0.28890  0.03490  1.0000 -0.152393568
C   C180      1.0  0.04460  0.78890  0.96510  1.0000 -0.152393568
C   C181      1.0  0.50140  0.34600  0.46760  1.0000 0.0693544157
C   C182      1.0  0.99860  0.84600  0.53240  1.0000 0.0693544157
C   C183      1.0  0.50140  0.34600  0.03240  1.0000 0.0693544157
C   C184      1.0  0.99860  0.84600  0.96760  1.0000 0.0693544157
C   C185      1.0  0.55670  0.35220  0.42520  1.0000 -0.1674543253
C   C186      1.0  0.94330  0.85220  0.57480  1.0000 -0.1674543253
C   C187      1.0  0.55670  0.35220  0.07480  1.0000 -0.1674543253
C   C188      1.0  0.94330  0.85220  0.92520  1.0000 -0.1674543253
C   C189      1.0  0.56050  0.30590  0.38760  1.0000 -0.0828231139
C   C190      1.0  0.93950  0.80590  0.61240  1.0000 -0.0828231139
C   C191      1.0  0.56050  0.30590  0.11240  1.0000 -0.0828231139
C   C192      1.0  0.93950  0.80590  0.88760  1.0000 -0.0828231139
C   C193      1.0  0.42090  0.45330  0.57020  1.0000 0.0854095177
C   C194      1.0  0.07910  0.95330  0.42980  1.0000 0.0854095177
C   C195      1.0  0.42090  0.45330  0.92980  1.0000 0.0854095177
C   C196      1.0  0.07910  0.95330  0.07020  1.0000 0.0854095177
C   C197      1.0  0.48650  0.47960  0.59040  1.0000 -0.2118466577
C   C198      1.0  0.01350  0.97960  0.40960  1.0000 -0.2118466577
C   C199      1.0  0.48650  0.47960  0.90960  1.0000 -0.2118466577
C   C200      1.0  0.01350  0.97960  0.09040  1.0000 -0.2118466577
C   C201      1.0  0.55950  0.46320  0.57180  1.0000 0.0812185207
C   C202      1.0  0.94050  0.96320  0.42820  1.0000 0.0812185207
C   C203      1.0  0.55950  0.46320  0.92820  1.0000 0.0812185207
C   C204      1.0  0.94050  0.96320  0.07180  1.0000 0.0812185207
C   C205      1.0  0.56300  0.42180  0.53160  1.0000 -0.1948941319
C   C206      1.0  0.93700  0.92180  0.46840  1.0000 -0.1948941319
C   C207      1.0  0.56300  0.42180  0.96840  1.0000 -0.1948941319
C   C208      1.0  0.93700  0.92180  0.03160  1.0000 -0.1948941319
C   C209      1.0  0.49640  0.39100  0.50960  1.0000 0.0812185207
C   C210      1.0  0.00360  0.89100  0.49040  1.0000 0.0812185207
C   C211      1.0  0.49640  0.39100  0.99040  1.0000 0.0693544157
C   C212      1.0  0.00360  0.89100  0.00960  1.0000 0.0812185207
C   C213      1.0  0.42700  0.41170  0.53070  1.0000 -0.1948941319
C   C214      1.0  0.07300  0.91170  0.46930  1.0000 -0.1954173862
C   C215      1.0  0.42700  0.41170  0.96930  1.0000 -0.1948941319
C   C216      1.0  0.07300  0.91170  0.03070  1.0000 -0.1954173862
O   O1        1.0  0.01880  0.39890  0.25000  1.0000 -0.9129253595
O   O2        1.0  0.48120  0.89890  0.75000  1.0000 -0.9129253595
O   O3        1.0  0.93300  0.48290  0.12160  1.0000 -0.4190726207
O   O4        1.0  0.56700  0.98290  0.87840  1.0000 -0.4190726207
O   O5        1.0  0.93300  0.48290  0.37840  1.0000 -0.4190726207
O   O6        1.0  0.56700  0.98290  0.62160  1.0000 -0.4190726207
O   O7        1.0  0.88020  0.44120  0.18640  1.0000 -0.4081480323
O   O8        1.0  0.61980  0.94120  0.81360  1.0000 -0.4031295522
O   O9        1.0  0.88020  0.44120  0.31360  1.0000 -0.4081480323
O   O10       1.0  0.61980  0.94120  0.68640  1.0000 -0.4031295522
O   O11       1.0  0.17300  0.38530  0.19552  1.0000 -0.4190726207
O   O12       1.0  0.32700  0.88530  0.80448  1.0000 -0.4081480323
O   O13       1.0  0.17300  0.38530  0.30448  1.0000 -0.4190726207
O   O14       1.0  0.32700  0.88530  0.69552  1.0000 -0.4081480323
O   O15       1.0  0.10500  0.46440  0.15940  1.0000 -0.593957287
O   O16       1.0  0.39500  0.96440  0.84060  1.0000 -0.5955776392
O   O17       1.0  0.10500  0.46440  0.34060  1.0000 -0.593957287
O   O18       1.0  0.39500  0.96440  0.65940  1.0000 -0.5955776392
O   O19       1.0  0.43570  0.78280  0.80783  1.0000 -0.5422864824
O   O20       1.0  0.06430  0.28280  0.19217  1.0000 -0.5422864824
O   O21       1.0  0.43570  0.78280  0.69217  1.0000 -0.5422864824
O   O22       1.0  0.06430  0.28280  0.30783  1.0000 -0.5422864824
O   O23       1.0  0.50450  0.85290  0.85590  1.0000 -0.5493104278
O   O24       1.0  0.99550  0.35290  0.14410  1.0000 -0.5493104278
O   O25       1.0  0.50450  0.85290  0.64410  1.0000 -0.5493104278
O   O26       1.0  0.99550  0.35290  0.35590  1.0000 -0.5493104278
O   O27       1.0  0.98120  0.60110  0.75000  1.0000 -0.9129253595
O   O28       1.0  0.51880  0.10110  0.25000  1.0000 -0.9129253595
O   O29       1.0  0.06700  0.51710  0.62160  1.0000 -0.4190726207
O   O30       1.0  0.43300  0.01710  0.37840  1.0000 -0.4190726207
O   O31       1.0  0.06700  0.51710  0.87840  1.0000 -0.4190726207
O   O32       1.0  0.43300  0.01710  0.12160  1.0000 -0.4190726207
O   O33       1.0  0.11980  0.55880  0.68640  1.0000 -0.4031295522
O   O34       1.0  0.38020  0.05880  0.31360  1.0000 -0.4081480323
O   O35       1.0  0.11980  0.55880  0.81360  1.0000 -0.4031295522
O   O36       1.0  0.38020  0.05880  0.18640  1.0000 -0.4081480323
O   O37       1.0  0.82700  0.61470  0.69552  1.0000 -0.4190726207
O   O38       1.0  0.67300  0.11470  0.30448  1.0000 -0.4190726207
O   O39       1.0  0.82700  0.61470  0.80448  1.0000 -0.4190726207
O   O40       1.0  0.67300  0.11470  0.19552  1.0000 -0.4190726207
O   O41       1.0  0.89500  0.53560  0.65940  1.0000 -0.5955776392
O   O42       1.0  0.60500  0.03560  0.34060  1.0000 -0.593957287
O   O43       1.0  0.89500  0.53560  0.84060  1.0000 -0.5955776392
O   O44       1.0  0.60500  0.03560  0.15940  1.0000 -0.593957287
O   O45       1.0  0.56430  0.21720  0.30783  1.0000 -0.5422864824
O   O46       1.0  0.93570  0.71720  0.69217  1.0000 -0.5422864824
O   O47       1.0  0.56430  0.21720  0.19217  1.0000 -0.5422864824
O   O48       1.0  0.93570  0.71720  0.80783  1.0000 -0.5422864824
O   O49       1.0  0.49550  0.14710  0.35590  1.0000 -0.5493104278
O   O50       1.0  0.00450  0.64710  0.64410  1.0000 -0.5493104278
O   O51       1.0  0.49550  0.14710  0.14410  1.0000 -0.5493104278
O   O52       1.0  0.00450  0.64710  0.85590  1.0000 -0.5493104278
