# DDEC6 charges by PACMAN v1.1 (https://github.com/mtap-research/PACMAN-charge/)
data_0000[Ni][nan]3[ASR]1
_chemical_formula_sum              "Ni6 H92 C148 S6 N8 O38"
_cell_length_a       14.0905
_cell_length_b       14.6762
_cell_length_c       21.5858
_cell_angle_alpha    89.937
_cell_angle_beta     94.598
_cell_angle_gamma    118.006

_symmetry_space_group_name_H-M    "P 1"
_symmetry_Int_Tables_number       1

loop_
  _symmetry_equiv_pos_as_xyz
  'x, y, z'

loop_
  _atom_site_type_symbol
  _atom_site_label
  _atom_site_symmetry_multiplicity
  _atom_site_fract_x
  _atom_site_fract_y
  _atom_site_fract_z
  _atom_site_occupancy
  _atom_site_charge
Ni  Ni1       1.0  0.78772  0.95469  0.90203  1.0000 0.7325217333
Ni  Ni2       1.0  0.21228  0.04531  0.09797  1.0000 0.7325217333
Ni  Ni3       1.0  0.72372  0.78524  0.77149  1.0000 1.0404186752
Ni  Ni4       1.0  0.27628  0.21476  0.22851  1.0000 1.0404186752
Ni  Ni5       1.0  0.56837  0.72880  0.61099  1.0000 0.7494709995
Ni  Ni6       1.0  0.43163  0.27120  0.38901  1.0000 0.7494709995
H   H1        1.0  0.11730  0.55720  0.19770  1.0000 0.1391706176
H   H2        1.0  0.88270  0.44280  0.80230  1.0000 0.1391706176
H   H3        1.0  0.21940  0.46130  0.35000  1.0000 0.150266869
H   H4        1.0  0.78060  0.53870  0.65000  1.0000 0.150266869
H   H5        1.0  0.32240  0.76480  0.32760  1.0000 0.1112645396
H   H6        1.0  0.67760  0.23520  0.67240  1.0000 0.1112645396
H   H7        1.0  0.08040  0.81320  0.11330  1.0000 0.0975369658
H   H8        1.0  0.91960  0.18680  0.88670  1.0000 0.0975369658
H   H9        1.0  0.08100  0.67730  0.16760  1.0000 0.1391706176
H   H10       1.0  0.91900  0.32270  0.83240  1.0000 0.1391706176
H   H11       1.0  0.36440  0.87510  0.25470  1.0000 0.1294517425
H   H12       1.0  0.63560  0.12490  0.74530  1.0000 0.1294517425
H   H13       1.0  0.35680  0.00350  0.19800  1.0000 0.1112645396
H   H14       1.0  0.64320  0.99650  0.80200  1.0000 0.1112645396
H   H15       1.0  0.45040  0.80970  0.52420  1.0000 0.1112645396
H   H16       1.0  0.54960  0.19030  0.47580  1.0000 0.1112645396
H   H17       1.0  0.36220  0.78140  0.42880  1.0000 0.1294517425
H   H18       1.0  0.63780  0.21860  0.57120  1.0000 0.1294517425
H   H19       1.0  0.36060  0.51340  0.41650  1.0000 0.1294517425
H   H20       1.0  0.63940  0.48660  0.58350  1.0000 0.1294517425
H   H21       1.0  0.43660  0.54100  0.51760  1.0000 0.1112645396
H   H22       1.0  0.56340  0.45900  0.48240  1.0000 0.1112645396
H   H23       1.0  0.03160  0.27910  0.15390  1.0000 0.1294517425
H   H24       1.0  0.96840  0.72090  0.84610  1.0000 0.1294517425
H   H25       1.0  0.71680  0.16020  0.18010  1.0000 0.1112645396
H   H26       1.0  0.28320  0.83980  0.81990  1.0000 0.1112645396
H   H27       1.0  0.94100  0.38480  0.29740  1.0000 0.150266869
H   H28       1.0  0.05900  0.61520  0.70260  1.0000 0.150266869
H   H29       1.0  0.48950  0.12220  0.31410  1.0000 0.1112645396
H   H30       1.0  0.51050  0.87780  0.68590  1.0000 0.1112645396
H   H31       1.0  0.62120  0.11990  0.26440  1.0000 0.1391706176
H   H32       1.0  0.37880  0.88010  0.73560  1.0000 0.1391706176
H   H33       1.0  0.79680  0.42120  0.30340  1.0000 0.1294517425
H   H34       1.0  0.20320  0.57880  0.69660  1.0000 0.1294517425
H   H35       1.0  0.66120  0.41540  0.35600  1.0000 0.1112645396
H   H36       1.0  0.33880  0.58460  0.64400  1.0000 0.1112645396
H   H37       1.0  0.96200  0.07760  0.00120  1.0000 0.1200616215
H   H38       1.0  0.03800  0.92240  0.99880  1.0000 0.1200616215
H   H39       1.0  0.99370  0.16240  0.09040  1.0000 0.1294517425
H   H40       1.0  0.00630  0.83760  0.90960  1.0000 0.1294517425
H   H41       1.0  0.68130  0.07750  0.09160  1.0000 0.1294517425
H   H42       1.0  0.31870  0.92250  0.90840  1.0000 0.1294517425
H   H43       1.0  0.65610  0.98180  0.00210  1.0000 0.1112645396
H   H44       1.0  0.34390  0.01820  0.99790  1.0000 0.1112645396
H   H45       1.0  0.42850  0.39690  0.63120  1.0000 0.1112645396
H   H46       1.0  0.57150  0.60310  0.36880  1.0000 0.1112645396
H   H47       1.0  0.37400  0.22730  0.65680  1.0000 0.1294517425
H   H48       1.0  0.62600  0.77270  0.34320  1.0000 0.1294517425
H   H49       1.0  0.53420  0.32060  0.82590  1.0000 0.1294517425
H   H50       1.0  0.46580  0.67940  0.17410  1.0000 0.1294517425
H   H51       1.0  0.59860  0.49250  0.79850  1.0000 0.1294517425
H   H52       1.0  0.40140  0.50750  0.20150  1.0000 0.1294517425
H   H53       1.0  0.18600  0.98480  0.71100  1.0000 0.1294517425
H   H54       1.0  0.81400  0.01520  0.28900  1.0000 0.1294517425
H   H55       1.0  0.01440  0.92890  0.74220  1.0000 0.1294517425
H   H56       1.0  0.98560  0.07110  0.25780  1.0000 0.1294517425
H   H57       1.0  0.13820  0.12900  0.88940  1.0000 0.1200616215
H   H58       1.0  0.86180  0.87100  0.11060  1.0000 0.1200616215
H   H59       1.0  0.31090  0.18570  0.85880  1.0000 0.1294517425
H   H60       1.0  0.68910  0.81430  0.14120  1.0000 0.1294517425
H   H61       1.0  0.71310  0.07650  0.58890  1.0000 0.1200616215
H   H62       1.0  0.28690  0.92350  0.41110  1.0000 0.1200616215
H   H63       1.0  0.84590  0.24870  0.59660  1.0000 0.1200616215
H   H64       1.0  0.15410  0.75130  0.40340  1.0000 0.1200616215
H   H65       1.0  0.02040  0.17820  0.72530  1.0000 0.1294517425
H   H66       1.0  0.97960  0.82180  0.27470  1.0000 0.1294517425
H   H67       1.0  0.88650  0.00650  0.71890  1.0000 0.1200616215
H   H68       1.0  0.11350  0.99350  0.28110  1.0000 0.1200616215
H   H69       1.0  0.05000  0.41150  0.53780  1.0000 0.1294517425
H   H70       1.0  0.95000  0.58850  0.46220  1.0000 0.1294517425
H   H71       1.0  0.11260  0.37140  0.45200  1.0000 0.1200616215
H   H72       1.0  0.88740  0.62860  0.54800  1.0000 0.1200616215
H   H73       1.0  0.27980  0.26570  0.55750  1.0000 0.1200616215
H   H74       1.0  0.72020  0.73430  0.44250  1.0000 0.1200616215
H   H75       1.0  0.20910  0.29420  0.64480  1.0000 0.1294517425
H   H76       1.0  0.79090  0.70580  0.35520  1.0000 0.1294517425
H   H77       1.0  0.78000  0.56600  0.87820  1.0000 0.1200616215
H   H78       1.0  0.22000  0.43400  0.12180  1.0000 0.1200616215
H   H79       1.0  0.82900  0.46350  0.93900  1.0000 0.1294517425
H   H80       1.0  0.17100  0.53650  0.06100  1.0000 0.1294517425
H   H81       1.0  0.87910  0.64860  0.08870  1.0000 0.1294517425
H   H82       1.0  0.12090  0.35140  0.91130  1.0000 0.1294517425
H   H83       1.0  0.83570  0.75480  0.02690  1.0000 0.1200616215
H   H84       1.0  0.16430  0.24520  0.97310  1.0000 0.1200616215
H   H85       1.0  0.70790  0.27590  0.02240  1.0000 0.1294517425
H   H86       1.0  0.29210  0.72410  0.97760  1.0000 0.1294517425
H   H87       1.0  0.53490  0.16970  0.05090  1.0000 0.1200616215
H   H88       1.0  0.46510  0.83030  0.94910  1.0000 0.1200616215
H   H89       1.0  0.59010  0.35950  0.19790  1.0000 0.1294517425
H   H90       1.0  0.40990  0.64050  0.80210  1.0000 0.1294517425
H   H91       1.0  0.76170  0.46830  0.16830  1.0000 0.1294517425
H   H92       1.0  0.23830  0.53170  0.83170  1.0000 0.1294517425
C   C1        1.0  0.22130  0.67600  0.25577  1.0000 0.0975369658
C   C2        1.0  0.77870  0.32400  0.74423  1.0000 0.0975369658
C   C3        1.0  0.15990  0.57350  0.23541  1.0000 -0.2396865766
C   C4        1.0  0.84010  0.42650  0.76459  1.0000 -0.2396865766
C   C5        1.0  0.16140  0.49640  0.27033  1.0000 0.2617439237
C   C6        1.0  0.83860  0.50360  0.72967  1.0000 0.2617439237
C   C7        1.0  0.22080  0.51550  0.32708  1.0000 -0.2249041441
C   C8        1.0  0.77920  0.48450  0.67292  1.0000 -0.2249041441
C   C9        1.0  0.28210  0.61570  0.34924  1.0000 0.0975369658
C   C10       1.0  0.71790  0.38430  0.65076  1.0000 0.0975369658
C   C11       1.0  0.28150  0.69670  0.31277  1.0000 -0.1895349342
C   C12       1.0  0.71850  0.30330  0.68723  1.0000 -0.1895349342
C   C13       1.0  0.13910  0.82610  0.14148  1.0000 0.088794249
C   C14       1.0  0.86090  0.17390  0.85852  1.0000 0.088794249
C   C15       1.0  0.13820  0.74360  0.17501  1.0000 -0.1744178626
C   C16       1.0  0.86180  0.25640  0.82499  1.0000 -0.1744178626
C   C17       1.0  0.22230  0.76110  0.21891  1.0000 0.1112645396
C   C18       1.0  0.77770  0.23890  0.78109  1.0000 0.1112645396
C   C19       1.0  0.30510  0.85980  0.22627  1.0000 -0.1744178626
C   C20       1.0  0.69490  0.14020  0.77373  1.0000 -0.1744178626
C   C21       1.0  0.30020  0.93680  0.19112  1.0000 0.088794249
C   C22       1.0  0.69980  0.06320  0.80888  1.0000 0.0975369658
C   C23       1.0  0.43380  0.74880  0.50229  1.0000 0.0801898944
C   C24       1.0  0.56620  0.25120  0.49771  1.0000 0.0801898944
C   C25       1.0  0.37800  0.73080  0.44509  1.0000 -0.1975610448
C   C26       1.0  0.62200  0.26920  0.55491  1.0000 -0.1975610448
C   C27       1.0  0.34490  0.64160  0.41142  1.0000 0.1112645396
C   C28       1.0  0.65510  0.35840  0.58858  1.0000 0.1112645396
C   C29       1.0  0.37530  0.57370  0.43847  1.0000 -0.1895349342
C   C30       1.0  0.62470  0.42630  0.56153  1.0000 -0.1895349342
C   C31       1.0  0.42760  0.59320  0.49803  1.0000 0.0682798159
C   C32       1.0  0.57240  0.40680  0.50197  1.0000 0.0682798159
C   C33       1.0  0.00360  0.34320  0.22850  1.0000 0.280254325
C   C34       1.0  0.99640  0.65680  0.77150  1.0000 0.280254325
C   C35       1.0  0.97750  0.27800  0.17637  1.0000 -0.2473011407
C   C36       1.0  0.02250  0.72200  0.82363  1.0000 -0.2473011407
C   C37       1.0  0.86990  0.21110  0.15811  1.0000 0.088794249
C   C38       1.0  0.13010  0.78890  0.84189  1.0000 0.088794249
C   C39       1.0  0.78850  0.20700  0.19189  1.0000 -0.1975610448
C   C40       1.0  0.21150  0.79300  0.80811  1.0000 -0.1975610448
C   C41       1.0  0.81520  0.27360  0.24354  1.0000 0.0975369658
C   C42       1.0  0.18480  0.72640  0.75646  1.0000 0.0975369658
C   C43       1.0  0.92320  0.34120  0.26233  1.0000 -0.2473011407
C   C44       1.0  0.07680  0.65880  0.73767  1.0000 -0.2473011407
C   C45       1.0  0.55320  0.18380  0.31285  1.0000 0.0801898944
C   C46       1.0  0.44680  0.81620  0.68715  1.0000 0.0801898944
C   C47       1.0  0.63210  0.18160  0.28297  1.0000 -0.1744178626
C   C48       1.0  0.36790  0.81840  0.71703  1.0000 -0.1744178626
C   C49       1.0  0.72900  0.26970  0.27948  1.0000 0.1112645396
C   C50       1.0  0.27100  0.73030  0.72052  1.0000 0.1112645396
C   C51       1.0  0.73530  0.35830  0.30632  1.0000 -0.1895349342
C   C52       1.0  0.26470  0.64170  0.69368  1.0000 -0.1895349342
C   C53       1.0  0.65230  0.35470  0.33704  1.0000 0.0801898944
C   C54       1.0  0.34770  0.64530  0.66296  1.0000 0.0801898944
C   C55       1.0  0.90430  0.07810  0.01920  1.0000 0.0567504783
C   C56       1.0  0.09570  0.92190  0.98080  1.0000 0.0567504783
C   C57       1.0  0.92360  0.13110  0.07126  1.0000 -0.1780050787
C   C58       1.0  0.07640  0.86890  0.92874  1.0000 -0.1780050787
C   C59       1.0  0.84430  0.14350  0.09990  1.0000 0.1294517425
C   C60       1.0  0.15570  0.85650  0.90010  1.0000 0.1294517425
C   C61       1.0  0.74060  0.08100  0.07345  1.0000 -0.1975610448
C   C62       1.0  0.25940  0.91900  0.92655  1.0000 -0.1975610448
C   C63       1.0  0.72650  0.02360  0.01911  1.0000 0.0975369658
C   C64       1.0  0.27350  0.97640  0.98089  1.0000 0.0975369658
C   C65       1.0  0.55550  0.57100  0.69667  1.0000 0.5746949819
C   C66       1.0  0.44450  0.42900  0.30333  1.0000 0.5746949819
C   C67       1.0  0.51720  0.46110  0.71389  1.0000 -0.0131636359
C   C68       1.0  0.48280  0.53890  0.28611  1.0000 -0.0131636359
C   C69       1.0  0.45000  0.38170  0.66997  1.0000 -0.1015759962
C   C70       1.0  0.55000  0.61830  0.33003  1.0000 -0.1015759962
C   C71       1.0  0.41680  0.28080  0.68573  1.0000 -0.1110075817
C   C72       1.0  0.58320  0.71920  0.31427  1.0000 -0.1110075817
C   C73       1.0  0.44580  0.25850  0.74284  1.0000 -0.08279833
C   C74       1.0  0.55420  0.74150  0.25716  1.0000 -0.08279833
C   C75       1.0  0.51410  0.33660  0.78699  1.0000 -0.1110075817
C   C76       1.0  0.48590  0.66340  0.21301  1.0000 -0.1110075817
C   C77       1.0  0.55100  0.43910  0.77080  1.0000 -0.0908611029
C   C78       1.0  0.44900  0.56090  0.22920  1.0000 -0.0908611029
C   C79       1.0  0.26530  0.09040  0.78235  1.0000 -0.08279833
C   C80       1.0  0.73470  0.90960  0.21765  1.0000 -0.08279833
C   C81       1.0  0.17640  0.01360  0.74684  1.0000 -0.1015759962
C   C82       1.0  0.82360  0.98640  0.25316  1.0000 -0.1015759962
C   C83       1.0  0.07380  0.98060  0.76538  1.0000 -0.0908611029
C   C84       1.0  0.92620  0.01940  0.23462  1.0000 -0.0908611029
C   C85       1.0  0.05920  0.02420  0.81834  1.0000 -0.0361805613
C   C86       1.0  0.94080  0.97580  0.18166  1.0000 -0.0361805613
C   C87       1.0  0.14790  0.10040  0.85361  1.0000 -0.0908611029
C   C88       1.0  0.85210  0.89960  0.14639  1.0000 -0.0908611029
C   C89       1.0  0.25150  0.13410  0.83543  1.0000 -0.1174976341
C   C90       1.0  0.74850  0.86590  0.16457  1.0000 -0.1174976341
C   C91       1.0  0.95170  0.98800  0.84103  1.0000 0.5601288584
C   C92       1.0  0.04830  0.01200  0.15897  1.0000 0.5601288584
C   C93       1.0  0.70450  0.91440  0.64575  1.0000 0.5357488301
C   C94       1.0  0.29550  0.08560  0.35425  1.0000 0.5357488301
C   C95       1.0  0.78590  0.02420  0.65288  1.0000 -0.0211826236
C   C96       1.0  0.21410  0.97580  0.34712  1.0000 -0.0211826236
C   C97       1.0  0.77440  0.09670  0.61645  1.0000 -0.1015759962
C   C98       1.0  0.22560  0.90330  0.38355  1.0000 -0.1015759962
C   C99       1.0  0.85410  0.20000  0.62084  1.0000 -0.1174976341
C   C100      1.0  0.14590  0.80000  0.37916  1.0000 -0.1174976341
C   C101      1.0  0.94600  0.22940  0.66179  1.0000 -0.08279833
C   C102      1.0  0.05400  0.77060  0.33821  1.0000 -0.08279833
C   C103      1.0  0.95860  0.15780  0.69815  1.0000 -0.1110075817
C   C104      1.0  0.04140  0.84220  0.30185  1.0000 -0.1110075817
C   C105      1.0  0.87840  0.05480  0.69414  1.0000 -0.08279833
C   C106      1.0  0.12160  0.94520  0.30586  1.0000 -0.08279833
C   C107      1.0  0.11850  0.35020  0.59826  1.0000 -0.0908611029
C   C108      1.0  0.88150  0.64980  0.40174  1.0000 -0.0908611029
C   C109      1.0  0.09290  0.37890  0.54191  1.0000 -0.1015759962
C   C110      1.0  0.90710  0.62110  0.45809  1.0000 -0.1015759962
C   C111      1.0  0.13390  0.35720  0.49118  1.0000 -0.0908611029
C   C112      1.0  0.86610  0.64280  0.50882  1.0000 -0.0908611029
C   C113      1.0  0.20160  0.31730  0.49437  1.0000 -0.0131636359
C   C114      1.0  0.79840  0.68270  0.50563  1.0000 -0.0131636359
C   C115      1.0  0.23200  0.29290  0.55348  1.0000 -0.1015759962
C   C116      1.0  0.76800  0.70710  0.44652  1.0000 -0.1015759962
C   C117      1.0  0.18980  0.30980  0.60552  1.0000 -0.1110075817
C   C118      1.0  0.81020  0.69020  0.39448  1.0000 -0.1110075817
C   C119      1.0  0.24780  0.29710  0.43780  1.0000 0.5503009465
C   C120      1.0  0.75220  0.70290  0.56220  1.0000 0.5503009465
C   C121      1.0  0.78050  0.74360  0.90585  1.0000 0.5601288584
C   C122      1.0  0.21950  0.25640  0.09415  1.0000 0.5601288584
C   C123      1.0  0.80140  0.67170  0.94721  1.0000 -0.0211826236
C   C124      1.0  0.19860  0.32830  0.05279  1.0000 -0.0211826236
C   C125      1.0  0.79970  0.58220  0.92049  1.0000 -0.0908611029
C   C126      1.0  0.20030  0.41780  0.07951  1.0000 -0.0908611029
C   C127      1.0  0.82680  0.52020  0.95668  1.0000 -0.0908611029
C   C128      1.0  0.17320  0.47980  0.04332  1.0000 -0.0908611029
C   C129      1.0  0.85100  0.54260  0.01967  1.0000 -0.067791948
C   C130      1.0  0.14900  0.45740  0.98033  1.0000 -0.067791948
C   C131      1.0  0.85780  0.63200  0.04656  1.0000 -0.1110075817
C   C132      1.0  0.14220  0.36800  0.95344  1.0000 -0.1110075817
C   C133      1.0  0.83210  0.69530  0.00942  1.0000 -0.1015759962
C   C134      1.0  0.16790  0.30470  0.99058  1.0000 -0.1015759962
C   C135      1.0  0.75060  0.37960  0.09291  1.0000 -0.0908611029
C   C136      1.0  0.24940  0.62040  0.90709  1.0000 -0.0908611029
C   C137      1.0  0.68440  0.29290  0.05751  1.0000 -0.1110075817
C   C138      1.0  0.31560  0.70710  0.94249  1.0000 -0.1110075817
C   C139      1.0  0.58020  0.22970  0.07456  1.0000 -0.1015759962
C   C140      1.0  0.41980  0.77030  0.92544  1.0000 -0.1015759962
C   C141      1.0  0.54420  0.25500  0.12559  1.0000 -0.0211826236
C   C142      1.0  0.45580  0.74500  0.87441  1.0000 -0.0211826236
C   C143      1.0  0.61320  0.34350  0.16227  1.0000 -0.0908611029
C   C144      1.0  0.38680  0.65650  0.83773  1.0000 -0.0908611029
C   C145      1.0  0.71620  0.40760  0.14526  1.0000 -0.1015759962
C   C146      1.0  0.28380  0.59240  0.85474  1.0000 -0.1015759962
C   C147      1.0  0.43010  0.18740  0.14219  1.0000 0.5766923931
C   C148      1.0  0.56990  0.81260  0.85781  1.0000 0.5766923931
S   S1        1.0  0.39736  0.12772  0.76270  1.0000 0.9632141796
S   S2        1.0  0.60264  0.87228  0.23730  1.0000 0.9632141796
S   S3        1.0  0.05218  0.35545  0.66339  1.0000 0.9632141796
S   S4        1.0  0.94782  0.64455  0.33661  1.0000 0.9632141796
S   S5        1.0  0.87906  0.45840  0.06775  1.0000 0.9746120479
S   S6        1.0  0.12094  0.54160  0.93225  1.0000 0.9746120479
N   N1        1.0  0.22060  0.92210  0.14837  1.0000 -0.2295246366
N   N2        1.0  0.77940  0.07790  0.85163  1.0000 -0.2295246366
N   N3        1.0  0.46570  0.68580  0.52836  1.0000 -0.2109846863
N   N4        1.0  0.53430  0.31420  0.47164  1.0000 -0.2109846863
N   N5        1.0  0.55890  0.26840  0.34125  1.0000 -0.2396865766
N   N6        1.0  0.44110  0.73160  0.65875  1.0000 -0.2396865766
N   N7        1.0  0.80400  0.02370  0.99022  1.0000 -0.2295246366
N   N8        1.0  0.19600  0.97630  0.00978  1.0000 -0.2295246366
O   O1        1.0  0.11147  0.39523  0.24748  1.0000 -0.1895349342
O   O2        1.0  0.88853  0.60477  0.75252  1.0000 -0.1895349342
O   O3        1.0  0.53115  0.58868  0.64293  1.0000 -0.5385600123
O   O4        1.0  0.46885  0.41132  0.35707  1.0000 -0.5385600123
O   O5        1.0  0.60823  0.63850  0.73937  1.0000 -0.5511594408
O   O6        1.0  0.39177  0.36150  0.26063  1.0000 -0.5511594408
O   O7        1.0  0.38930  0.06875  0.70731  1.0000 -0.5302935733
O   O8        1.0  0.61070  0.93125  0.29269  1.0000 -0.5302935733
O   O9        1.0  0.45840  0.12286  0.81730  1.0000 -0.5209246749
O   O10       1.0  0.54160  0.87714  0.18270  1.0000 -0.5209246749
O   O11       1.0  0.86463  0.92614  0.81024  1.0000 -0.5892081353
O   O12       1.0  0.13537  0.07386  0.18976  1.0000 -0.5892081353
O   O13       1.0  0.95048  0.02469  0.89358  1.0000 -0.5302935733
O   O14       1.0  0.04952  0.97531  0.10642  1.0000 -0.5302935733
O   O15       1.0  0.63780  0.88721  0.60062  1.0000 -0.468306357
O   O16       1.0  0.36220  0.11279  0.39938  1.0000 -0.468306357
O   O17       1.0  0.69445  0.84557  0.68257  1.0000 -0.5209246749
O   O18       1.0  0.30555  0.15443  0.31743  1.0000 -0.5209246749
O   O19       1.0  0.00690  0.42477  0.64915  1.0000 -0.5209246749
O   O20       1.0  0.99310  0.57523  0.35085  1.0000 -0.5302935733
O   O21       1.0  0.12470  0.37390  0.71945  1.0000 -0.5209246749
O   O22       1.0  0.87530  0.62610  0.28055  1.0000 -0.5209246749
O   O23       1.0  0.20580  0.30540  0.38719  1.0000 -0.5302935733
O   O24       1.0  0.79420  0.69460  0.61281  1.0000 -0.5302935733
O   O25       1.0  0.32286  0.27525  0.44667  1.0000 -0.5302935733
O   O26       1.0  0.67714  0.72475  0.55333  1.0000 -0.5302935733
O   O27       1.0  0.75460  0.71648  0.84913  1.0000 -0.5511594408
O   O28       1.0  0.24540  0.28352  0.15087  1.0000 -0.5511594408
O   O29       1.0  0.78725  0.82191  0.93132  1.0000 -0.5209246749
O   O30       1.0  0.21275  0.17809  0.06868  1.0000 -0.5209246749
O   O31       1.0  0.90566  0.39625  0.02990  1.0000 -0.5015388522
O   O32       1.0  0.09434  0.60375  0.97010  1.0000 -0.5015388522
O   O33       1.0  0.95016  0.51848  0.12048  1.0000 -0.5209246749
O   O34       1.0  0.04984  0.48152  0.87952  1.0000 -0.5209246749
O   O35       1.0  0.37289  0.11632  0.10112  1.0000 -0.5511594408
O   O36       1.0  0.62711  0.88368  0.89888  1.0000 -0.5511594408
O   O37       1.0  0.40129  0.20659  0.19309  1.0000 -0.5690252873
O   O38       1.0  0.59871  0.79341  0.80691  1.0000 -0.5690252873
