# DDEC6 charges by PACMAN v1.1 (https://github.com/mtap-research/PACMAN-charge/)
data_0000[Ce][nan]3[ASR]1
_chemical_formula_sum              "Ce4 H36 C48 O24"
_cell_length_a       11.812
_cell_length_b       12.444
_cell_length_c       12.681
_cell_angle_alpha    120.222
_cell_angle_beta     116.949
_cell_angle_gamma    81.613

_symmetry_space_group_name_H-M    "P 1"
_symmetry_Int_Tables_number       1

loop_
  _symmetry_equiv_pos_as_xyz
  'x, y, z'

loop_
  _atom_site_type_symbol
  _atom_site_label
  _atom_site_symmetry_multiplicity
  _atom_site_fract_x
  _atom_site_fract_y
  _atom_site_fract_z
  _atom_site_occupancy
  _atom_site_charge
Ce  Ce1       1.0  0.52169  0.16791  0.99015  1.0000 1.9322987605
Ce  Ce2       1.0  0.47831  0.83209  0.00985  1.0000 1.9322987605
Ce  Ce3       1.0  0.80270  0.47937  0.23604  1.0000 1.8773481655
Ce  Ce4       1.0  0.19730  0.52063  0.76396  1.0000 1.8773481655
H   H1        1.0  0.40720  0.64980  0.20500  1.0000 0.1413897852
H   H2        1.0  0.59280  0.35020  0.79500  1.0000 0.1413897852
H   H3        1.0  0.15130  0.83410  0.34430  1.0000 0.1218414762
H   H4        1.0  0.84870  0.16590  0.65570  1.0000 0.1218414762
H   H5        1.0  0.34210  0.57460  0.44760  1.0000 0.1218414762
H   H6        1.0  0.65790  0.42540  0.55240  1.0000 0.1218414762
H   H7        1.0  0.50820  0.48670  0.39510  1.0000 0.1413897852
H   H8        1.0  0.49180  0.51330  0.60490  1.0000 0.1413897852
H   H9        1.0  0.58140  0.57490  0.38320  1.0000 0.14772558
H   H10       1.0  0.41860  0.42510  0.61680  1.0000 0.14772558
H   H11       1.0  0.31000  0.87790  0.22290  1.0000 0.14772558
H   H12       1.0  0.69000  0.12210  0.77710  1.0000 0.14772558
H   H13       1.0  0.16110  0.85520  0.17710  1.0000 0.1413897852
H   H14       1.0  0.83890  0.14480  0.82290  1.0000 0.1413897852
H   H15       1.0  0.15300  0.82040  0.53850  1.0000 0.14772558
H   H16       1.0  0.84700  0.17960  0.46150  1.0000 0.14772558
H   H17       1.0  0.22080  0.71130  0.56970  1.0000 0.156877752
H   H18       1.0  0.77920  0.28870  0.43030  1.0000 0.156877752
H   H19       1.0  0.43460  0.17890  0.48240  1.0000 0.1218414762
H   H20       1.0  0.56540  0.82110  0.51760  1.0000 0.1218414762
H   H21       1.0  0.12340  0.17070  0.16250  1.0000 0.1323210928
H   H22       1.0  0.87660  0.82930  0.83750  1.0000 0.1323210928
H   H23       1.0  0.08790  0.09190  0.41930  1.0000 0.1323210928
H   H24       1.0  0.91210  0.90810  0.58070  1.0000 0.1323210928
H   H25       1.0  0.27360  0.07000  0.59180  1.0000 0.14772558
H   H26       1.0  0.72640  0.93000  0.40820  1.0000 0.14772558
H   H27       1.0  0.41200  0.08790  0.60600  1.0000 0.14772558
H   H28       1.0  0.58800  0.91210  0.39400  1.0000 0.14772558
H   H29       1.0  0.44520  0.26560  0.34540  1.0000 0.14772558
H   H30       1.0  0.55480  0.73440  0.65460  1.0000 0.14772558
H   H31       1.0  0.32310  0.23810  0.20560  1.0000 0.156877752
H   H32       1.0  0.67690  0.76190  0.79440  1.0000 0.156877752
H   H33       1.0  0.92540  0.05100  0.08350  1.0000 0.1413897852
H   H34       1.0  0.07460  0.94900  0.91650  1.0000 0.14772558
H   H35       1.0  0.91210  0.01630  0.18270  1.0000 0.14772558
H   H36       1.0  0.08790  0.98370  0.81730  1.0000 0.14772558
C   C1        1.0  0.39180  0.60120  0.32880  1.0000 0.1706755021
C   C2        1.0  0.60820  0.39880  0.67120  1.0000 0.1706755021
C   C3        1.0  0.36290  0.66360  0.25660  1.0000 -0.2285395232
C   C4        1.0  0.63710  0.33640  0.74340  1.0000 -0.2285395232
C   C5        1.0  0.27060  0.74580  0.25840  1.0000 0.1706755021
C   C6        1.0  0.72940  0.25420  0.74160  1.0000 0.1706755021
C   C7        1.0  0.21010  0.77310  0.33810  1.0000 -0.2394228321
C   C8        1.0  0.78990  0.22690  0.66190  1.0000 -0.2394228321
C   C9        1.0  0.23730  0.70760  0.41150  1.0000 0.1822699118
C   C10       1.0  0.76270  0.29240  0.58850  1.0000 0.1822699118
C   C11       1.0  0.32630  0.62100  0.40230  1.0000 -0.2507135611
C   C12       1.0  0.67370  0.37900  0.59770  1.0000 -0.2507135611
C   C13       1.0  0.50160  0.52010  0.33650  1.0000 -0.410268594
C   C14       1.0  0.49840  0.47990  0.66350  1.0000 -0.410268594
C   C15       1.0  0.49650  0.41180  0.20580  1.0000 0.6696843464
C   C16       1.0  0.50350  0.58820  0.79420  1.0000 0.6696843464
C   C17       1.0  0.23900  0.81290  0.17770  1.0000 -0.391712625
C   C18       1.0  0.76100  0.18710  0.82230  1.0000 -0.391712625
C   C19       1.0  0.21780  0.72460  0.03350  1.0000 0.6696843464
C   C20       1.0  0.78220  0.27540  0.96650  1.0000 0.6696843464
C   C21       1.0  0.16830  0.73130  0.49620  1.0000 -0.410268594
C   C22       1.0  0.83170  0.26870  0.50380  1.0000 -0.410268594
C   C23       1.0  0.04230  0.64900  0.40310  1.0000 0.6498432565
C   C24       1.0  0.95770  0.35100  0.59690  1.0000 0.6498432565
C   C25       1.0  0.26980  0.13420  0.46870  1.0000 0.1706755021
C   C26       1.0  0.73020  0.86580  0.53130  1.0000 0.1706755021
C   C27       1.0  0.34460  0.16460  0.42890  1.0000 -0.2216094028
C   C28       1.0  0.65540  0.83540  0.57110  1.0000 -0.2216094028
C   C29       1.0  0.29160  0.17510  0.31110  1.0000 0.1900036889
C   C30       1.0  0.70840  0.82490  0.68890  1.0000 0.1900036889
C   C31       1.0  0.16110  0.15760  0.23850  1.0000 -0.2285395232
C   C32       1.0  0.83890  0.84240  0.76150  1.0000 -0.2285395232
C   C33       1.0  0.08220  0.12180  0.27170  1.0000 0.1900036889
C   C34       1.0  0.91780  0.87820  0.72830  1.0000 0.1900036889
C   C35       1.0  0.13990  0.11290  0.39170  1.0000 -0.2394228321
C   C36       1.0  0.86010  0.88710  0.60830  1.0000 -0.2394228321
C   C37       1.0  0.33110  0.12610  0.59860  1.0000 -0.4287862968
C   C38       1.0  0.66890  0.87390  0.40140  1.0000 -0.4287862968
C   C39       1.0  0.35880  0.25060  0.72660  1.0000 0.7092150856
C   C40       1.0  0.64120  0.74940  0.27340  1.0000 0.7092150856
C   C41       1.0  0.37380  0.20200  0.26490  1.0000 -0.410268594
C   C42       1.0  0.62620  0.79800  0.73510  1.0000 -0.410268594
C   C43       1.0  0.42840  0.08770  0.18770  1.0000 0.6814836669
C   C44       1.0  0.57160  0.91230  0.81230  1.0000 0.6814836669
C   C45       1.0  0.93860  0.08520  0.17810  1.0000 -0.410268594
C   C46       1.0  0.06140  0.91480  0.82190  1.0000 -0.410268594
C   C47       1.0  0.84810  0.18580  0.20450  1.0000 0.6868268657
C   C48       1.0  0.15190  0.81420  0.79550  1.0000 0.6868268657
O   O1        1.0  0.39700  0.34470  0.11230  1.0000 -0.5205073845
O   O2        1.0  0.60300  0.65530  0.88770  1.0000 -0.5205073845
O   O3        1.0  0.60310  0.38520  0.19890  1.0000 -0.7079601776
O   O4        1.0  0.39690  0.61480  0.80110  1.0000 -0.7079601776
O   O5        1.0  0.11510  0.65270  0.94620  1.0000 -0.5800038766
O   O6        1.0  0.88490  0.34730  0.05380  1.0000 -0.5800038766
O   O7        1.0  0.30440  0.72200  0.99890  1.0000 -0.6974066686
O   O8        1.0  0.69560  0.27800  0.00110  1.0000 -0.6974066686
O   O9        1.0  0.04190  0.53350  0.36910  1.0000 -0.6112238061
O   O10       1.0  0.95810  0.46650  0.63090  1.0000 -0.6112238061
O   O11       1.0  0.93780  0.69190  0.35670  1.0000 -0.6279114079
O   O12       1.0  0.06220  0.30810  0.64330  1.0000 -0.6279114079
O   O13       1.0  0.40920  0.25660  0.84160  1.0000 -0.6590118797
O   O14       1.0  0.59080  0.74340  0.15840  1.0000 -0.6590118797
O   O15       1.0  0.33140  0.35050  0.71920  1.0000 -0.6590118797
O   O16       1.0  0.66860  0.64950  0.28080  1.0000 -0.6590118797
O   O17       1.0  0.42640  0.98970  0.19270  1.0000 -0.6112238061
O   O18       1.0  0.57360  0.01030  0.80730  1.0000 -0.6112238061
O   O19       1.0  0.47210  0.09080  0.11360  1.0000 -0.7079601776
O   O20       1.0  0.52790  0.90920  0.88640  1.0000 -0.7079601776
O   O21       1.0  0.73310  0.14130  0.14350  1.0000 -0.6590118797
O   O22       1.0  0.26690  0.85870  0.85650  1.0000 -0.6590118797
O   O23       1.0  0.88980  0.29900  0.27420  1.0000 -0.5863625896
O   O24       1.0  0.11020  0.70100  0.72580  1.0000 -0.5863625896
