# DDEC6 charges by PACMAN v1.1 (https://github.com/mtap-research/PACMAN-charge/)
data_0000[Gd][pcu]3[ASR]1
_chemical_formula_sum              "Gd4 H12 C18 O24"
_cell_length_a       10.5125
_cell_length_b       10.5125
_cell_length_c       11.087
_cell_angle_alpha    60.3318
_cell_angle_beta     119.668
_cell_angle_gamma    108.834

_symmetry_space_group_name_H-M    "P 1"
_symmetry_Int_Tables_number       1

loop_
  _symmetry_equiv_pos_as_xyz
  'x, y, z'

loop_
  _atom_site_type_symbol
  _atom_site_label
  _atom_site_symmetry_multiplicity
  _atom_site_fract_x
  _atom_site_fract_y
  _atom_site_fract_z
  _atom_site_occupancy
  _atom_site_charge
Gd  Gd1       1.0  0.63445  0.06839  0.87957  1.0000 2.0302133167
Gd  Gd2       1.0  0.06839  0.63445  0.62043  1.0000 2.0302133167
Gd  Gd3       1.0  0.36555  0.93161  0.12043  1.0000 2.0302133167
Gd  Gd4       1.0  0.93161  0.36555  0.37957  1.0000 2.0302133167
H   H1        1.0  0.61510  0.72190  0.81810  1.0000 0.1550494933
H   H2        1.0  0.72190  0.61510  0.68190  1.0000 0.1493490928
H   H3        1.0  0.38490  0.27810  0.18190  1.0000 0.1550494933
H   H4        1.0  0.27810  0.38490  0.31810  1.0000 0.1550494933
H   H5        1.0  0.51120  0.74640  0.64950  1.0000 0.1493490928
H   H6        1.0  0.74640  0.51120  0.85050  1.0000 0.1493490928
H   H7        1.0  0.48880  0.25360  0.35050  1.0000 0.1493490928
H   H8        1.0  0.25360  0.48880  0.14950  1.0000 0.1493490928
H   H9        1.0  0.44800  0.39400  0.71900  1.0000 0.1694507504
H   H10       1.0  0.39400  0.44800  0.78100  1.0000 0.1694507504
H   H11       1.0  0.55200  0.60600  0.28100  1.0000 0.1694507504
H   H12       1.0  0.60600  0.55200  0.21900  1.0000 0.1694507504
C   C1        1.0  0.42760  0.80360  0.74340  1.0000 0.7297501767
C   C2        1.0  0.80360  0.42760  0.75660  1.0000 0.7297501767
C   C3        1.0  0.57240  0.19640  0.25660  1.0000 0.7297501767
C   C4        1.0  0.19640  0.57240  0.24340  1.0000 0.7297501767
C   C5        1.0  0.55240  0.79040  0.72200  1.0000 -0.525606001
C   C6        1.0  0.79040  0.55240  0.77800  1.0000 -0.525606001
C   C7        1.0  0.44760  0.20960  0.27800  1.0000 -0.525606001
C   C8        1.0  0.20960  0.44760  0.22200  1.0000 -0.525606001
C   C9        1.0  0.64890  0.92930  0.66850  1.0000 0.6900497282
C   C10       1.0  0.92930  0.64890  0.83150  1.0000 0.6900497282
C   C11       1.0  0.35110  0.07070  0.33150  1.0000 0.6900497282
C   C12       1.0  0.07070  0.35110  0.16850  1.0000 0.6900497282
C   C13       1.0  0.37510  0.22310  0.87520  1.0000 0.6952124441
C   C14       1.0  0.22310  0.37510  0.62480  1.0000 0.6952124441
C   C15       1.0  0.62490  0.77690  0.12480  1.0000 0.6952124441
C   C16       1.0  0.77690  0.62490  0.37520  1.0000 0.6952124441
C   C17       1.0  0.37440  0.37440  0.75000  1.0000 -0.4743751084
C   C18       1.0  0.62560  0.62560  0.25000  1.0000 -0.4743751084
O   O1        1.0  0.44180  0.89420  0.79290  1.0000 -0.6279034412
O   O2        1.0  0.89420  0.44180  0.70710  1.0000 -0.6279034412
O   O3        1.0  0.55820  0.10580  0.20710  1.0000 -0.6279034412
O   O4        1.0  0.10580  0.55820  0.29290  1.0000 -0.6279034412
O   O5        1.0  0.31400  0.71600  0.71530  1.0000 -0.7203849947
O   O6        1.0  0.71600  0.31400  0.78470  1.0000 -0.7203849947
O   O7        1.0  0.68600  0.28400  0.28470  1.0000 -0.7203849947
O   O8        1.0  0.28400  0.68600  0.21530  1.0000 -0.7203849947
O   O9        1.0  0.69020  0.02180  0.72540  1.0000 -0.6742437875
O   O10       1.0  0.02180  0.69020  0.77460  1.0000 -0.6742437875
O   O11       1.0  0.30980  0.97820  0.27460  1.0000 -0.6742437875
O   O12       1.0  0.97820  0.30980  0.22540  1.0000 -0.6742437875
O   O13       1.0  0.68750  0.94490  0.57250  1.0000 -0.5070139637
O   O14       1.0  0.94490  0.68750  0.92750  1.0000 -0.5070139637
O   O15       1.0  0.31250  0.05510  0.42750  1.0000 -0.5070139637
O   O16       1.0  0.05510  0.31250  0.07250  1.0000 -0.5070139637
O   O17       1.0  0.45090  0.13010  0.90790  1.0000 -0.7203849947
O   O18       1.0  0.13010  0.45090  0.59210  1.0000 -0.7203849947
O   O19       1.0  0.54910  0.86990  0.09210  1.0000 -0.7253600156
O   O20       1.0  0.86990  0.54910  0.40790  1.0000 -0.7203849947
O   O21       1.0  0.29290  0.18930  0.94160  1.0000 -0.6029888983
O   O22       1.0  0.18930  0.29290  0.55840  1.0000 -0.6057589447
O   O23       1.0  0.70710  0.81070  0.05840  1.0000 -0.6029888983
O   O24       1.0  0.81070  0.70710  0.44160  1.0000 -0.6029888983
