# DDEC6 charges by PACMAN v1.1 (https://github.com/mtap-research/PACMAN-charge/)
data_0000[Mn][nan]3[ASR]3
_chemical_formula_sum              "Mn4 H40 C60 N8 O20"
_cell_length_a       9.6545
_cell_length_b       17.2717
_cell_length_c       17.326
_cell_angle_alpha    66.504
_cell_angle_beta     77.105
_cell_angle_gamma    83.163

_symmetry_space_group_name_H-M    "P 1"
_symmetry_Int_Tables_number       1

loop_
  _symmetry_equiv_pos_as_xyz
  'x, y, z'

loop_
  _atom_site_type_symbol
  _atom_site_label
  _atom_site_symmetry_multiplicity
  _atom_site_fract_x
  _atom_site_fract_y
  _atom_site_fract_z
  _atom_site_occupancy
  _atom_site_charge
Mn  Mn1       1.0  0.66969  0.97578  0.96434  1.0000 0.9995159681
Mn  Mn2       1.0  0.95202  0.10317  0.96601  1.0000 1.0717306908
Mn  Mn3       1.0  0.33031  0.02422  0.03566  1.0000 0.9995159681
Mn  Mn4       1.0  0.04798  0.89683  0.03399  1.0000 1.0717306908
H   H1        1.0  0.47780  0.12310  0.41450  1.0000 0.2676566678
H   H2        1.0  0.37440  0.11130  0.53250  1.0000 0.2676566678
H   H3        1.0  0.60100  0.47920  0.37570  1.0000 0.2676566678
H   H4        1.0  0.58430  0.38680  0.49320  1.0000 0.2676566678
H   H5        1.0  0.38520  0.00050  0.20260  1.0000 0.1215727623
H   H6        1.0  0.29920  0.01520  0.33240  1.0000 0.1312404524
H   H7        1.0  0.64470  0.14850  0.29260  1.0000 0.1312404524
H   H8        1.0  0.72730  0.13450  0.16150  1.0000 0.1215727623
H   H9        1.0  0.08350  0.97770  0.59770  1.0000 0.1389180671
H   H10       1.0  0.93630  0.94050  0.73240  1.0000 0.1215727623
H   H11       1.0  0.16250  0.07870  0.79830  1.0000 0.1215727623
H   H12       1.0  0.30470  0.12140  0.66130  1.0000 0.1215727623
H   H13       1.0  0.56660  0.69900  0.13850  1.0000 0.1215727623
H   H14       1.0  0.54290  0.57170  0.25300  1.0000 0.1312404524
H   H15       1.0  0.84120  0.63180  0.34780  1.0000 0.1312404524
H   H16       1.0  0.86660  0.75990  0.23160  1.0000 0.1215727623
H   H17       1.0  0.52150  0.27050  0.61420  1.0000 0.1215727623
H   H18       1.0  0.56740  0.17170  0.74310  1.0000 0.1215727623
H   H19       1.0  0.89990  0.30400  0.72160  1.0000 0.1215727623
H   H20       1.0  0.86090  0.40200  0.58930  1.0000 0.1389180671
H   H21       1.0  0.52220  0.87690  0.58550  1.0000 0.2676566678
H   H22       1.0  0.62560  0.88870  0.46750  1.0000 0.2676566678
H   H23       1.0  0.39900  0.52080  0.62430  1.0000 0.2676566678
H   H24       1.0  0.41570  0.61320  0.50680  1.0000 0.2676566678
H   H25       1.0  0.61480  0.99950  0.79740  1.0000 0.1215727623
H   H26       1.0  0.70080  0.98480  0.66760  1.0000 0.1312404524
H   H27       1.0  0.35530  0.85150  0.70740  1.0000 0.1312404524
H   H28       1.0  0.27270  0.86550  0.83850  1.0000 0.1215727623
H   H29       1.0  0.91650  0.02230  0.40230  1.0000 0.1389180671
H   H30       1.0  0.06370  0.05950  0.26760  1.0000 0.1215727623
H   H31       1.0  0.83750  0.92130  0.20170  1.0000 0.1215727623
H   H32       1.0  0.69530  0.87860  0.33870  1.0000 0.1215727623
H   H33       1.0  0.43340  0.30100  0.86150  1.0000 0.1215727623
H   H34       1.0  0.45710  0.42830  0.74700  1.0000 0.1312404524
H   H35       1.0  0.15880  0.36820  0.65220  1.0000 0.1312404524
H   H36       1.0  0.13340  0.24010  0.76840  1.0000 0.1215727623
H   H37       1.0  0.47850  0.72950  0.38580  1.0000 0.1215727623
H   H38       1.0  0.43260  0.82830  0.25690  1.0000 0.1215727623
H   H39       1.0  0.10010  0.69600  0.27840  1.0000 0.1215727623
H   H40       1.0  0.13910  0.59800  0.41070  1.0000 0.1389180671
C   C1        1.0  0.62240  0.05230  0.08790  1.0000 0.5997693117
C   C2        1.0  0.56550  0.06580  0.16920  1.0000 -0.0471093853
C   C3        1.0  0.43810  0.03070  0.22090  1.0000 -0.0891374896
C   C4        1.0  0.38700  0.03900  0.29830  1.0000 -0.1905885224
C   C5        1.0  0.46430  0.08220  0.32610  1.0000 0.2357757564
C   C6        1.0  0.59160  0.11820  0.27440  1.0000 -0.2041717743
C   C7        1.0  0.64060  0.10970  0.19650  1.0000 -0.0808766186
C   C8        1.0  0.30750  0.05900  0.46840  1.0000 0.5876711383
C   C9        1.0  0.21080  0.05240  0.61700  1.0000 0.2357757564
C   C10       1.0  0.09970  0.99860  0.63790  1.0000 -0.1905885224
C   C11       1.0  0.01340  0.97620  0.71830  1.0000 -0.0891374896
C   C12       1.0  0.03640  0.00450  0.77890  1.0000 -0.0442866136
C   C13       1.0  0.14580  0.05850  0.75760  1.0000 -0.0808766186
C   C14       1.0  0.23120  0.08300  0.67640  1.0000 -0.211324427
C   C15       1.0  0.94090  0.97820  0.86450  1.0000 0.5831390793
C   C16       1.0  0.73170  0.82680  0.09900  1.0000 0.5677046354
C   C17       1.0  0.71850  0.74290  0.17330  1.0000 -0.0303570836
C   C18       1.0  0.62270  0.68570  0.18100  1.0000 -0.0808766186
C   C19       1.0  0.60850  0.61070  0.24900  1.0000 -0.1905885224
C   C20       1.0  0.68710  0.58960  0.31250  1.0000 0.2231685097
C   C21       1.0  0.78480  0.64570  0.30530  1.0000 -0.1905885224
C   C22       1.0  0.79960  0.72140  0.23640  1.0000 -0.0991756071
C   C23       1.0  0.71440  0.47800  0.45470  1.0000 0.5876711383
C   C24       1.0  0.68590  0.34630  0.58870  1.0000 0.2357757564
C   C25       1.0  0.59970  0.27720  0.63570  1.0000 -0.211324427
C   C26       1.0  0.62650  0.21890  0.71240  1.0000 -0.0891374896
C   C27       1.0  0.73820  0.22760  0.74570  1.0000 -0.0303570836
C   C28       1.0  0.82340  0.29690  0.69910  1.0000 -0.0991756071
C   C29       1.0  0.80000  0.35570  0.62080  1.0000 -0.1905885224
C   C30       1.0  0.76860  0.16380  0.83000  1.0000 0.5876711383
C   C31       1.0  0.37760  0.94770  0.91210  1.0000 0.5997693117
C   C32       1.0  0.43450  0.93420  0.83080  1.0000 -0.0471093853
C   C33       1.0  0.56190  0.96930  0.77910  1.0000 -0.0891374896
C   C34       1.0  0.61300  0.96100  0.70170  1.0000 -0.1905885224
C   C35       1.0  0.53570  0.91780  0.67390  1.0000 0.2357757564
C   C36       1.0  0.40840  0.88180  0.72560  1.0000 -0.211324427
C   C37       1.0  0.35940  0.89030  0.80350  1.0000 -0.0808766186
C   C38       1.0  0.69250  0.94100  0.53160  1.0000 0.5876711383
C   C39       1.0  0.78920  0.94760  0.38300  1.0000 0.2357757564
C   C40       1.0  0.90030  0.00140  0.36210  1.0000 -0.1905885224
C   C41       1.0  0.98660  0.02380  0.28170  1.0000 -0.0891374896
C   C42       1.0  0.96360  0.99550  0.22110  1.0000 -0.0442866136
C   C43       1.0  0.85420  0.94150  0.24240  1.0000 -0.0808766186
C   C44       1.0  0.76880  0.91700  0.32360  1.0000 -0.211324427
C   C45       1.0  0.05910  0.02180  0.13550  1.0000 0.5831390793
C   C46       1.0  0.26830  0.17320  0.90100  1.0000 0.5677046354
C   C47       1.0  0.28150  0.25710  0.82670  1.0000 -0.0303570836
C   C48       1.0  0.37730  0.31430  0.81900  1.0000 -0.0808766186
C   C49       1.0  0.39150  0.38930  0.75100  1.0000 -0.1905885224
C   C50       1.0  0.31290  0.41040  0.68750  1.0000 0.2231685097
C   C51       1.0  0.21520  0.35430  0.69470  1.0000 -0.1905885224
C   C52       1.0  0.20040  0.27860  0.76360  1.0000 -0.0991756071
C   C53       1.0  0.28560  0.52200  0.54530  1.0000 0.5876711383
C   C54       1.0  0.31410  0.65370  0.41130  1.0000 0.2357757564
C   C55       1.0  0.40030  0.72280  0.36430  1.0000 -0.211324427
C   C56       1.0  0.37350  0.78110  0.28760  1.0000 -0.0891374896
C   C57       1.0  0.26180  0.77240  0.25430  1.0000 -0.0303570836
C   C58       1.0  0.17660  0.70310  0.30090  1.0000 -0.0991756071
C   C59       1.0  0.20000  0.64430  0.37920  1.0000 -0.1905885224
C   C60       1.0  0.23140  0.83620  0.17000  1.0000 0.5876711383
N   N1        1.0  0.42300  0.09200  0.40482  1.0000 -0.4307257756
N   N2        1.0  0.30670  0.07850  0.53800  1.0000 -0.4231465285
N   N3        1.0  0.66010  0.51110  0.38090  1.0000 -0.4307257756
N   N4        1.0  0.65270  0.40200  0.50980  1.0000 -0.4307257756
N   N5        1.0  0.57700  0.90800  0.59518  1.0000 -0.4307257756
N   N6        1.0  0.69330  0.92150  0.46200  1.0000 -0.4231465285
N   N7        1.0  0.33990  0.48890  0.61910  1.0000 -0.4307257756
N   N8        1.0  0.34730  0.59800  0.49020  1.0000 -0.4307257756
O   O1        1.0  0.54400  0.01903  0.06034  1.0000 -0.5563590352
O   O2        1.0  0.74730  0.07251  0.05014  1.0000 -0.5694438044
O   O3        1.0  0.21680  0.02030  0.46270  1.0000 -0.4640399491
O   O4        1.0  0.83190  0.93890  0.87680  1.0000 -0.5208858375
O   O5        1.0  0.97080  0.99767  0.92310  1.0000 -0.632758451
O   O6        1.0  0.64400  0.84635  0.04996  1.0000 -0.5208858375
O   O7        1.0  0.82600  0.87544  0.08935  1.0000 -0.5902990226
O   O8        1.0  0.80420  0.50970  0.46980  1.0000 -0.4640399491
O   O9        1.0  0.69770  0.09828  0.86439  1.0000 -0.5516267543
O   O10       1.0  0.86400  0.18126  0.85912  1.0000 -0.5750153487
O   O11       1.0  0.45600  0.98097  0.93966  1.0000 -0.5563590352
O   O12       1.0  0.25270  0.92749  0.94986  1.0000 -0.5694438044
O   O13       1.0  0.78320  0.97970  0.53730  1.0000 -0.4640399491
O   O14       1.0  0.16810  0.06110  0.12320  1.0000 -0.5208858375
O   O15       1.0  0.02920  0.00233  0.07690  1.0000 -0.632758451
O   O16       1.0  0.35600  0.15365  0.95004  1.0000 -0.5208858375
O   O17       1.0  0.17400  0.12456  0.91065  1.0000 -0.5902990226
O   O18       1.0  0.19580  0.49030  0.53020  1.0000 -0.4640399491
O   O19       1.0  0.30230  0.90172  0.13561  1.0000 -0.5516267543
O   O20       1.0  0.13600  0.81874  0.14088  1.0000 -0.5750153487
