# DDEC6 charges by PACMAN v1.1 (https://github.com/mtap-research/PACMAN-charge/)
data_0000[Cd][nan]2[ASR]1
_chemical_formula_sum              "Cd6 H36 C64 O28"
_cell_length_a       10.222
_cell_length_b       10.222
_cell_length_c       33.254
_cell_angle_alpha    80.5468
_cell_angle_beta     99.4532
_cell_angle_gamma    138.075

_symmetry_space_group_name_H-M    "P 1"
_symmetry_Int_Tables_number       1

loop_
  _symmetry_equiv_pos_as_xyz
  'x, y, z'

loop_
  _atom_site_type_symbol
  _atom_site_label
  _atom_site_symmetry_multiplicity
  _atom_site_fract_x
  _atom_site_fract_y
  _atom_site_fract_z
  _atom_site_occupancy
  _atom_site_charge
Cd  Cd1       1.0  0.78774  0.25482  0.18813  1.0000 1.0104489971
Cd  Cd2       1.0  0.25482  0.78774  0.31187  1.0000 1.0104489971
Cd  Cd3       1.0  0.31904  0.31904  0.75000  1.0000 1.0104489971
Cd  Cd4       1.0  0.21226  0.74518  0.81187  1.0000 1.0104489971
Cd  Cd5       1.0  0.74518  0.21226  0.68813  1.0000 1.0104489971
Cd  Cd6       1.0  0.68096  0.68096  0.25000  1.0000 1.0104489971
H   H1        1.0  0.40963  0.23549  0.07662  1.0000 0.120113759
H   H2        1.0  0.23549  0.40963  0.42338  1.0000 0.120113759
H   H3        1.0  0.04790  0.27896  0.07932  1.0000 0.120113759
H   H4        1.0  0.27896  0.04790  0.42068  1.0000 0.120113759
H   H5        1.0  0.27226  0.22924  0.18579  1.0000 0.1357842931
H   H6        1.0  0.22924  0.27226  0.31421  1.0000 0.1357842931
H   H7        1.0  0.05724  0.17624  0.01638  1.0000 0.1007674584
H   H8        1.0  0.17624  0.05724  0.48362  1.0000 0.1007674584
H   H9        1.0  0.26489  0.40393  0.01533  1.0000 0.1007674584
H   H10       1.0  0.40393  0.26489  0.48467  1.0000 0.1007674584
H   H11       1.0  0.42667  0.18499  0.96394  1.0000 0.1276420006
H   H12       1.0  0.18499  0.42667  0.53606  1.0000 0.1276420006
H   H13       1.0  0.42336  0.20242  0.89286  1.0000 0.1276420006
H   H14       1.0  0.20242  0.42336  0.60714  1.0000 0.1276420006
H   H15       1.0  0.10155  0.30157  0.88095  1.0000 0.1276420006
H   H16       1.0  0.30157  0.10155  0.61905  1.0000 0.1276420006
H   H17       1.0  0.10400  0.28540  0.95209  1.0000 0.120113759
H   H18       1.0  0.28540  0.10400  0.54791  1.0000 0.120113759
H   H19       1.0  0.59037  0.76451  0.92338  1.0000 0.120113759
H   H20       1.0  0.76451  0.59037  0.57662  1.0000 0.120113759
H   H21       1.0  0.95210  0.72104  0.92068  1.0000 0.120113759
H   H22       1.0  0.72104  0.95210  0.57932  1.0000 0.120113759
H   H23       1.0  0.72774  0.77076  0.81421  1.0000 0.1357842931
H   H24       1.0  0.77076  0.72774  0.68579  1.0000 0.1357842931
H   H25       1.0  0.94276  0.82376  0.98362  1.0000 0.1007674584
H   H26       1.0  0.82376  0.94276  0.51638  1.0000 0.1007674584
H   H27       1.0  0.73511  0.59607  0.98467  1.0000 0.1007674584
H   H28       1.0  0.59607  0.73511  0.51533  1.0000 0.1007674584
H   H29       1.0  0.57333  0.81501  0.03606  1.0000 0.1276420006
H   H30       1.0  0.81501  0.57333  0.46394  1.0000 0.1276420006
H   H31       1.0  0.57664  0.79758  0.10714  1.0000 0.1276420006
H   H32       1.0  0.79758  0.57664  0.39286  1.0000 0.1276420006
H   H33       1.0  0.89845  0.69843  0.11905  1.0000 0.1276420006
H   H34       1.0  0.69843  0.89845  0.38095  1.0000 0.1276420006
H   H35       1.0  0.89600  0.71460  0.04791  1.0000 0.120113759
H   H36       1.0  0.71460  0.89600  0.45209  1.0000 0.120113759
C   C1        1.0  0.49354  0.21986  0.15607  1.0000 0.540646995
C   C2        1.0  0.21986  0.49354  0.34393  1.0000 0.545115121
C   C3        1.0  0.35990  0.22970  0.13455  1.0000 -0.0028549802
C   C4        1.0  0.22970  0.35990  0.36545  1.0000 -0.0028549802
C   C5        1.0  0.34158  0.24002  0.09157  1.0000 -0.1578092439
C   C6        1.0  0.24002  0.34158  0.40843  1.0000 -0.1578092439
C   C7        1.0  0.22411  0.25669  0.07084  1.0000 0.0754857647
C   C8        1.0  0.25669  0.22411  0.42916  1.0000 0.0754857647
C   C9        1.0  0.12734  0.26646  0.09329  1.0000 -0.1715972027
C   C10       1.0  0.26646  0.12734  0.40671  1.0000 -0.1715972027
C   C11       1.0  0.14596  0.25804  0.13596  1.0000 0.0020047199
C   C12       1.0  0.25804  0.14596  0.36404  1.0000 0.0020047199
C   C13       1.0  0.26118  0.23762  0.15678  1.0000 -0.1012142202
C   C14       1.0  0.23762  0.26118  0.34322  1.0000 -0.1012142202
C   C15       1.0  0.03845  0.26915  0.15847  1.0000 0.545115121
C   C16       1.0  0.26915  0.03845  0.34153  1.0000 0.545115121
C   C17       1.0  0.19852  0.27008  0.02492  1.0000 -0.0827504893
C   C18       1.0  0.27008  0.19852  0.47508  1.0000 -0.0827504893
C   C19       1.0  0.26808  0.23632  0.96498  1.0000 0.2407268533
C   C20       1.0  0.23632  0.26808  0.53502  1.0000 0.2407268533
C   C21       1.0  0.36176  0.21004  0.94713  1.0000 -0.226792877
C   C22       1.0  0.21004  0.36176  0.55287  1.0000 -0.226792877
C   C23       1.0  0.35960  0.22040  0.90478  1.0000 -0.0673612644
C   C24       1.0  0.22040  0.35960  0.59522  1.0000 -0.0673612644
C   C25       1.0  0.26436  0.25724  0.87954  1.0000 -0.0378184131
C   C26       1.0  0.25724  0.26436  0.62046  1.0000 -0.0378184131
C   C27       1.0  0.16887  0.27933  0.89777  1.0000 -0.0673612644
C   C28       1.0  0.27933  0.16887  0.60223  1.0000 -0.0673612644
C   C29       1.0  0.16965  0.26955  0.94022  1.0000 -0.2377196601
C   C30       1.0  0.26955  0.16965  0.55978  1.0000 -0.2377196601
C   C31       1.0  0.26911  0.27849  0.83401  1.0000 0.540646995
C   C32       1.0  0.27849  0.26911  0.66599  1.0000 0.540646995
C   C33       1.0  0.50646  0.78014  0.84393  1.0000 0.545115121
C   C34       1.0  0.78014  0.50646  0.65607  1.0000 0.545115121
C   C35       1.0  0.64010  0.77030  0.86545  1.0000 -0.0028549802
C   C36       1.0  0.77030  0.64010  0.63455  1.0000 -0.0028549802
C   C37       1.0  0.65842  0.75998  0.90843  1.0000 -0.1578092439
C   C38       1.0  0.75998  0.65842  0.59157  1.0000 -0.1578092439
C   C39       1.0  0.77589  0.74331  0.92916  1.0000 0.0754857647
C   C40       1.0  0.74331  0.77589  0.57084  1.0000 0.0754857647
C   C41       1.0  0.87266  0.73354  0.90671  1.0000 -0.1715972027
C   C42       1.0  0.73354  0.87266  0.59329  1.0000 -0.1715972027
C   C43       1.0  0.85404  0.74196  0.86404  1.0000 0.0020047199
C   C44       1.0  0.74196  0.85404  0.63596  1.0000 0.0020047199
C   C45       1.0  0.73882  0.76238  0.84322  1.0000 -0.1012142202
C   C46       1.0  0.76238  0.73882  0.65678  1.0000 -0.1012142202
C   C47       1.0  0.96155  0.73085  0.84153  1.0000 0.545115121
C   C48       1.0  0.73085  0.96155  0.65847  1.0000 0.545115121
C   C49       1.0  0.80148  0.72992  0.97508  1.0000 -0.0827504893
C   C50       1.0  0.72992  0.80148  0.52492  1.0000 -0.0827504893
C   C51       1.0  0.73192  0.76368  0.03502  1.0000 0.2407268533
C   C52       1.0  0.76368  0.73192  0.46498  1.0000 0.2407268533
C   C53       1.0  0.63824  0.78996  0.05287  1.0000 -0.226792877
C   C54       1.0  0.78996  0.63824  0.44713  1.0000 -0.226792877
C   C55       1.0  0.64040  0.77960  0.09522  1.0000 -0.0673612644
C   C56       1.0  0.77960  0.64040  0.40478  1.0000 -0.0673612644
C   C57       1.0  0.73564  0.74276  0.12046  1.0000 -0.0378184131
C   C58       1.0  0.74276  0.73564  0.37954  1.0000 -0.0378184131
C   C59       1.0  0.83113  0.72067  0.10223  1.0000 -0.0673612644
C   C60       1.0  0.72067  0.83113  0.39777  1.0000 -0.0673612644
C   C61       1.0  0.83035  0.73045  0.05978  1.0000 -0.2377196601
C   C62       1.0  0.73045  0.83035  0.44022  1.0000 -0.2377196601
C   C63       1.0  0.73089  0.72151  0.16599  1.0000 0.540646995
C   C64       1.0  0.72151  0.73089  0.33401  1.0000 0.540646995
O   O1        1.0  0.49845  0.19035  0.19486  1.0000 -0.5335688344
O   O2        1.0  0.19035  0.49845  0.30514  1.0000 -0.5335688344
O   O3        1.0  0.60471  0.24629  0.13495  1.0000 -0.5404777738
O   O4        1.0  0.24629  0.60471  0.36505  1.0000 -0.5404777738
O   O5        1.0  0.05345  0.26515  0.19725  1.0000 -0.5335688344
O   O6        1.0  0.26515  0.05345  0.30275  1.0000 -0.5335688344
O   O7        1.0  0.93409  0.28291  0.13782  1.0000 -0.5335688344
O   O8        1.0  0.28291  0.93409  0.36218  1.0000 -0.5404777738
O   O9        1.0  0.27970  0.22670  0.00683  1.0000 -0.182220315
O   O10       1.0  0.22670  0.27970  0.49317  1.0000 -0.182220315
O   O11       1.0  0.20627  0.33673  0.81187  1.0000 -0.5184393725
O   O12       1.0  0.33673  0.20627  0.68813  1.0000 -0.5184393725
O   O13       1.0  0.34425  0.24215  0.81803  1.0000 -0.5404777738
O   O14       1.0  0.24215  0.34425  0.68197  1.0000 -0.5404777738
O   O15       1.0  0.50155  0.80965  0.80514  1.0000 -0.5404777738
O   O16       1.0  0.80965  0.50155  0.69486  1.0000 -0.5404777738
O   O17       1.0  0.39529  0.75371  0.86505  1.0000 -0.5404777738
O   O18       1.0  0.75371  0.39529  0.63495  1.0000 -0.5404777738
O   O19       1.0  0.94655  0.73485  0.80275  1.0000 -0.5335688344
O   O20       1.0  0.73485  0.94655  0.69725  1.0000 -0.5335688344
O   O21       1.0  0.06591  0.71709  0.86218  1.0000 -0.5404777738
O   O22       1.0  0.71709  0.06591  0.63782  1.0000 -0.5404777738
O   O23       1.0  0.72030  0.77330  0.99317  1.0000 -0.182220315
O   O24       1.0  0.77330  0.72030  0.50683  1.0000 -0.182220315
O   O25       1.0  0.79373  0.66327  0.18813  1.0000 -0.5184393725
O   O26       1.0  0.66327  0.79373  0.31187  1.0000 -0.5184393725
O   O27       1.0  0.65575  0.75785  0.18197  1.0000 -0.5404777738
O   O28       1.0  0.75785  0.65575  0.31803  1.0000 -0.5404777738
