# DDEC6 charges by PACMAN v1.1 (https://github.com/mtap-research/PACMAN-charge/)
data_0000[NiFe][bcu]3[ASR]1
_chemical_formula_sum              "Fe8 Ni6 H80 C104 O36"
_cell_length_a       13.4422
_cell_length_b       15.265
_cell_length_c       19.96
_cell_angle_alpha    90
_cell_angle_beta     127.628
_cell_angle_gamma    90

_symmetry_space_group_name_H-M    "P 1"
_symmetry_Int_Tables_number       1

loop_
  _symmetry_equiv_pos_as_xyz
  'x, y, z'

loop_
  _atom_site_type_symbol
  _atom_site_label
  _atom_site_symmetry_multiplicity
  _atom_site_fract_x
  _atom_site_fract_y
  _atom_site_fract_z
  _atom_site_occupancy
  _atom_site_charge
Fe  Fe1       1.0  0.47274  0.15315  0.25792  1.0000 0.2123754047
Fe  Fe2       1.0  0.52726  0.65315  0.24208  1.0000 0.2123754047
Fe  Fe3       1.0  0.52726  0.84685  0.74208  1.0000 0.2123754047
Fe  Fe4       1.0  0.47274  0.34685  0.75792  1.0000 0.2123754047
Fe  Fe5       1.0  0.01966  0.18834  0.77581  1.0000 0.2123754047
Fe  Fe6       1.0  0.98034  0.68834  0.72419  1.0000 0.2123754047
Fe  Fe7       1.0  0.98034  0.81166  0.22419  1.0000 0.2123754047
Fe  Fe8       1.0  0.01966  0.31166  0.27581  1.0000 0.2123754047
Ni  Ni1       1.0  0.00000  0.00000  0.00000  1.0000 0.9476852551
Ni  Ni2       1.0  0.00000  0.50000  0.50000  1.0000 0.9476852551
Ni  Ni3       1.0  0.75909  0.40944  0.49705  1.0000 0.9615403697
Ni  Ni4       1.0  0.24091  0.90944  0.00295  1.0000 0.9615403697
Ni  Ni5       1.0  0.24091  0.59056  0.50295  1.0000 0.9615403697
Ni  Ni6       1.0  0.75909  0.09056  0.99705  1.0000 0.9615403697
H   H1        1.0  0.15220  0.87420  0.08180  1.0000 0.3821574435
H   H2        1.0  0.84780  0.37420  0.41820  1.0000 0.3821574435
H   H3        1.0  0.84780  0.12580  0.91820  1.0000 0.3821574435
H   H4        1.0  0.15220  0.62580  0.58180  1.0000 0.3821574435
H   H5        1.0  0.05210  0.84440  0.98570  1.0000 0.3893491387
H   H6        1.0  0.94790  0.34440  0.51430  1.0000 0.3893491387
H   H7        1.0  0.94790  0.15560  0.01430  1.0000 0.3893491387
H   H8        1.0  0.05210  0.65560  0.48570  1.0000 0.3893491387
H   H9        1.0  0.38330  0.31450  0.25970  1.0000 0.1397057787
H   H10       1.0  0.61670  0.81450  0.24030  1.0000 0.1397057787
H   H11       1.0  0.61670  0.68550  0.74030  1.0000 0.1397057787
H   H12       1.0  0.38330  0.18550  0.75970  1.0000 0.1397057787
H   H13       1.0  0.22790  0.22500  0.15430  1.0000 0.1495278848
H   H14       1.0  0.77210  0.72500  0.34570  1.0000 0.1495278848
H   H15       1.0  0.77210  0.77500  0.84570  1.0000 0.1495278848
H   H16       1.0  0.22790  0.27500  0.65430  1.0000 0.1495278848
H   H17       1.0  0.47630  0.12200  0.12150  1.0000 0.1397057787
H   H18       1.0  0.52370  0.62200  0.37850  1.0000 0.1397057787
H   H19       1.0  0.52370  0.87800  0.87850  1.0000 0.1397057787
H   H20       1.0  0.47630  0.37800  0.62150  1.0000 0.1397057787
H   H21       1.0  0.62890  0.22510  0.21960  1.0000 0.1397057787
H   H22       1.0  0.37110  0.72510  0.28040  1.0000 0.1397057787
H   H23       1.0  0.37110  0.77490  0.78040  1.0000 0.1397057787
H   H24       1.0  0.62890  0.27490  0.71960  1.0000 0.1397057787
H   H25       1.0  0.62260  0.17910  0.42910  1.0000 0.1495278848
H   H26       1.0  0.37740  0.67910  0.07090  1.0000 0.1495278848
H   H27       1.0  0.37740  0.82090  0.57090  1.0000 0.1495278848
H   H28       1.0  0.62260  0.32090  0.92910  1.0000 0.1495278848
H   H29       1.0  0.39090  0.13200  0.35090  1.0000 0.1319868913
H   H30       1.0  0.60910  0.63200  0.14910  1.0000 0.1319868913
H   H31       1.0  0.60910  0.86800  0.64910  1.0000 0.1319868913
H   H32       1.0  0.39090  0.36800  0.85090  1.0000 0.1319868913
H   H33       1.0  0.35270  0.00630  0.25440  1.0000 0.1397057787
H   H34       1.0  0.64730  0.50630  0.24560  1.0000 0.1397057787
H   H35       1.0  0.64730  0.99370  0.74560  1.0000 0.1397057787
H   H36       1.0  0.35270  0.49370  0.75440  1.0000 0.1397057787
H   H37       1.0  0.53780  0.98740  0.25570  1.0000 0.1397057787
H   H38       1.0  0.46220  0.48740  0.24430  1.0000 0.1397057787
H   H39       1.0  0.46220  0.01260  0.74430  1.0000 0.1397057787
H   H40       1.0  0.53780  0.51260  0.75570  1.0000 0.1397057787
H   H41       1.0  0.69970  0.07740  0.36520  1.0000 0.1397057787
H   H42       1.0  0.30030  0.57740  0.13480  1.0000 0.1397057787
H   H43       1.0  0.30030  0.92260  0.63480  1.0000 0.1397057787
H   H44       1.0  0.69970  0.42260  0.86520  1.0000 0.1397057787
H   H45       1.0  0.12290  0.03130  0.78040  1.0000 0.1495278848
H   H46       1.0  0.87710  0.53130  0.71960  1.0000 0.1495278848
H   H47       1.0  0.87710  0.96870  0.21960  1.0000 0.1495278848
H   H48       1.0  0.12290  0.46870  0.28040  1.0000 0.1495278848
H   H49       1.0  0.06990  0.11820  0.66930  1.0000 0.1397057787
H   H50       1.0  0.93010  0.61820  0.83070  1.0000 0.1397057787
H   H51       1.0  0.93010  0.88180  0.33070  1.0000 0.1397057787
H   H52       1.0  0.06990  0.38180  0.16930  1.0000 0.1397057787
H   H53       1.0  0.76920  0.20590  0.64620  1.0000 0.1397057787
H   H54       1.0  0.23080  0.70590  0.85380  1.0000 0.1397057787
H   H55       1.0  0.23080  0.79410  0.35380  1.0000 0.1397057787
H   H56       1.0  0.76920  0.29410  0.14620  1.0000 0.1397057787
H   H57       1.0  0.81610  0.11070  0.75200  1.0000 0.1559743419
H   H58       1.0  0.18390  0.61070  0.74800  1.0000 0.1559743419
H   H59       1.0  0.18390  0.88930  0.24800  1.0000 0.1559743419
H   H60       1.0  0.81610  0.38930  0.25200  1.0000 0.1559743419
H   H61       1.0  0.25000  0.18000  0.93030  1.0000 0.1319868913
H   H62       1.0  0.75000  0.68000  0.56970  1.0000 0.1319868913
H   H63       1.0  0.75000  0.82000  0.06970  1.0000 0.1319868913
H   H64       1.0  0.25000  0.32000  0.43030  1.0000 0.1319868913
H   H65       1.0  0.21520  0.26470  0.80820  1.0000 0.1319868913
H   H66       1.0  0.78480  0.76470  0.69180  1.0000 0.1319868913
H   H67       1.0  0.78480  0.73530  0.19180  1.0000 0.1319868913
H   H68       1.0  0.21520  0.23530  0.30820  1.0000 0.1319868913
H   H69       1.0  0.01200  0.35010  0.73620  1.0000 0.1397057787
H   H70       1.0  0.98800  0.85010  0.76380  1.0000 0.1397057787
H   H71       1.0  0.98800  0.64990  0.26380  1.0000 0.1397057787
H   H72       1.0  0.01200  0.14990  0.23620  1.0000 0.1397057787
H   H73       1.0  0.92110  0.31820  0.81380  1.0000 0.1319868913
H   H74       1.0  0.07890  0.81820  0.68620  1.0000 0.1319868913
H   H75       1.0  0.07890  0.68180  0.18620  1.0000 0.1319868913
H   H76       1.0  0.92110  0.18180  0.31380  1.0000 0.1319868913
H   H77       1.0  0.06820  0.21310  0.93370  1.0000 0.1397057787
H   H78       1.0  0.93180  0.71310  0.56630  1.0000 0.1397057787
H   H79       1.0  0.93180  0.78690  0.06630  1.0000 0.1397057787
H   H80       1.0  0.06820  0.28690  0.43370  1.0000 0.1397057787
C   C1        1.0  0.63130  0.33000  0.32680  1.0000 0.5791166708
C   C2        1.0  0.36870  0.83000  0.17320  1.0000 0.5791166708
C   C3        1.0  0.36870  0.67000  0.67320  1.0000 0.5791166708
C   C4        1.0  0.63130  0.17000  0.82680  1.0000 0.5791166708
C   C5        1.0  0.52260  0.27690  0.25180  1.0000 -0.0195365389
C   C6        1.0  0.47740  0.77690  0.24820  1.0000 -0.0195365389
C   C7        1.0  0.47740  0.72310  0.74820  1.0000 -0.0195365389
C   C8        1.0  0.52260  0.22310  0.75180  1.0000 -0.0195365389
C   C9        1.0  0.40160  0.27620  0.23100  1.0000 -0.1395230507
C   C10       1.0  0.59840  0.77620  0.26900  1.0000 -0.1395230507
C   C11       1.0  0.59840  0.72380  0.76900  1.0000 -0.1395230507
C   C12       1.0  0.40160  0.22380  0.73100  1.0000 -0.1395230507
C   C13       1.0  0.31050  0.22130  0.17040  1.0000 -0.1299314968
C   C14       1.0  0.68950  0.72130  0.32960  1.0000 -0.1299314968
C   C15       1.0  0.68950  0.77870  0.82960  1.0000 -0.1299314968
C   C16       1.0  0.31050  0.27870  0.67040  1.0000 -0.1299314968
C   C17       1.0  0.33770  0.15780  0.13030  1.0000 -0.034235343
C   C18       1.0  0.66230  0.65780  0.36970  1.0000 -0.034235343
C   C19       1.0  0.66230  0.84220  0.86970  1.0000 -0.034235343
C   C20       1.0  0.33770  0.34220  0.63030  1.0000 -0.034235343
C   C21       1.0  0.45730  0.16110  0.14930  1.0000 -0.1299314968
C   C22       1.0  0.54270  0.66110  0.35070  1.0000 -0.1299314968
C   C23       1.0  0.54270  0.83890  0.85070  1.0000 -0.1299314968
C   C24       1.0  0.45730  0.33890  0.64930  1.0000 -0.1299314968
C   C25       1.0  0.54990  0.22190  0.20900  1.0000 -0.147148104
C   C26       1.0  0.45010  0.72190  0.29100  1.0000 -0.147148104
C   C27       1.0  0.45010  0.77810  0.79100  1.0000 -0.147148104
C   C28       1.0  0.54990  0.27810  0.70900  1.0000 -0.147148104
C   C29       1.0  0.25070  0.08480  0.07630  1.0000 0.5890008196
C   C30       1.0  0.74930  0.58480  0.42370  1.0000 0.5890008196
C   C31       1.0  0.74930  0.91520  0.92370  1.0000 0.5890008196
C   C32       1.0  0.25070  0.41520  0.57630  1.0000 0.5890008196
C   C33       1.0  0.57590  0.13540  0.38690  1.0000 -0.1299314968
C   C34       1.0  0.42410  0.63540  0.11310  1.0000 -0.1299314968
C   C35       1.0  0.42410  0.86460  0.61310  1.0000 -0.1299314968
C   C36       1.0  0.57590  0.36460  0.88690  1.0000 -0.1299314968
C   C37       1.0  0.44960  0.10860  0.34400  1.0000 -0.1299314968
C   C38       1.0  0.55040  0.60860  0.15600  1.0000 -0.1299314968
C   C39       1.0  0.55040  0.89140  0.65600  1.0000 -0.1299314968
C   C40       1.0  0.44960  0.39140  0.84400  1.0000 -0.1299314968
C   C41       1.0  0.42830  0.03920  0.28830  1.0000 -0.1182749537
C   C42       1.0  0.57170  0.53920  0.21170  1.0000 -0.1182749537
C   C43       1.0  0.57170  0.96080  0.71170  1.0000 -0.1182749537
C   C44       1.0  0.42830  0.46080  0.78830  1.0000 -0.1182749537
C   C45       1.0  0.53130  0.02610  0.29020  1.0000 -0.1182749537
C   C46       1.0  0.46870  0.52610  0.20980  1.0000 -0.1182749537
C   C47       1.0  0.46870  0.97390  0.70980  1.0000 -0.1182749537
C   C48       1.0  0.53130  0.47390  0.79020  1.0000 -0.1182749537
C   C49       1.0  0.61650  0.07700  0.34820  1.0000 -0.1182749537
C   C50       1.0  0.38350  0.57700  0.15180  1.0000 -0.1182749537
C   C51       1.0  0.38350  0.92300  0.65180  1.0000 -0.1182749537
C   C52       1.0  0.61650  0.42300  0.84820  1.0000 -0.1182749537
C   C53       1.0  0.01820  0.01190  0.85790  1.0000 0.599752976
C   C54       1.0  0.98180  0.51190  0.64210  1.0000 0.599752976
C   C55       1.0  0.98180  0.98810  0.14210  1.0000 0.599752976
C   C56       1.0  0.01820  0.48810  0.35790  1.0000 0.599752976
C   C57       1.0  0.97480  0.06160  0.77830  1.0000 -0.0079075518
C   C58       1.0  0.02520  0.56160  0.72170  1.0000 -0.0079075518
C   C59       1.0  0.02520  0.93840  0.22170  1.0000 -0.0079075518
C   C60       1.0  0.97480  0.43840  0.27830  1.0000 -0.0079075518
C   C61       1.0  0.04910  0.06620  0.75250  1.0000 -0.1395230507
C   C62       1.0  0.95090  0.56620  0.74750  1.0000 -0.1395230507
C   C63       1.0  0.95090  0.93380  0.24750  1.0000 -0.1395230507
C   C64       1.0  0.04910  0.43380  0.25250  1.0000 -0.1395230507
C   C65       1.0  0.01900  0.11990  0.68750  1.0000 -0.1299314968
C   C66       1.0  0.98100  0.61990  0.81250  1.0000 -0.1182749537
C   C67       1.0  0.98100  0.88010  0.31250  1.0000 -0.1182749537
C   C68       1.0  0.01900  0.38010  0.18750  1.0000 -0.1299314968
C   C69       1.0  0.91780  0.17630  0.64740  1.0000 -0.0195365389
C   C70       1.0  0.08220  0.67630  0.85260  1.0000 -0.0195365389
C   C71       1.0  0.08220  0.82370  0.35260  1.0000 -0.0195365389
C   C72       1.0  0.91780  0.32370  0.14740  1.0000 -0.0195365389
C   C73       1.0  0.84220  0.17030  0.67310  1.0000 -0.1299314968
C   C74       1.0  0.15780  0.67030  0.82690  1.0000 -0.1299314968
C   C75       1.0  0.15780  0.82970  0.32690  1.0000 -0.1299314968
C   C76       1.0  0.84220  0.32970  0.17310  1.0000 -0.1299314968
C   C77       1.0  0.87060  0.11350  0.73680  1.0000 -0.1299314968
C   C78       1.0  0.12940  0.61350  0.76320  1.0000 -0.1299314968
C   C79       1.0  0.12940  0.88650  0.26320  1.0000 -0.1299314968
C   C80       1.0  0.87060  0.38650  0.23680  1.0000 -0.1299314968
C   C81       1.0  0.89590  0.24680  0.58750  1.0000 0.5890008196
C   C82       1.0  0.10410  0.74680  0.91250  1.0000 0.5890008196
C   C83       1.0  0.10410  0.75320  0.41250  1.0000 0.5890008196
C   C84       1.0  0.89590  0.25320  0.08750  1.0000 0.5890008196
C   C85       1.0  0.18100  0.21750  0.89250  1.0000 -0.1299314968
C   C86       1.0  0.81900  0.71750  0.60750  1.0000 -0.1299314968
C   C87       1.0  0.81900  0.78250  0.10750  1.0000 -0.1299314968
C   C88       1.0  0.18100  0.28250  0.39250  1.0000 -0.1299314968
C   C89       1.0  0.16150  0.26490  0.82410  1.0000 -0.1395230507
C   C90       1.0  0.83850  0.76490  0.67590  1.0000 -0.1395230507
C   C91       1.0  0.83850  0.73510  0.17590  1.0000 -0.1395230507
C   C92       1.0  0.16150  0.23510  0.32410  1.0000 -0.1395230507
C   C93       1.0  0.04780  0.31270  0.78380  1.0000 -0.1299314968
C   C94       1.0  0.95220  0.81270  0.71620  1.0000 -0.1299314968
C   C95       1.0  0.95220  0.68730  0.21620  1.0000 -0.1299314968
C   C96       1.0  0.04780  0.18730  0.28380  1.0000 -0.1299314968
C   C97       1.0  0.99690  0.29490  0.82730  1.0000 -0.1299314968
C   C98       1.0  0.00310  0.79490  0.67270  1.0000 -0.1299314968
C   C99       1.0  0.00310  0.70510  0.17270  1.0000 -0.1299314968
C   C100      1.0  0.99690  0.20510  0.32730  1.0000 -0.1299314968
C   C101      1.0  0.07930  0.23600  0.89440  1.0000 -0.1299314968
C   C102      1.0  0.92070  0.73600  0.60560  1.0000 -0.1299314968
C   C103      1.0  0.92070  0.76400  0.10560  1.0000 -0.1299314968
C   C104      1.0  0.07930  0.26400  0.39440  1.0000 -0.1299314968
O   O1        1.0  0.72670  0.33760  0.32820  1.0000 -0.5731354669
O   O2        1.0  0.27330  0.83760  0.17180  1.0000 -0.5731354669
O   O3        1.0  0.27330  0.66240  0.67180  1.0000 -0.5731354669
O   O4        1.0  0.72670  0.16240  0.82820  1.0000 -0.5731354669
O   O5        1.0  0.61910  0.35780  0.37830  1.0000 -0.5257710383
O   O6        1.0  0.38090  0.85780  0.12170  1.0000 -0.5257710383
O   O7        1.0  0.38090  0.64220  0.62170  1.0000 -0.5257710383
O   O8        1.0  0.61910  0.14220  0.87830  1.0000 -0.5257710383
O   O9        1.0  0.14630  0.08430  0.06340  1.0000 -0.5408628449
O   O10       1.0  0.85370  0.58430  0.43660  1.0000 -0.5408628449
O   O11       1.0  0.85370  0.91570  0.93660  1.0000 -0.5408628449
O   O12       1.0  0.14630  0.41570  0.56340  1.0000 -0.5408628449
O   O13       1.0  0.29040  0.03170  0.05340  1.0000 -0.5088487282
O   O14       1.0  0.70960  0.53170  0.44660  1.0000 -0.5088487282
O   O15       1.0  0.70960  0.96830  0.94660  1.0000 -0.5088487282
O   O16       1.0  0.29040  0.46830  0.55340  1.0000 -0.5088487282
O   O17       1.0  0.10850  0.89280  0.02240  1.0000 -0.784583883
O   O18       1.0  0.89150  0.39280  0.47760  1.0000 -0.784583883
O   O19       1.0  0.89150  0.10720  0.97760  1.0000 -0.784583883
O   O20       1.0  0.10850  0.60720  0.52240  1.0000 -0.784583883
O   O21       1.0  0.10950  0.96030  0.88470  1.0000 -0.5596404016
O   O22       1.0  0.89050  0.46030  0.61530  1.0000 -0.5596404016
O   O23       1.0  0.89050  0.03970  0.11530  1.0000 -0.5596404016
O   O24       1.0  0.10950  0.53970  0.38470  1.0000 -0.5596404016
O   O25       1.0  0.96670  0.02690  0.88910  1.0000 -0.4893773064
O   O26       1.0  0.03330  0.52690  0.61090  1.0000 -0.4893773064
O   O27       1.0  0.03330  0.97310  0.11090  1.0000 -0.4893773064
O   O28       1.0  0.96670  0.47310  0.38910  1.0000 -0.4893773064
O   O29       1.0  0.98080  0.25850  0.57950  1.0000 -0.5596404016
O   O30       1.0  0.01920  0.75850  0.92050  1.0000 -0.5596404016
O   O31       1.0  0.01920  0.74150  0.42050  1.0000 -0.5596404016
O   O32       1.0  0.98080  0.24150  0.07950  1.0000 -0.5596404016
O   O33       1.0  0.79590  0.28800  0.55030  1.0000 -0.5510386691
O   O34       1.0  0.20410  0.78800  0.94970  1.0000 -0.5510386691
O   O35       1.0  0.20410  0.71200  0.44970  1.0000 -0.5510386691
O   O36       1.0  0.79590  0.21200  0.05030  1.0000 -0.5510386691
