# DDEC6 charges by PACMAN v1.1 (https://github.com/mtap-research/PACMAN-charge/)
data_0000[Mn][ant]3[ASR]1
_chemical_formula_sum              "Mn2 H32 C48 N4 O8"
_cell_length_a       12.3295
_cell_length_b       12.3295
_cell_length_c       8.5229
_cell_angle_alpha    75.0391
_cell_angle_beta     104.961
_cell_angle_gamma    105.673

_symmetry_space_group_name_H-M    "P 1"
_symmetry_Int_Tables_number       1

loop_
  _symmetry_equiv_pos_as_xyz
  'x, y, z'

loop_
  _atom_site_type_symbol
  _atom_site_label
  _atom_site_symmetry_multiplicity
  _atom_site_fract_x
  _atom_site_fract_y
  _atom_site_fract_z
  _atom_site_occupancy
  _atom_site_charge
Mn  Mn1       1.0  0.41965  0.41965  0.25000  1.0000 0.9270120596
Mn  Mn2       1.0  0.58035  0.58035  0.75000  1.0000 0.9270120596
H   H1        1.0  0.31480  0.66680  0.66890  1.0000 0.1108081236
H   H2        1.0  0.66680  0.31480  0.83110  1.0000 0.1108081236
H   H3        1.0  0.68520  0.33320  0.33110  1.0000 0.1108081236
H   H4        1.0  0.33320  0.68520  0.16890  1.0000 0.1108081236
H   H5        1.0  0.16870  0.75430  0.66130  1.0000 0.1108081236
H   H6        1.0  0.75430  0.16870  0.83870  1.0000 0.1108081236
H   H7        1.0  0.83130  0.24570  0.33870  1.0000 0.1108081236
H   H8        1.0  0.24570  0.83130  0.16130  1.0000 0.1108081236
H   H9        1.0  0.00420  0.73680  0.45720  1.0000 0.1183048857
H   H10       1.0  0.73680  0.00420  0.04280  1.0000 0.1183048857
H   H11       1.0  0.99580  0.26320  0.54280  1.0000 0.1183048857
H   H12       1.0  0.26320  0.99580  0.95720  1.0000 0.1183048857
H   H13       1.0  0.13500  0.55240  0.25700  1.0000 0.1108081236
H   H14       1.0  0.55240  0.13500  0.24300  1.0000 0.1108081236
H   H15       1.0  0.86500  0.44760  0.74300  1.0000 0.1108081236
H   H16       1.0  0.44760  0.86500  0.75700  1.0000 0.1108081236
H   H17       1.0  0.83160  0.62720  0.33120  1.0000 0.1300746405
H   H18       1.0  0.62720  0.83160  0.16880  1.0000 0.1300746405
H   H19       1.0  0.16840  0.37280  0.66880  1.0000 0.1300746405
H   H20       1.0  0.37280  0.16840  0.83120  1.0000 0.1300746405
H   H21       1.0  0.67310  0.60990  0.12110  1.0000 0.1108081236
H   H22       1.0  0.60990  0.67310  0.37890  1.0000 0.1108081236
H   H23       1.0  0.32690  0.39010  0.87890  1.0000 0.1108081236
H   H24       1.0  0.39010  0.32690  0.62110  1.0000 0.1108081236
H   H25       1.0  0.86190  0.63210  0.80700  1.0000 0.1036125531
H   H26       1.0  0.63210  0.86190  0.69300  1.0000 0.1036125531
H   H27       1.0  0.13810  0.36790  0.19300  1.0000 0.1036125531
H   H28       1.0  0.36790  0.13810  0.30700  1.0000 0.1036125531
H   H29       1.0  0.02560  0.64420  0.00990  1.0000 0.1300746405
H   H30       1.0  0.64420  0.02560  0.49010  1.0000 0.1300746405
H   H31       1.0  0.97440  0.35580  0.99010  1.0000 0.1300746405
H   H32       1.0  0.35580  0.97440  0.50990  1.0000 0.1300746405
C   C1        1.0  0.33199  0.53771  0.47395  1.0000 0.5641288494
C   C2        1.0  0.53771  0.33199  0.02605  1.0000 0.5641288494
C   C3        1.0  0.66801  0.46229  0.52605  1.0000 0.5641288494
C   C4        1.0  0.46229  0.66801  0.97395  1.0000 0.5641288494
C   C5        1.0  0.23877  0.59921  0.46503  1.0000 -0.0266255888
C   C6        1.0  0.59921  0.23877  0.03497  1.0000 -0.0266255888
C   C7        1.0  0.76123  0.40079  0.53497  1.0000 -0.0266255888
C   C8        1.0  0.40079  0.76123  0.96503  1.0000 -0.0266255888
C   C9        1.0  0.24920  0.66058  0.58530  1.0000 -0.1165681614
C   C10       1.0  0.66058  0.24920  0.91470  1.0000 -0.1165681614
C   C11       1.0  0.75080  0.33942  0.41470  1.0000 -0.1165681614
C   C12       1.0  0.33942  0.75080  0.08530  1.0000 -0.1165681614
C   C13       1.0  0.16149  0.71285  0.58090  1.0000 -0.0960119667
C   C14       1.0  0.71285  0.16149  0.91910  1.0000 -0.0960119667
C   C15       1.0  0.83851  0.28715  0.41910  1.0000 -0.0960119667
C   C16       1.0  0.28715  0.83851  0.08090  1.0000 -0.0960119667
C   C17       1.0  0.06343  0.70343  0.45730  1.0000 -0.1409881453
C   C18       1.0  0.70343  0.06343  0.04270  1.0000 -0.1409881453
C   C19       1.0  0.93657  0.29657  0.54270  1.0000 -0.1409881453
C   C20       1.0  0.29657  0.93657  0.95730  1.0000 -0.1409881453
C   C21       1.0  0.05243  0.64435  0.33286  1.0000 0.0576116366
C   C22       1.0  0.64435  0.05243  0.16714  1.0000 0.0576116366
C   C23       1.0  0.94757  0.35565  0.66714  1.0000 0.0576116366
C   C24       1.0  0.35565  0.94757  0.83286  1.0000 0.0576116366
C   C25       1.0  0.14113  0.59235  0.33879  1.0000 -0.1684897209
C   C26       1.0  0.59235  0.14113  0.16121  1.0000 -0.1684897209
C   C27       1.0  0.85887  0.40765  0.66121  1.0000 -0.1684897209
C   C28       1.0  0.40765  0.85887  0.83879  1.0000 -0.1684897209
C   C29       1.0  0.94892  0.63666  0.19760  1.0000 0.1183048857
C   C30       1.0  0.63666  0.94892  0.30240  1.0000 0.1183048857
C   C31       1.0  0.05108  0.36334  0.80240  1.0000 0.1183048857
C   C32       1.0  0.36334  0.05108  0.69760  1.0000 0.1183048857
C   C33       1.0  0.84019  0.62715  0.22592  1.0000 -0.1915008391
C   C34       1.0  0.62715  0.84019  0.27408  1.0000 -0.1915008391
C   C35       1.0  0.15981  0.37285  0.77408  1.0000 -0.1915008391
C   C36       1.0  0.37285  0.15981  0.72592  1.0000 -0.1915008391
C   C37       1.0  0.74485  0.61759  0.09814  1.0000 0.0912131702
C   C38       1.0  0.61759  0.74485  0.40186  1.0000 0.0912131702
C   C39       1.0  0.25515  0.38241  0.90186  1.0000 0.0912131702
C   C40       1.0  0.38241  0.25515  0.59814  1.0000 0.0912131702
C   C41       1.0  0.85559  0.62987  0.91426  1.0000 0.0825216712
C   C42       1.0  0.62987  0.85559  0.58574  1.0000 0.0825216712
C   C43       1.0  0.14441  0.37013  0.08574  1.0000 0.0825216712
C   C44       1.0  0.37013  0.14441  0.41426  1.0000 0.0825216712
C   C45       1.0  0.95512  0.63792  0.03587  1.0000 -0.2039724666
C   C46       1.0  0.63792  0.95512  0.46413  1.0000 -0.2039724666
C   C47       1.0  0.04488  0.36208  0.96413  1.0000 -0.2039724666
C   C48       1.0  0.36208  0.04488  0.53587  1.0000 -0.2039724666
N   N1        1.0  0.75087  0.61893  0.94246  1.0000 -0.2453153248
N   N2        1.0  0.61893  0.75087  0.55754  1.0000 -0.2448823119
N   N3        1.0  0.24913  0.38107  0.05754  1.0000 -0.2448823119
N   N4        1.0  0.38107  0.24913  0.44246  1.0000 -0.2448823119
O   O1        1.0  0.31698  0.48422  0.36055  1.0000 -0.5691007937
O   O2        1.0  0.48422  0.31698  0.13945  1.0000 -0.5691007937
O   O3        1.0  0.68302  0.51578  0.63945  1.0000 -0.5691007937
O   O4        1.0  0.51578  0.68302  0.86055  1.0000 -0.5691007937
O   O5        1.0  0.41425  0.54093  0.59443  1.0000 -0.5443372095
O   O6        1.0  0.54093  0.41425  0.90557  1.0000 -0.5443372095
O   O7        1.0  0.58575  0.45907  0.40557  1.0000 -0.5443372095
O   O8        1.0  0.45907  0.58575  0.09443  1.0000 -0.5443372095
