# DDEC6 charges by PACMAN v1.1 (https://github.com/mtap-research/PACMAN-charge/)
data_0000[Cd][nan]3[ASR]6
_chemical_formula_sum              "Cd12 H72 C152 O48"
_cell_length_a       20.2042
_cell_length_b       20.2042
_cell_length_c       25.146
_cell_angle_alpha    62.4329
_cell_angle_beta     117.567
_cell_angle_gamma    126.356

_symmetry_space_group_name_H-M    "P 1"
_symmetry_Int_Tables_number       1

loop_
  _symmetry_equiv_pos_as_xyz
  'x, y, z'

loop_
  _atom_site_type_symbol
  _atom_site_label
  _atom_site_symmetry_multiplicity
  _atom_site_fract_x
  _atom_site_fract_y
  _atom_site_fract_z
  _atom_site_occupancy
  _atom_site_charge
Cd  Cd1       1.0  0.91848  0.33704  0.69283  1.0000 1.0201623376
Cd  Cd2       1.0  0.33704  0.91848  0.80717  1.0000 1.0201623376
Cd  Cd3       1.0  0.08152  0.66296  0.30717  1.0000 1.0201623376
Cd  Cd4       1.0  0.66296  0.08152  0.19283  1.0000 1.0201623376
Cd  Cd5       1.0  0.82153  0.45763  0.67377  1.0000 1.0201623376
Cd  Cd6       1.0  0.45763  0.82153  0.82623  1.0000 1.0201623376
Cd  Cd7       1.0  0.17847  0.54237  0.32623  1.0000 1.0201623376
Cd  Cd8       1.0  0.54237  0.17847  0.17377  1.0000 1.0201623376
Cd  Cd9       1.0  0.74960  0.39520  0.54229  1.0000 1.0704017515
Cd  Cd10      1.0  0.39520  0.74960  0.95771  1.0000 1.0704017515
Cd  Cd11      1.0  0.25040  0.60480  0.45771  1.0000 1.0704017515
Cd  Cd12      1.0  0.60480  0.25040  0.04229  1.0000 1.0704017515
H   H1        1.0  0.65310  0.09610  0.74300  1.0000 0.1294844965
H   H2        1.0  0.09610  0.65310  0.75700  1.0000 0.1294844965
H   H3        1.0  0.34690  0.90390  0.25700  1.0000 0.1294844965
H   H4        1.0  0.90390  0.34690  0.24300  1.0000 0.1294844965
H   H5        1.0  0.42200  0.07800  0.67650  1.0000 0.1294844965
H   H6        1.0  0.07800  0.42200  0.82350  1.0000 0.1294844965
H   H7        1.0  0.57800  0.92200  0.32350  1.0000 0.1294844965
H   H8        1.0  0.92200  0.57800  0.17650  1.0000 0.1294844965
H   H9        1.0  0.62210  0.29990  0.62940  1.0000 0.1103828765
H   H10       1.0  0.29990  0.62210  0.87060  1.0000 0.1103828765
H   H11       1.0  0.37790  0.70010  0.37060  1.0000 0.1103828765
H   H12       1.0  0.70010  0.37790  0.12940  1.0000 0.1103828765
H   H13       1.0  0.36500  0.14360  0.56000  1.0000 0.1207581974
H   H14       1.0  0.14360  0.36500  0.94000  1.0000 0.1207581974
H   H15       1.0  0.63500  0.85640  0.44000  1.0000 0.1207581974
H   H16       1.0  0.85640  0.63500  0.06000  1.0000 0.1207581974
H   H17       1.0  0.28680  0.21060  0.49190  1.0000 0.1294844965
H   H18       1.0  0.21060  0.28680  0.00810  1.0000 0.1294844965
H   H19       1.0  0.71320  0.78940  0.50810  1.0000 0.1294844965
H   H20       1.0  0.78940  0.71320  0.99190  1.0000 0.1294844965
H   H21       1.0  0.26750  0.33970  0.44550  1.0000 0.1294844965
H   H22       1.0  0.33970  0.26750  0.05450  1.0000 0.1294844965
H   H23       1.0  0.73250  0.66030  0.55450  1.0000 0.1294844965
H   H24       1.0  0.66030  0.73250  0.94550  1.0000 0.1294844965
H   H25       1.0  0.42490  0.52950  0.52680  1.0000 0.1207581974
H   H26       1.0  0.52950  0.42490  0.97320  1.0000 0.1207581974
H   H27       1.0  0.57510  0.47050  0.47320  1.0000 0.1207581974
H   H28       1.0  0.47050  0.57510  0.02680  1.0000 0.1207581974
H   H29       1.0  0.50560  0.46260  0.59740  1.0000 0.1207581974
H   H30       1.0  0.46260  0.50560  0.90260  1.0000 0.1207581974
H   H31       1.0  0.49440  0.53740  0.40260  1.0000 0.1207581974
H   H32       1.0  0.53740  0.49440  0.09740  1.0000 0.1207581974
H   H33       1.0  0.53230  0.34090  0.63480  1.0000 0.1294844965
H   H34       1.0  0.34090  0.53230  0.86520  1.0000 0.1294844965
H   H35       1.0  0.46770  0.65910  0.36520  1.0000 0.1294844965
H   H36       1.0  0.65910  0.46770  0.13480  1.0000 0.1294844965
H   H37       1.0  0.93190  0.44610  0.45090  1.0000 0.1294844965
H   H38       1.0  0.44610  0.93190  0.04910  1.0000 0.1294844965
H   H39       1.0  0.06810  0.55390  0.54910  1.0000 0.1294844965
H   H40       1.0  0.55390  0.06810  0.95090  1.0000 0.1294844965
H   H41       1.0  0.08970  0.36330  0.48750  1.0000 0.1207581974
H   H42       1.0  0.36330  0.08970  0.01250  1.0000 0.1207581974
H   H43       1.0  0.91030  0.63670  0.51250  1.0000 0.1207581974
H   H44       1.0  0.63670  0.91030  0.98750  1.0000 0.1207581974
H   H45       1.0  0.94270  0.25410  0.60140  1.0000 0.1294844965
H   H46       1.0  0.25410  0.94270  0.89860  1.0000 0.1294844965
H   H47       1.0  0.05730  0.74590  0.39860  1.0000 0.1294844965
H   H48       1.0  0.74590  0.05730  0.10140  1.0000 0.1294844965
H   H49       1.0  0.16360  0.30600  0.56830  1.0000 0.1103828765
H   H50       1.0  0.30600  0.16360  0.93170  1.0000 0.1103828765
H   H51       1.0  0.83640  0.69400  0.43170  1.0000 0.1103828765
H   H52       1.0  0.69400  0.83640  0.06830  1.0000 0.1103828765
H   H53       1.0  0.28220  0.27300  0.61120  1.0000 0.1103828765
H   H54       1.0  0.27300  0.28220  0.88880  1.0000 0.1103828765
H   H55       1.0  0.71780  0.72700  0.38880  1.0000 0.1103828765
H   H56       1.0  0.72700  0.71780  0.11120  1.0000 0.1103828765
H   H57       1.0  0.32960  0.17420  0.66710  1.0000 0.1103828765
H   H58       1.0  0.17420  0.32960  0.83290  1.0000 0.1103828765
H   H59       1.0  0.67040  0.82580  0.33290  1.0000 0.1103828765
H   H60       1.0  0.82580  0.67040  0.16710  1.0000 0.1103828765
H   H61       1.0  0.11830  0.00770  0.72600  1.0000 0.1207581974
H   H62       1.0  0.00770  0.11830  0.77400  1.0000 0.1207581974
H   H63       1.0  0.88170  0.99230  0.27400  1.0000 0.1207581974
H   H64       1.0  0.99230  0.88170  0.22600  1.0000 0.1207581974
H   H65       1.0  0.00160  0.04360  0.68490  1.0000 0.1207581974
H   H66       1.0  0.04360  0.00160  0.81510  1.0000 0.1207581974
H   H67       1.0  0.99840  0.95640  0.31510  1.0000 0.1207581974
H   H68       1.0  0.95640  0.99840  0.18490  1.0000 0.1207581974
H   H69       1.0  0.95040  0.13900  0.62300  1.0000 0.1207581974
H   H70       1.0  0.13900  0.95040  0.87700  1.0000 0.1207581974
H   H71       1.0  0.04960  0.86100  0.37700  1.0000 0.1207581974
H   H72       1.0  0.86100  0.04960  0.12300  1.0000 0.1207581974
C   C1        1.0  0.65214  0.20566  0.68600  1.0000 -0.0302130188
C   C2        1.0  0.20566  0.65214  0.81400  1.0000 -0.0302130188
C   C3        1.0  0.34786  0.79434  0.31400  1.0000 -0.0302130188
C   C4        1.0  0.79434  0.34786  0.18600  1.0000 -0.0302130188
C   C5        1.0  0.61802  0.12098  0.71830  1.0000 -0.0939897866
C   C6        1.0  0.12098  0.61802  0.78170  1.0000 -0.0939897866
C   C7        1.0  0.38198  0.87902  0.28170  1.0000 -0.0939897866
C   C8        1.0  0.87902  0.38198  0.21830  1.0000 -0.0939897866
C   C9        1.0  0.53087  0.07233  0.71390  1.0000 -0.0197579036
C   C10       1.0  0.07233  0.53087  0.78610  1.0000 -0.0144128183
C   C11       1.0  0.46913  0.92767  0.28610  1.0000 -0.0197579036
C   C12       1.0  0.92767  0.46913  0.21390  1.0000 -0.0197579036
C   C13       1.0  0.47973  0.11027  0.67830  1.0000 -0.1232866336
C   C14       1.0  0.11027  0.47973  0.82170  1.0000 -0.1232866336
C   C15       1.0  0.52027  0.88973  0.32170  1.0000 -0.1232866336
C   C16       1.0  0.88973  0.52027  0.17830  1.0000 -0.1232866336
C   C17       1.0  0.51211  0.19509  0.64530  1.0000 0.0581357099
C   C18       1.0  0.19509  0.51211  0.85470  1.0000 0.0581357099
C   C19       1.0  0.48789  0.80491  0.35470  1.0000 0.0581357099
C   C20       1.0  0.80491  0.48789  0.14530  1.0000 0.0581357099
C   C21       1.0  0.59878  0.24222  0.65030  1.0000 -0.15929621
C   C22       1.0  0.24222  0.59878  0.84970  1.0000 -0.15929621
C   C23       1.0  0.40122  0.75778  0.34970  1.0000 -0.15929621
C   C24       1.0  0.75778  0.40122  0.15030  1.0000 -0.15929621
C   C25       1.0  0.74547  0.25853  0.68880  1.0000 0.5876303847
C   C26       1.0  0.25853  0.74547  0.81120  1.0000 0.5876303847
C   C27       1.0  0.25453  0.74147  0.31120  1.0000 0.5876303847
C   C28       1.0  0.74147  0.25453  0.18880  1.0000 0.5876303847
C   C29       1.0  0.49489  0.97991  0.74860  1.0000 0.5789777275
C   C30       1.0  0.97991  0.49489  0.75140  1.0000 0.5789777275
C   C31       1.0  0.50511  0.02009  0.25140  1.0000 0.5789777275
C   C32       1.0  0.02009  0.50511  0.24860  1.0000 0.5789777275
C   C33       1.0  0.45839  0.23701  0.60420  1.0000 0.077504607
C   C34       1.0  0.23701  0.45839  0.89580  1.0000 0.077504607
C   C35       1.0  0.54161  0.76299  0.39580  1.0000 0.077504607
C   C36       1.0  0.76299  0.54161  0.10420  1.0000 0.077504607
C   C37       1.0  0.38303  0.19757  0.56090  1.0000 -0.1389644334
C   C38       1.0  0.19757  0.38303  0.93910  1.0000 -0.1389644334
C   C39       1.0  0.61697  0.80243  0.43910  1.0000 -0.1389644334
C   C40       1.0  0.80243  0.61697  0.06090  1.0000 -0.1389644334
C   C41       1.0  0.33659  0.23781  0.52030  1.0000 -0.1389644334
C   C42       1.0  0.23781  0.33659  0.97970  1.0000 -0.1389644334
C   C43       1.0  0.66341  0.76219  0.47970  1.0000 -0.1389644334
C   C44       1.0  0.76219  0.66341  0.02030  1.0000 -0.1389644334
C   C45       1.0  0.36091  0.31869  0.51980  1.0000 0.0581357099
C   C46       1.0  0.31869  0.36091  0.98020  1.0000 0.0581357099
C   C47       1.0  0.63909  0.68131  0.48020  1.0000 0.0581357099
C   C48       1.0  0.68131  0.63909  0.01980  1.0000 0.0581357099
C   C49       1.0  0.31503  0.36377  0.47630  1.0000 -0.150134148
C   C50       1.0  0.36377  0.31503  0.02370  1.0000 -0.150134148
C   C51       1.0  0.68497  0.63623  0.52370  1.0000 -0.150134148
C   C52       1.0  0.63623  0.68497  0.97630  1.0000 -0.150134148
C   C53       1.0  0.33888  0.44052  0.47880  1.0000 -0.0302130188
C   C54       1.0  0.44052  0.33888  0.02120  1.0000 -0.0302130188
C   C55       1.0  0.66112  0.55948  0.52120  1.0000 -0.0302130188
C   C56       1.0  0.55948  0.66112  0.97880  1.0000 -0.0302130188
C   C57       1.0  0.40960  0.47720  0.52470  1.0000 -0.1106895384
C   C58       1.0  0.47720  0.40960  0.97530  1.0000 -0.1106895384
C   C59       1.0  0.59040  0.52280  0.47530  1.0000 -0.1106895384
C   C60       1.0  0.52280  0.59040  0.02470  1.0000 -0.1106895384
C   C61       1.0  0.45780  0.43680  0.56750  1.0000 -0.15929621
C   C62       1.0  0.43680  0.45780  0.93250  1.0000 -0.15929621
C   C63       1.0  0.54220  0.56320  0.43250  1.0000 -0.15929621
C   C64       1.0  0.56320  0.54220  0.06750  1.0000 -0.150134148
C   C65       1.0  0.43379  0.35661  0.56550  1.0000 0.0702193418
C   C66       1.0  0.35661  0.43379  0.93450  1.0000 0.0702193418
C   C67       1.0  0.56621  0.64339  0.43450  1.0000 0.0702193418
C   C68       1.0  0.64339  0.56621  0.06550  1.0000 0.0702193418
C   C69       1.0  0.48249  0.31471  0.60610  1.0000 -0.1918682222
C   C70       1.0  0.31471  0.48249  0.89390  1.0000 -0.1918682222
C   C71       1.0  0.51751  0.68529  0.39390  1.0000 -0.1918682222
C   C72       1.0  0.68529  0.51751  0.10610  1.0000 -0.1918682222
C   C73       1.0  0.29067  0.48773  0.43100  1.0000 0.572339588
C   C74       1.0  0.48773  0.29067  0.06900  1.0000 0.572339588
C   C75       1.0  0.70933  0.51227  0.56900  1.0000 0.572339588
C   C76       1.0  0.51227  0.70933  0.93100  1.0000 0.572339588
C   C77       1.0  0.92687  0.34893  0.52830  1.0000 -0.0302130188
C   C78       1.0  0.34893  0.92687  0.97170  1.0000 -0.0302130188
C   C79       1.0  0.07313  0.65107  0.47170  1.0000 -0.0302130188
C   C80       1.0  0.65107  0.07313  0.02830  1.0000 -0.0302130188
C   C81       1.0  0.95491  0.40949  0.47620  1.0000 -0.1036975224
C   C82       1.0  0.40949  0.95491  0.02380  1.0000 -0.1036975224
C   C83       1.0  0.04509  0.59051  0.52380  1.0000 -0.1036975224
C   C84       1.0  0.59051  0.04509  0.97620  1.0000 -0.1036975224
C   C85       1.0  0.01687  0.41613  0.46140  1.0000 -0.0197579036
C   C86       1.0  0.41613  0.01687  0.03860  1.0000 -0.0197579036
C   C87       1.0  0.98313  0.58387  0.53860  1.0000 -0.0197579036
C   C88       1.0  0.58387  0.98313  0.96140  1.0000 -0.0197579036
C   C89       1.0  0.04862  0.35938  0.49780  1.0000 -0.15929621
C   C90       1.0  0.35938  0.04862  0.00220  1.0000 -0.15929621
C   C91       1.0  0.95138  0.64062  0.50220  1.0000 -0.15929621
C   C92       1.0  0.64062  0.95138  0.99780  1.0000 -0.15929621
C   C93       1.0  0.01949  0.29551  0.55030  1.0000 0.0702193418
C   C94       1.0  0.29551  0.01949  0.94970  1.0000 0.0702193418
C   C95       1.0  0.98051  0.70449  0.44970  1.0000 0.0702193418
C   C96       1.0  0.70449  0.98051  0.05030  1.0000 0.0702193418
C   C97       1.0  0.96023  0.29337  0.56560  1.0000 -0.1328595866
C   C98       1.0  0.29337  0.96023  0.93440  1.0000 -0.1328595866
C   C99       1.0  0.03977  0.70663  0.43440  1.0000 -0.1328595866
C   C100      1.0  0.70663  0.03977  0.06560  1.0000 -0.1328595866
C   C101      1.0  0.86448  0.34552  0.54670  1.0000 0.5789777275
C   C102      1.0  0.34552  0.86448  0.95330  1.0000 0.5789777275
C   C103      1.0  0.13552  0.65448  0.45330  1.0000 0.5789777275
C   C104      1.0  0.65448  0.13552  0.04670  1.0000 0.5789777275
C   C105      1.0  0.05390  0.48730  0.40800  1.0000 0.5876303847
C   C106      1.0  0.48730  0.05390  0.09200  1.0000 0.5876303847
C   C107      1.0  0.94610  0.51270  0.59200  1.0000 0.5876303847
C   C108      1.0  0.51270  0.94610  0.90800  1.0000 0.5876303847
C   C109      1.0  0.05468  0.23512  0.58960  1.0000 0.0702193418
C   C110      1.0  0.23512  0.05468  0.91040  1.0000 0.0702193418
C   C111      1.0  0.94532  0.76488  0.41040  1.0000 0.0702193418
C   C112      1.0  0.76488  0.94532  0.08960  1.0000 0.0702193418
C   C113      1.0  0.13080  0.25320  0.59170  1.0000 -0.1918682222
C   C114      1.0  0.25320  0.13080  0.90830  1.0000 -0.1918682222
C   C115      1.0  0.86920  0.74680  0.40830  1.0000 -0.1918682222
C   C116      1.0  0.74680  0.86920  0.09170  1.0000 -0.1918682222
C   C117      1.0  0.16395  0.19545  0.62820  1.0000 0.077504607
C   C118      1.0  0.19545  0.16395  0.87180  1.0000 0.077504607
C   C119      1.0  0.83605  0.80455  0.37180  1.0000 0.077504607
C   C120      1.0  0.80455  0.83605  0.12820  1.0000 0.077504607
C   C121      1.0  0.24740  0.21860  0.63190  1.0000 -0.15929621
C   C122      1.0  0.21860  0.24740  0.86810  1.0000 -0.15929621
C   C123      1.0  0.75260  0.78140  0.36810  1.0000 -0.15929621
C   C124      1.0  0.78140  0.75260  0.13190  1.0000 -0.15929621
C   C125      1.0  0.27610  0.16010  0.66620  1.0000 -0.1106895384
C   C126      1.0  0.16010  0.27610  0.83380  1.0000 -0.1106895384
C   C127      1.0  0.72390  0.83990  0.33380  1.0000 -0.1106895384
C   C128      1.0  0.83990  0.72390  0.16620  1.0000 -0.1106895384
C   C129      1.0  0.22459  0.07741  0.70080  1.0000 -0.0041520091
C   C130      1.0  0.07741  0.22459  0.79920  1.0000 -0.0041520091
C   C131      1.0  0.77541  0.92259  0.29920  1.0000 -0.0041520091
C   C132      1.0  0.92259  0.77541  0.20080  1.0000 -0.0041520091
C   C133      1.0  0.14989  0.05951  0.70110  1.0000 -0.150134148
C   C134      1.0  0.05951  0.14989  0.79890  1.0000 -0.150134148
C   C135      1.0  0.85011  0.94049  0.29890  1.0000 -0.150134148
C   C136      1.0  0.94049  0.85011  0.20110  1.0000 -0.150134148
C   C137      1.0  0.11705  0.11755  0.66440  1.0000 0.0702193418
C   C138      1.0  0.11755  0.11705  0.83560  1.0000 0.0702193418
C   C139      1.0  0.88295  0.88245  0.33560  1.0000 0.0702193418
C   C140      1.0  0.88245  0.88295  0.16440  1.0000 0.0702193418
C   C141      1.0  0.03490  0.09630  0.66180  1.0000 -0.150134148
C   C142      1.0  0.09630  0.03490  0.83820  1.0000 -0.150134148
C   C143      1.0  0.96510  0.90370  0.33820  1.0000 -0.150134148
C   C144      1.0  0.90370  0.96510  0.16180  1.0000 -0.150134148
C   C145      1.0  0.00450  0.15370  0.62480  1.0000 -0.1389644334
C   C146      1.0  0.15370  0.00450  0.87520  1.0000 -0.1389644334
C   C147      1.0  0.99550  0.84630  0.37520  1.0000 -0.1389644334
C   C148      1.0  0.84630  0.99550  0.12480  1.0000 -0.1389644334
C   C149      1.0  0.26017  0.01703  0.74110  1.0000 0.5284451778
C   C150      1.0  0.01703  0.26017  0.75890  1.0000 0.5284451778
C   C151      1.0  0.73983  0.98297  0.25890  1.0000 0.5284451778
C   C152      1.0  0.98297  0.73983  0.24110  1.0000 0.5284451778
O   O1        1.0  0.79445  0.22895  0.72490  1.0000 -0.4570598964
O   O2        1.0  0.22895  0.79445  0.77510  1.0000 -0.4570598964
O   O3        1.0  0.20555  0.77105  0.27510  1.0000 -0.4570598964
O   O4        1.0  0.77105  0.20555  0.22490  1.0000 -0.4570598964
O   O5        1.0  0.77177  0.33343  0.65231  1.0000 -0.6505204503
O   O6        1.0  0.33343  0.77177  0.84769  1.0000 -0.6505204503
O   O7        1.0  0.22823  0.66657  0.34769  1.0000 -0.6505204503
O   O8        1.0  0.66657  0.22823  0.15231  1.0000 -0.6505204503
O   O9        1.0  0.54476  0.94884  0.77600  1.0000 -0.5221403827
O   O10       1.0  0.94884  0.54476  0.72400  1.0000 -0.5259529416
O   O11       1.0  0.45524  0.05116  0.22400  1.0000 -0.5221403827
O   O12       1.0  0.05116  0.45524  0.27600  1.0000 -0.5259529416
O   O13       1.0  0.41970  0.93670  0.75083  1.0000 -0.5683066611
O   O14       1.0  0.93670  0.41970  0.74917  1.0000 -0.5683066611
O   O15       1.0  0.58030  0.06330  0.24917  1.0000 -0.5683066611
O   O16       1.0  0.06330  0.58030  0.25083  1.0000 -0.5683066611
O   O17       1.0  0.31054  0.55626  0.43640  1.0000 -0.5933841829
O   O18       1.0  0.55626  0.31054  0.06360  1.0000 -0.5933841829
O   O19       1.0  0.68946  0.44374  0.56360  1.0000 -0.5933841829
O   O20       1.0  0.44374  0.68946  0.93640  1.0000 -0.5933841829
O   O21       1.0  0.23317  0.45623  0.38670  1.0000 -0.5221403827
O   O22       1.0  0.45623  0.23317  0.11330  1.0000 -0.5149141018
O   O23       1.0  0.76683  0.54377  0.61330  1.0000 -0.5149141018
O   O24       1.0  0.54377  0.76683  0.88670  1.0000 -0.5221403827
O   O25       1.0  0.82858  0.39102  0.50630  1.0000 -0.5811650817
O   O26       1.0  0.39102  0.82858  0.99370  1.0000 -0.5811650817
O   O27       1.0  0.17142  0.60898  0.49370  1.0000 -0.5811650817
O   O28       1.0  0.60898  0.17142  0.00630  1.0000 -0.5811650817
O   O29       1.0  0.85007  0.30073  0.59910  1.0000 -0.5683066611
O   O30       1.0  0.30073  0.85007  0.90090  1.0000 -0.5683066611
O   O31       1.0  0.14993  0.69927  0.40090  1.0000 -0.5683066611
O   O32       1.0  0.69927  0.14993  0.09910  1.0000 -0.5683066611
O   O33       1.0  0.01661  0.52939  0.37031  1.0000 -0.5221403827
O   O34       1.0  0.52939  0.01661  0.12969  1.0000 -0.5221403827
O   O35       1.0  0.98339  0.47061  0.62969  1.0000 -0.5221403827
O   O36       1.0  0.47061  0.98339  0.87031  1.0000 -0.5221403827
O   O37       1.0  0.12424  0.50156  0.40780  1.0000 -0.6197224025
O   O38       1.0  0.50156  0.12424  0.09220  1.0000 -0.6197224025
O   O39       1.0  0.87576  0.49844  0.59220  1.0000 -0.6197224025
O   O40       1.0  0.49844  0.87576  0.90780  1.0000 -0.6197224025
O   O41       1.0  0.22245  0.95095  0.77670  1.0000 -0.4890374009
O   O42       1.0  0.95095  0.22245  0.72330  1.0000 -0.4890374009
O   O43       1.0  0.77755  0.04905  0.22330  1.0000 -0.4890374009
O   O44       1.0  0.04905  0.77755  0.27670  1.0000 -0.4890374009
O   O45       1.0  0.33141  0.03799  0.74100  1.0000 -0.5037890364
O   O46       1.0  0.03799  0.33141  0.75900  1.0000 -0.5037890364
O   O47       1.0  0.66859  0.96201  0.25900  1.0000 -0.5037890364
O   O48       1.0  0.96201  0.66859  0.24100  1.0000 -0.5037890364
