# DDEC6 charges by PACMAN v1.1 (https://github.com/mtap-research/PACMAN-charge/)
data_0000[Cd][tfw]3[ASR]1
_chemical_formula_sum              "Cd6 H12 C36 N16 O16"
_cell_length_a       11.6149
_cell_length_b       11.6149
_cell_length_c       12.8688
_cell_angle_alpha    73.7714
_cell_angle_beta     106.229
_cell_angle_gamma    77.6893

_symmetry_space_group_name_H-M    "P 1"
_symmetry_Int_Tables_number       1

loop_
  _symmetry_equiv_pos_as_xyz
  'x, y, z'

loop_
  _atom_site_type_symbol
  _atom_site_label
  _atom_site_symmetry_multiplicity
  _atom_site_fract_x
  _atom_site_fract_y
  _atom_site_fract_z
  _atom_site_occupancy
  _atom_site_charge
Cd  Cd1       1.0  0.17159  0.78595  0.55222  1.0000 0.9671621781
Cd  Cd2       1.0  0.78595  0.17159  0.94778  1.0000 0.9671621781
Cd  Cd3       1.0  0.82841  0.21405  0.44778  1.0000 0.9671621781
Cd  Cd4       1.0  0.21405  0.82841  0.05222  1.0000 0.9671621781
Cd  Cd5       1.0  0.24672  0.24672  0.25000  1.0000 0.7788804334
Cd  Cd6       1.0  0.75328  0.75328  0.75000  1.0000 0.7788804334
H   H1        1.0  0.19350  0.45870  0.60470  1.0000 0.13260574
H   H2        1.0  0.45870  0.19350  0.89530  1.0000 0.13260574
H   H3        1.0  0.80650  0.54130  0.39530  1.0000 0.13260574
H   H4        1.0  0.54130  0.80650  0.10470  1.0000 0.13260574
H   H5        1.0  0.98740  0.22860  0.66800  1.0000 0.1211609852
H   H6        1.0  0.22860  0.98740  0.83200  1.0000 0.1211609852
H   H7        1.0  0.01260  0.77140  0.33200  1.0000 0.1211609852
H   H8        1.0  0.77140  0.01260  0.16800  1.0000 0.1211609852
H   H9        1.0  0.06130  0.43930  0.86370  1.0000 0.13260574
H   H10       1.0  0.43930  0.06130  0.63630  1.0000 0.13260574
H   H11       1.0  0.93870  0.56070  0.13630  1.0000 0.13260574
H   H12       1.0  0.56070  0.93870  0.36370  1.0000 0.13260574
C   C1        1.0  0.08920  0.33940  0.61870  1.0000 0.0308782581
C   C2        1.0  0.33940  0.08920  0.88130  1.0000 0.0308782581
C   C3        1.0  0.91080  0.66060  0.38130  1.0000 0.0308782581
C   C4        1.0  0.66060  0.91080  0.11870  1.0000 0.0308782581
C   C5        1.0  0.09820  0.30260  0.51950  1.0000 0.2474460166
C   C6        1.0  0.30260  0.09820  0.98050  1.0000 0.2474460166
C   C7        1.0  0.90180  0.69740  0.48050  1.0000 0.2474460166
C   C8        1.0  0.69740  0.90180  0.01950  1.0000 0.2474460166
C   C9        1.0  0.13860  0.46260  0.73990  1.0000 -0.0218823615
C   C10       1.0  0.46260  0.13860  0.76010  1.0000 -0.0218823615
C   C11       1.0  0.86140  0.53740  0.26010  1.0000 -0.0218823615
C   C12       1.0  0.53740  0.86140  0.23990  1.0000 -0.0218823615
C   C13       1.0  0.01180  0.32640  0.77640  1.0000 -0.0015660306
C   C14       1.0  0.32640  0.01180  0.72360  1.0000 -0.0015660306
C   C15       1.0  0.98820  0.67360  0.22360  1.0000 -0.0015660306
C   C16       1.0  0.67360  0.98820  0.27640  1.0000 -0.0015660306
C   C17       1.0  0.14780  0.42560  0.64760  1.0000 -0.1083175902
C   C18       1.0  0.42560  0.14780  0.85240  1.0000 -0.1083175902
C   C19       1.0  0.85220  0.57440  0.35240  1.0000 -0.1083175902
C   C20       1.0  0.57440  0.85220  0.14760  1.0000 -0.1083175902
C   C21       1.0  0.02370  0.28850  0.68470  1.0000 -0.1323444981
C   C22       1.0  0.28850  0.02370  0.81530  1.0000 -0.1323444981
C   C23       1.0  0.97630  0.71150  0.31530  1.0000 -0.1323444981
C   C24       1.0  0.71150  0.97630  0.18470  1.0000 -0.1323444981
C   C25       1.0  0.93690  0.27290  0.84330  1.0000 0.5508825045
C   C26       1.0  0.27290  0.93690  0.65670  1.0000 0.5508825045
C   C27       1.0  0.06310  0.72710  0.15670  1.0000 0.5508825045
C   C28       1.0  0.72710  0.06310  0.34330  1.0000 0.5508825045
C   C29       1.0  0.19990  0.55810  0.76710  1.0000 0.5508825045
C   C30       1.0  0.55810  0.19990  0.73290  1.0000 0.5508825045
C   C31       1.0  0.80010  0.44190  0.23290  1.0000 0.5508825045
C   C32       1.0  0.44190  0.80010  0.26710  1.0000 0.5508825045
C   C33       1.0  0.06930  0.41370  0.80300  1.0000 -0.0990228344
C   C34       1.0  0.41370  0.06930  0.69700  1.0000 -0.0990228344
C   C35       1.0  0.93070  0.58630  0.19700  1.0000 -0.0990228344
C   C36       1.0  0.58630  0.93070  0.30300  1.0000 -0.0990228344
N   N1        1.0  0.06206  0.22666  0.38430  1.0000 -0.0571899142
N   N2        1.0  0.22666  0.06206  0.11570  1.0000 -0.0571899142
N   N3        1.0  0.93794  0.77334  0.61570  1.0000 -0.0571899142
N   N4        1.0  0.77334  0.93794  0.88430  1.0000 -0.0571899142
N   N5        1.0  0.15443  0.27403  0.38340  1.0000 -0.0475908433
N   N6        1.0  0.27403  0.15443  0.11660  1.0000 -0.0475908433
N   N7        1.0  0.84557  0.72597  0.61660  1.0000 -0.0475908433
N   N8        1.0  0.72597  0.84557  0.88340  1.0000 -0.0475908433
N   N9        1.0  0.02397  0.24357  0.47030  1.0000 -0.2959261376
N   N10       1.0  0.24357  0.02397  0.02970  1.0000 -0.2959261376
N   N11       1.0  0.97603  0.75643  0.52970  1.0000 -0.2959261376
N   N12       1.0  0.75643  0.97603  0.97030  1.0000 -0.2959261376
N   N13       1.0  0.17929  0.32329  0.46720  1.0000 -0.2507114027
N   N14       1.0  0.32329  0.17929  0.03280  1.0000 -0.2507114027
N   N15       1.0  0.82071  0.67671  0.53280  1.0000 -0.2507114027
N   N16       1.0  0.67671  0.82071  0.96720  1.0000 -0.2507114027
O   O1        1.0  0.25999  0.60039  0.70580  1.0000 -0.5424929697
O   O2        1.0  0.60039  0.25999  0.79420  1.0000 -0.5424929697
O   O3        1.0  0.74001  0.39961  0.29420  1.0000 -0.5424929697
O   O4        1.0  0.39961  0.74001  0.20580  1.0000 -0.5424929697
O   O5        1.0  0.90252  0.32660  0.90819  1.0000 -0.5322350104
O   O6        1.0  0.32660  0.90252  0.59181  1.0000 -0.5322350104
O   O7        1.0  0.09748  0.67340  0.09181  1.0000 -0.5322350104
O   O8        1.0  0.67340  0.09748  0.40819  1.0000 -0.5322350104
O   O9        1.0  0.18649  0.59009  0.84960  1.0000 -0.5015495409
O   O10       1.0  0.59009  0.18649  0.65040  1.0000 -0.5015495409
O   O11       1.0  0.81351  0.40991  0.15040  1.0000 -0.5015495409
O   O12       1.0  0.40991  0.81351  0.34960  1.0000 -0.5015495409
O   O13       1.0  0.90697  0.17803  0.83287  1.0000 -0.5322350104
O   O14       1.0  0.17803  0.90697  0.66713  1.0000 -0.5322350104
O   O15       1.0  0.09303  0.82197  0.16713  1.0000 -0.5322350104
O   O16       1.0  0.82197  0.09303  0.33287  1.0000 -0.5322350104
