# DDEC6 charges by PACMAN v1.1 (https://github.com/mtap-research/PACMAN-charge/)
data_0000[Zn][dia]3[ASR]4
_chemical_formula_sum              "Zn2 H8 C4 N20"
_cell_length_a       10.1205
_cell_length_b       10.1205
_cell_length_c       8.959
_cell_angle_alpha    63.8184
_cell_angle_beta     116.182
_cell_angle_gamma    83.355

_symmetry_space_group_name_H-M    "P 1"
_symmetry_Int_Tables_number       1

loop_
  _symmetry_equiv_pos_as_xyz
  'x, y, z'

loop_
  _atom_site_type_symbol
  _atom_site_label
  _atom_site_symmetry_multiplicity
  _atom_site_fract_x
  _atom_site_fract_y
  _atom_site_fract_z
  _atom_site_occupancy
  _atom_site_charge
Zn  Zn1       1.0  0.16398  0.56168  0.33333  1.0000 0.6561951162
Zn  Zn2       1.0  0.43832  0.83602  0.83333  1.0000 0.6561951162
H   H1        1.0  0.89210  0.45030  0.39250  1.0000 0.2984512867
H   H2        1.0  0.54970  0.10790  0.89250  1.0000 0.2984512867
H   H3        1.0  0.71510  0.51010  0.26180  1.0000 0.2984512867
H   H4        1.0  0.48990  0.28490  0.76180  1.0000 0.2984512867
H   H5        1.0  0.12950  0.97310  0.83530  1.0000 0.2913845898
H   H6        1.0  0.02690  0.87050  0.33530  1.0000 0.2913845898
H   H7        1.0  0.05320  0.89760  0.94100  1.0000 0.2984512867
H   H8        1.0  0.10240  0.94680  0.44100  1.0000 0.2984512867
C   C1        1.0  0.80200  0.65340  0.14340  1.0000 0.4621064783
C   C2        1.0  0.34660  0.19800  0.64340  1.0000 0.4621064783
C   C3        1.0  0.24940  0.75000  0.03240  1.0000 0.4771213652
C   C4        1.0  0.25000  0.75060  0.53240  1.0000 0.4771213652
N   N1        1.0  0.80320  0.52180  0.28300  1.0000 -0.5862378954
N   N2        1.0  0.47820  0.19680  0.78300  1.0000 -0.5862378954
N   N3        1.0  0.66990  0.78190  0.97900  1.0000 -0.3057817696
N   N4        1.0  0.21810  0.33010  0.47900  1.0000 -0.3057817696
N   N5        1.0  0.72390  0.89330  0.90230  1.0000 -0.0766894846
N   N6        1.0  0.10670  0.27610  0.40230  1.0000 -0.0766894846
N   N7        1.0  0.87530  0.83310  0.00500  1.0000 -0.0966752349
N   N8        1.0  0.16690  0.12470  0.50500  1.0000 -0.0966752349
N   N9        1.0  0.93050  0.68170  0.16250  1.0000 -0.3243396758
N   N10       1.0  0.31830  0.06950  0.66250  1.0000 -0.3243396758
N   N11       1.0  0.13000  0.89000  0.92340  1.0000 -0.5755546867
N   N12       1.0  0.11000  0.87000  0.42340  1.0000 -0.5755546867
N   N13       1.0  0.26080  0.61720  0.17370  1.0000 -0.339026819
N   N14       1.0  0.38280  0.73920  0.67370  1.0000 -0.339026819
N   N15       1.0  0.39620  0.49720  0.24290  1.0000 -0.0739568947
N   N16       1.0  0.50280  0.60380  0.74290  1.0000 -0.0739568947
N   N17       1.0  0.46310  0.56210  0.15550  1.0000 -0.0648721299
N   N18       1.0  0.43790  0.53690  0.65550  1.0000 -0.0648721299
N   N19       1.0  0.37480  0.72160  0.02070  1.0000 -0.339026819
N   N20       1.0  0.27840  0.62520  0.52070  1.0000 -0.339026819
