# DDEC6 charges by PACMAN v1.1 (https://github.com/mtap-research/PACMAN-charge/)
data_0000[Cd][bcu]3[ASR]1
_chemical_formula_sum              "Cd4 H64 C96 N8 O16"
_cell_length_a       9.7055
_cell_length_b       17.8498
_cell_length_c       14.7845
_cell_angle_alpha    90
_cell_angle_beta     94.7485
_cell_angle_gamma    90

_symmetry_space_group_name_H-M    "P 1"
_symmetry_Int_Tables_number       1

loop_
  _symmetry_equiv_pos_as_xyz
  'x, y, z'

loop_
  _atom_site_type_symbol
  _atom_site_label
  _atom_site_symmetry_multiplicity
  _atom_site_fract_x
  _atom_site_fract_y
  _atom_site_fract_z
  _atom_site_occupancy
  _atom_site_charge
Cd  Cd1       1.0  0.13167  0.41841  0.48075  1.0000 0.8502196728
Cd  Cd2       1.0  0.86833  0.91841  0.01926  1.0000 0.8502196728
Cd  Cd3       1.0  0.86833  0.58159  0.51926  1.0000 0.8502196728
Cd  Cd4       1.0  0.13167  0.08159  0.98075  1.0000 0.8502196728
H   H1        1.0  0.07970  0.63010  0.72911  1.0000 0.1272888177
H   H2        1.0  0.92030  0.13010  0.77090  1.0000 0.1272888177
H   H3        1.0  0.92030  0.36990  0.27089  1.0000 0.1272888177
H   H4        1.0  0.07970  0.86990  0.22911  1.0000 0.1272888177
H   H5        1.0  0.41260  0.67670  0.89911  1.0000 0.1156400436
H   H6        1.0  0.58740  0.17670  0.60089  1.0000 0.1156400436
H   H7        1.0  0.58740  0.32330  0.10089  1.0000 0.1156400436
H   H8        1.0  0.41260  0.82330  0.39910  1.0000 0.1156400436
H   H9        1.0  0.53490  0.58540  0.83091  1.0000 0.1156400436
H   H10       1.0  0.46510  0.08540  0.66910  1.0000 0.1156400436
H   H11       1.0  0.46510  0.41460  0.16910  1.0000 0.1156400436
H   H12       1.0  0.53490  0.91460  0.33091  1.0000 0.1156400436
H   H13       1.0  0.42750  0.51010  0.71850  1.0000 0.1109284901
H   H14       1.0  0.57250  0.01010  0.78150  1.0000 0.1109284901
H   H15       1.0  0.57250  0.48990  0.28149  1.0000 0.1109284901
H   H16       1.0  0.42750  0.98990  0.21851  1.0000 0.1109284901
H   H17       1.0  0.92950  0.85250  0.82510  1.0000 0.1109284901
H   H18       1.0  0.07050  0.35250  0.67490  1.0000 0.1109284901
H   H19       1.0  0.07050  0.14750  0.17489  1.0000 0.1109284901
H   H20       1.0  0.92950  0.64750  0.32511  1.0000 0.1109284901
H   H21       1.0  0.04430  0.76070  0.75461  1.0000 0.1415781736
H   H22       1.0  0.95570  0.26070  0.74540  1.0000 0.1415781736
H   H23       1.0  0.95570  0.23930  0.24540  1.0000 0.1415781736
H   H24       1.0  0.04430  0.73930  0.25461  1.0000 0.1415781736
H   H25       1.0  0.23580  0.70780  0.99381  1.0000 0.1272888177
H   H26       1.0  0.76420  0.20780  0.50619  1.0000 0.1272888177
H   H27       1.0  0.76420  0.29220  0.00620  1.0000 0.1272888177
H   H28       1.0  0.23580  0.79220  0.49380  1.0000 0.1272888177
H   H29       1.0  0.11420  0.79980  0.05871  1.0000 0.1109284901
H   H30       1.0  0.88580  0.29980  0.44130  1.0000 0.1109284901
H   H31       1.0  0.88580  0.20020  0.94129  1.0000 0.1109284901
H   H32       1.0  0.11420  0.70020  0.55871  1.0000 0.1109284901
H   H33       1.0  0.52150  0.25480  0.43300  1.0000 0.1156400436
H   H34       1.0  0.47850  0.75480  0.06699  1.0000 0.1156400436
H   H35       1.0  0.47850  0.74520  0.56700  1.0000 0.1156400436
H   H36       1.0  0.52150  0.24520  0.93301  1.0000 0.1156400436
H   H37       1.0  0.64720  0.17130  0.35601  1.0000 0.1109284901
H   H38       1.0  0.35280  0.67130  0.14400  1.0000 0.1109284901
H   H39       1.0  0.35280  0.82870  0.64399  1.0000 0.1109284901
H   H40       1.0  0.64720  0.32870  0.85601  1.0000 0.1109284901
H   H41       1.0  0.36810  0.18360  0.14371  1.0000 0.1272888177
H   H42       1.0  0.63190  0.68360  0.35629  1.0000 0.1272888177
H   H43       1.0  0.63190  0.81640  0.85630  1.0000 0.1272888177
H   H44       1.0  0.36810  0.31640  0.64370  1.0000 0.1272888177
H   H45       1.0  0.24090  0.26590  0.22171  1.0000 0.1109284901
H   H46       1.0  0.75910  0.76590  0.27830  1.0000 0.1109284901
H   H47       1.0  0.75910  0.73410  0.77829  1.0000 0.1109284901
H   H48       1.0  0.24090  0.23410  0.72171  1.0000 0.1109284901
H   H49       1.0  0.84720  0.99050  0.21501  1.0000 0.1156400436
H   H50       1.0  0.15280  0.49050  0.28500  1.0000 0.1156400436
H   H51       1.0  0.15280  0.00950  0.78499  1.0000 0.1156400436
H   H52       1.0  0.84720  0.50950  0.71501  1.0000 0.1156400436
H   H53       1.0  0.73050  0.07410  0.29601  1.0000 0.1272888177
H   H54       1.0  0.26950  0.57410  0.20400  1.0000 0.1272888177
H   H55       1.0  0.26950  0.92590  0.70400  1.0000 0.1272888177
H   H56       1.0  0.73050  0.42590  0.79601  1.0000 0.1272888177
H   H57       1.0  0.51160  0.13170  0.06581  1.0000 0.1415781736
H   H58       1.0  0.48840  0.63170  0.43419  1.0000 0.1415781736
H   H59       1.0  0.48840  0.86830  0.93420  1.0000 0.1415781736
H   H60       1.0  0.51160  0.36830  0.56581  1.0000 0.1415781736
H   H61       1.0  0.63260  0.04600  0.99230  1.0000 0.1109284901
H   H62       1.0  0.36740  0.54600  0.50770  1.0000 0.1109284901
H   H63       1.0  0.36740  0.95400  0.00770  1.0000 0.1109284901
H   H64       1.0  0.63260  0.45400  0.49231  1.0000 0.1109284901
C   C1        1.0  0.17550  0.51532  0.63681  1.0000 0.5393373727
C   C2        1.0  0.82450  0.01532  0.86320  1.0000 0.5393373727
C   C3        1.0  0.82450  0.48468  0.36320  1.0000 0.5393373727
C   C4        1.0  0.17550  0.98468  0.13681  1.0000 0.5393373727
C   C5        1.0  0.24190  0.56270  0.71210  1.0000 -0.0199437139
C   C6        1.0  0.75810  0.06270  0.78790  1.0000 -0.0199437139
C   C7        1.0  0.75810  0.43730  0.28790  1.0000 -0.0199437139
C   C8        1.0  0.24190  0.93730  0.21211  1.0000 -0.0199437139
C   C9        1.0  0.17040  0.62000  0.75091  1.0000 -0.1621221022
C   C10       1.0  0.82960  0.12000  0.74910  1.0000 -0.1621221022
C   C11       1.0  0.82960  0.38000  0.24910  1.0000 -0.1621221022
C   C12       1.0  0.17040  0.88000  0.25090  1.0000 -0.1621221022
C   C13       1.0  0.23250  0.66280  0.82241  1.0000 0.0712490909
C   C14       1.0  0.76750  0.16280  0.67760  1.0000 0.0712490909
C   C15       1.0  0.76750  0.33720  0.17760  1.0000 0.0712490909
C   C16       1.0  0.23250  0.83720  0.32240  1.0000 0.0712490909
C   C17       1.0  0.36960  0.64860  0.85191  1.0000 -0.1411178649
C   C18       1.0  0.63040  0.14860  0.64809  1.0000 -0.1411178649
C   C19       1.0  0.63040  0.35140  0.14810  1.0000 -0.1411178649
C   C20       1.0  0.36960  0.85140  0.35191  1.0000 -0.1411178649
C   C21       1.0  0.44230  0.59320  0.81180  1.0000 -0.085804248
C   C22       1.0  0.55770  0.09320  0.68820  1.0000 -0.085804248
C   C23       1.0  0.55770  0.40680  0.18820  1.0000 -0.085804248
C   C24       1.0  0.44230  0.90680  0.31180  1.0000 -0.085804248
C   C25       1.0  0.37890  0.54890  0.74341  1.0000 -0.1140536086
C   C26       1.0  0.62110  0.04890  0.75660  1.0000 -0.1140536086
C   C27       1.0  0.62110  0.45110  0.25660  1.0000 -0.1140536086
C   C28       1.0  0.37890  0.95110  0.24341  1.0000 -0.1140536086
C   C29       1.0  0.99120  0.82240  0.86021  1.0000 0.0712490909
C   C30       1.0  0.00880  0.32240  0.63980  1.0000 0.0712490909
C   C31       1.0  0.00880  0.17760  0.13980  1.0000 0.0712490909
C   C32       1.0  0.99120  0.67760  0.36020  1.0000 0.0712490909
C   C33       1.0  0.06070  0.76740  0.81700  1.0000 -0.1965506316
C   C34       1.0  0.93930  0.26740  0.68300  1.0000 -0.1965506316
C   C35       1.0  0.93930  0.23260  0.18299  1.0000 -0.1965506316
C   C36       1.0  0.06070  0.73260  0.31700  1.0000 -0.1965506316
C   C37       1.0  0.15430  0.72260  0.86601  1.0000 0.1109284901
C   C38       1.0  0.84570  0.22260  0.63399  1.0000 0.1109284901
C   C39       1.0  0.84570  0.27740  0.13400  1.0000 0.1109284901
C   C40       1.0  0.15430  0.77740  0.36601  1.0000 0.1109284901
C   C41       1.0  0.17280  0.73640  0.95761  1.0000 -0.2070693948
C   C42       1.0  0.82720  0.23640  0.54239  1.0000 -0.2070693948
C   C43       1.0  0.82720  0.26360  0.04240  1.0000 -0.2070693948
C   C44       1.0  0.17280  0.76360  0.45760  1.0000 -0.2070693948
C   C45       1.0  0.09910  0.79200  0.99651  1.0000 0.0781212191
C   C46       1.0  0.90090  0.29200  0.50350  1.0000 0.0781212191
C   C47       1.0  0.90090  0.20800  0.00349  1.0000 0.0781212191
C   C48       1.0  0.09910  0.70800  0.49650  1.0000 0.0781212191
C   C49       1.0  0.27360  0.31570  0.39031  1.0000 0.5393373727
C   C50       1.0  0.72640  0.81570  0.10970  1.0000 0.5393373727
C   C51       1.0  0.72640  0.68430  0.60969  1.0000 0.5393373727
C   C52       1.0  0.27360  0.18430  0.89031  1.0000 0.5393373727
C   C53       1.0  0.36230  0.26540  0.33791  1.0000 -0.0147937049
C   C54       1.0  0.63770  0.76540  0.16210  1.0000 -0.0147937049
C   C55       1.0  0.63770  0.73460  0.66209  1.0000 -0.0147937049
C   C56       1.0  0.36230  0.23460  0.83791  1.0000 -0.0147937049
C   C57       1.0  0.48810  0.23910  0.37531  1.0000 -0.1140536086
C   C58       1.0  0.51190  0.73910  0.12470  1.0000 -0.1140536086
C   C59       1.0  0.51190  0.76090  0.62470  1.0000 -0.1140536086
C   C60       1.0  0.48810  0.26090  0.87531  1.0000 -0.1140536086
C   C61       1.0  0.56470  0.18990  0.32821  1.0000 -0.1621221022
C   C62       1.0  0.43530  0.68990  0.17180  1.0000 -0.1621221022
C   C63       1.0  0.43530  0.81010  0.67180  1.0000 -0.1621221022
C   C64       1.0  0.56470  0.31010  0.82820  1.0000 -0.1621221022
C   C65       1.0  0.52290  0.16750  0.24121  1.0000 0.0647499098
C   C66       1.0  0.47710  0.66750  0.25879  1.0000 0.0647499098
C   C67       1.0  0.47710  0.83250  0.75879  1.0000 0.0647499098
C   C68       1.0  0.52290  0.33250  0.74121  1.0000 0.0647499098
C   C69       1.0  0.39930  0.19710  0.20270  1.0000 -0.1282964514
C   C70       1.0  0.60070  0.69710  0.29729  1.0000 -0.1282964514
C   C71       1.0  0.60070  0.80290  0.79729  1.0000 -0.1282964514
C   C72       1.0  0.39930  0.30290  0.70271  1.0000 -0.1282964514
C   C73       1.0  0.32190  0.24590  0.24990  1.0000 -0.1049604655
C   C74       1.0  0.67810  0.74590  0.25010  1.0000 -0.1049604655
C   C75       1.0  0.67810  0.75410  0.75010  1.0000 -0.1049604655
C   C76       1.0  0.32190  0.25410  0.74991  1.0000 -0.1049604655
C   C77       1.0  0.77860  0.01950  0.18451  1.0000 0.0712490909
C   C78       1.0  0.22140  0.51950  0.31550  1.0000 0.0712490909
C   C79       1.0  0.22140  0.98050  0.81549  1.0000 0.0712490909
C   C80       1.0  0.77860  0.48050  0.68451  1.0000 0.0712490909
C   C81       1.0  0.70870  0.06970  0.23381  1.0000 -0.2070693948
C   C82       1.0  0.29130  0.56970  0.26620  1.0000 -0.2070693948
C   C83       1.0  0.29130  0.93030  0.76619  1.0000 -0.2070693948
C   C84       1.0  0.70870  0.43030  0.73381  1.0000 -0.2070693948
C   C85       1.0  0.60460  0.11410  0.19071  1.0000 0.1109284901
C   C86       1.0  0.39540  0.61410  0.30929  1.0000 0.1109284901
C   C87       1.0  0.39540  0.88590  0.80929  1.0000 0.1109284901
C   C88       1.0  0.60460  0.38590  0.69071  1.0000 0.1109284901
C   C89       1.0  0.57940  0.10360  0.09831  1.0000 -0.1869024129
C   C90       1.0  0.42060  0.60360  0.40170  1.0000 -0.1869024129
C   C91       1.0  0.42060  0.89640  0.90170  1.0000 -0.1869024129
C   C92       1.0  0.57940  0.39640  0.59830  1.0000 -0.1869024129
C   C93       1.0  0.65340  0.05210  0.05441  1.0000 0.0712490909
C   C94       1.0  0.34660  0.55210  0.44560  1.0000 0.0712490909
C   C95       1.0  0.34660  0.94790  0.94559  1.0000 0.0712490909
C   C96       1.0  0.65340  0.44790  0.55441  1.0000 0.0712490909
N   N1        1.0  0.00710  0.83503  0.94911  1.0000 -0.2298050315
N   N2        1.0  0.99290  0.33503  0.55090  1.0000 -0.2298050315
N   N3        1.0  0.99290  0.16497  0.05090  1.0000 -0.2298050315
N   N4        1.0  0.00710  0.66497  0.44911  1.0000 -0.2298050315
N   N5        1.0  0.75360  0.00998  0.09491  1.0000 -0.2393369467
N   N6        1.0  0.24640  0.50998  0.40510  1.0000 -0.2393369467
N   N7        1.0  0.24640  0.99002  0.90509  1.0000 -0.2393369467
N   N8        1.0  0.75360  0.49002  0.59491  1.0000 -0.2393369467
O   O1        1.0  0.23810  0.45786  0.61562  1.0000 -0.5267891825
O   O2        1.0  0.76190  0.95786  0.88438  1.0000 -0.5267891825
O   O3        1.0  0.76190  0.54214  0.38438  1.0000 -0.5267891825
O   O4        1.0  0.23810  0.04214  0.11563  1.0000 -0.5267891825
O   O5        1.0  0.31620  0.33360  0.46941  1.0000 -0.5505556107
O   O6        1.0  0.68380  0.83360  0.03060  1.0000 -0.5505556107
O   O7        1.0  0.68380  0.66640  0.53060  1.0000 -0.5505556107
O   O8        1.0  0.31620  0.16640  0.96940  1.0000 -0.5505556107
O   O9        1.0  0.16030  0.33767  0.35346  1.0000 -0.5505556107
O   O10       1.0  0.83970  0.83767  0.14653  1.0000 -0.5505556107
O   O11       1.0  0.83970  0.66233  0.64653  1.0000 -0.5505556107
O   O12       1.0  0.16030  0.16233  0.85347  1.0000 -0.5505556107
O   O13       1.0  0.06560  0.53612  0.59691  1.0000 -0.5571595372
O   O14       1.0  0.93440  0.03612  0.90310  1.0000 -0.5571595372
O   O15       1.0  0.93440  0.46388  0.40309  1.0000 -0.5571595372
O   O16       1.0  0.06560  0.96388  0.09691  1.0000 -0.5571595372
