# DDEC6 charges by PACMAN v1.1 (https://github.com/mtap-research/PACMAN-charge/)
data_0000[Cu][dia]3[ASR]1
_chemical_formula_sum              "Cu16 H128 C160 Se32 Br16 N32"
_cell_length_a       19.9193
_cell_length_b       19.9193
_cell_length_c       19.9193
_cell_angle_alpha    113.449
_cell_angle_beta     113.449
_cell_angle_gamma    101.779

_symmetry_space_group_name_H-M    "P 1"
_symmetry_Int_Tables_number       1

loop_
  _symmetry_equiv_pos_as_xyz
  'x, y, z'

loop_
  _atom_site_type_symbol
  _atom_site_label
  _atom_site_symmetry_multiplicity
  _atom_site_fract_x
  _atom_site_fract_y
  _atom_site_fract_z
  _atom_site_occupancy
  _atom_site_charge
Cu  Cu1       1.0  0.37608  0.15920  0.83384  1.0000 0.2940494452
Cu  Cu2       1.0  0.32536  0.54224  0.16616  1.0000 0.2940494452
Cu  Cu3       1.0  0.40920  0.12608  0.33384  1.0000 0.2940494452
Cu  Cu4       1.0  0.79224  0.07536  0.66616  1.0000 0.2940494452
Cu  Cu5       1.0  0.37392  0.09080  0.66616  1.0000 0.2940494452
Cu  Cu6       1.0  0.42464  0.70776  0.33384  1.0000 0.2940494452
Cu  Cu7       1.0  0.34080  0.12392  0.16616  1.0000 0.2940494452
Cu  Cu8       1.0  0.95776  0.17464  0.83384  1.0000 0.2940494452
Cu  Cu9       1.0  0.29224  0.62608  0.71688  1.0000 0.2940494452
Cu  Cu10      1.0  0.92464  0.59080  0.71688  1.0000 0.2956407849
Cu  Cu11      1.0  0.87392  0.20776  0.28312  1.0000 0.2940494452
Cu  Cu12      1.0  0.84080  0.67464  0.21688  1.0000 0.2956407849
Cu  Cu13      1.0  0.87608  0.04224  0.21688  1.0000 0.2956407849
Cu  Cu14      1.0  0.45776  0.62392  0.78312  1.0000 0.2940494452
Cu  Cu15      1.0  0.82536  0.65920  0.78312  1.0000 0.2940494452
Cu  Cu16      1.0  0.90920  0.57536  0.28312  1.0000 0.2956407849
H   H1        1.0  0.50820  0.44810  0.07210  1.0000 0.1275910769
H   H2        1.0  0.37600  0.43610  0.92790  1.0000 0.1275910769
H   H3        1.0  0.69810  0.25820  0.57210  1.0000 0.1275910769
H   H4        1.0  0.68610  0.12600  0.42790  1.0000 0.1275910769
H   H5        1.0  0.24180  0.80190  0.42790  1.0000 0.1275910769
H   H6        1.0  0.37400  0.81390  0.57210  1.0000 0.1275910769
H   H7        1.0  0.05190  0.99180  0.92790  1.0000 0.1275910769
H   H8        1.0  0.06390  0.12400  0.07210  1.0000 0.1275910769
H   H9        1.0  0.64030  0.47400  0.10050  1.0000 0.1212661328
H   H10       1.0  0.37350  0.53980  0.89950  1.0000 0.1212661328
H   H11       1.0  0.72400  0.39030  0.60050  1.0000 0.1212661328
H   H12       1.0  0.78980  0.12350  0.39950  1.0000 0.1212661328
H   H13       1.0  0.10970  0.77600  0.39950  1.0000 0.1212661328
H   H14       1.0  0.37650  0.71020  0.60050  1.0000 0.1212661328
H   H15       1.0  0.02600  0.85970  0.89950  1.0000 0.1212661328
H   H16       1.0  0.96020  0.12650  0.10050  1.0000 0.1212661328
H   H17       1.0  0.66270  0.36750  0.01880  1.0000 0.1275910769
H   H18       1.0  0.34870  0.64390  0.98120  1.0000 0.1275910769
H   H19       1.0  0.61750  0.41270  0.51880  1.0000 0.1275910769
H   H20       1.0  0.89390  0.09870  0.48120  1.0000 0.1275910769
H   H21       1.0  0.08730  0.88250  0.48120  1.0000 0.1275910769
H   H22       1.0  0.40130  0.60610  0.51880  1.0000 0.1275910769
H   H23       1.0  0.13250  0.83730  0.98120  1.0000 0.1275910769
H   H24       1.0  0.85610  0.15130  0.01880  1.0000 0.1275910769
H   H25       1.0  0.55660  0.24310  0.91450  1.0000 0.1082385374
H   H26       1.0  0.32860  0.64210  0.08550  1.0000 0.1082385374
H   H27       1.0  0.49310  0.30660  0.41450  1.0000 0.1082385374
H   H28       1.0  0.89210  0.07860  0.58550  1.0000 0.1082385374
H   H29       1.0  0.19340  0.00690  0.58550  1.0000 0.1082385374
H   H30       1.0  0.42140  0.60790  0.41450  1.0000 0.1082385374
H   H31       1.0  0.25690  0.94340  0.08550  1.0000 0.1082385374
H   H32       1.0  0.85790  0.17140  0.91450  1.0000 0.1082385374
H   H33       1.0  0.25200  0.97510  0.90090  1.0000 0.1393657728
H   H34       1.0  0.07420  0.35110  0.09910  1.0000 0.1393657728
H   H35       1.0  0.22510  0.00200  0.40090  1.0000 0.1393657728
H   H36       1.0  0.60110  0.82420  0.59910  1.0000 0.1393657728
H   H37       1.0  0.49800  0.27490  0.59910  1.0000 0.1393657728
H   H38       1.0  0.67580  0.89890  0.40090  1.0000 0.1393657728
H   H39       1.0  0.52490  0.24800  0.09910  1.0000 0.1393657728
H   H40       1.0  0.14890  0.42580  0.90090  1.0000 0.1393657728
H   H41       1.0  0.11850  0.95080  0.81610  1.0000 0.1212661328
H   H42       1.0  0.13470  0.30240  0.18390  1.0000 0.1212661328
H   H43       1.0  0.20080  0.86850  0.31610  1.0000 0.1212661328
H   H44       1.0  0.55240  0.88470  0.68390  1.0000 0.1212661328
H   H45       1.0  0.63150  0.29920  0.68390  1.0000 0.1212661328
H   H46       1.0  0.61530  0.94760  0.31610  1.0000 0.1212661328
H   H47       1.0  0.54920  0.38150  0.18390  1.0000 0.1212661328
H   H48       1.0  0.19760  0.36530  0.81610  1.0000 0.1212661328
H   H49       1.0  0.08850  0.01190  0.73900  1.0000 0.1393657728
H   H50       1.0  0.27290  0.34950  0.26100  1.0000 0.1393657728
H   H51       1.0  0.26190  0.83850  0.23900  1.0000 0.1393657728
H   H52       1.0  0.59950  0.02290  0.76100  1.0000 0.1393657728
H   H53       1.0  0.66150  0.23810  0.76100  1.0000 0.1393657728
H   H54       1.0  0.47710  0.90050  0.23900  1.0000 0.1393657728
H   H55       1.0  0.48810  0.41150  0.26100  1.0000 0.1393657728
H   H56       1.0  0.15050  0.22710  0.73900  1.0000 0.1393657728
H   H57       1.0  0.19470  0.09730  0.74640  1.0000 0.099831048
H   H58       1.0  0.35090  0.44830  0.25360  1.0000 0.099831048
H   H59       1.0  0.34730  0.94470  0.24640  1.0000 0.099831048
H   H60       1.0  0.69830  0.10090  0.75360  1.0000 0.099831048
H   H61       1.0  0.55530  0.15270  0.75360  1.0000 0.099831048
H   H62       1.0  0.39910  0.80170  0.24640  1.0000 0.099831048
H   H63       1.0  0.40270  0.30530  0.25360  1.0000 0.099831048
H   H64       1.0  0.05170  0.14910  0.74640  1.0000 0.099831048
H   H65       1.0  0.18610  0.75820  0.56010  1.0000 0.1275910769
H   H66       1.0  0.87400  0.30190  0.56010  1.0000 0.1275910769
H   H67       1.0  0.74180  0.31390  0.43990  1.0000 0.1275910769
H   H68       1.0  0.55190  0.62400  0.06010  1.0000 0.1275910769
H   H69       1.0  0.00820  0.93610  0.06010  1.0000 0.1275910769
H   H70       1.0  0.56390  0.49180  0.93990  1.0000 0.1275910769
H   H71       1.0  0.87600  0.94810  0.93990  1.0000 0.1275910769
H   H72       1.0  0.19810  0.62600  0.43990  1.0000 0.1275910769
H   H73       1.0  0.28980  0.89030  0.66630  1.0000 0.1212661328
H   H74       1.0  0.87650  0.27600  0.66630  1.0000 0.1212661328
H   H75       1.0  0.60970  0.21020  0.33370  1.0000 0.1212661328
H   H76       1.0  0.52600  0.62650  0.16630  1.0000 0.1212661328
H   H77       1.0  0.14030  0.03980  0.16630  1.0000 0.1212661328
H   H78       1.0  0.46020  0.35970  0.83370  1.0000 0.1212661328
H   H79       1.0  0.87350  0.97400  0.83370  1.0000 0.1212661328
H   H80       1.0  0.22400  0.62350  0.33370  1.0000 0.1212661328
H   H81       1.0  0.39390  0.91270  0.79520  1.0000 0.1275910769
H   H82       1.0  0.90130  0.38250  0.79520  1.0000 0.1275910769
H   H83       1.0  0.58730  0.10610  0.20480  1.0000 0.1275910769
H   H84       1.0  0.63250  0.65130  0.29520  1.0000 0.1275910769
H   H85       1.0  0.16270  0.14390  0.29520  1.0000 0.1275910769
H   H86       1.0  0.35610  0.33730  0.70480  1.0000 0.1275910769
H   H87       1.0  0.84870  0.86750  0.70480  1.0000 0.1275910769
H   H88       1.0  0.11750  0.59870  0.20480  1.0000 0.1275910769
H   H89       1.0  0.39210  0.80660  0.81350  1.0000 0.1082385374
H   H90       1.0  0.92140  0.50690  0.81350  1.0000 0.1082385374
H   H91       1.0  0.69340  0.10790  0.18650  1.0000 0.1082385374
H   H92       1.0  0.75690  0.67140  0.31350  1.0000 0.1082385374
H   H93       1.0  0.05660  0.14210  0.31350  1.0000 0.1082385374
H   H94       1.0  0.35790  0.44340  0.68650  1.0000 0.1082385374
H   H95       1.0  0.82860  0.74310  0.68650  1.0000 0.1082385374
H   H96       1.0  0.99310  0.57860  0.18650  1.0000 0.1082385374
H   H97       1.0  0.10110  0.50200  0.77690  1.0000 0.1393657728
H   H98       1.0  0.17580  0.77490  0.77690  1.0000 0.1393657728
H   H99       1.0  0.99800  0.39890  0.22310  1.0000 0.1393657728
H   H100      1.0  0.02490  0.92580  0.27690  1.0000 0.1393657728
H   H101      1.0  0.75200  0.85110  0.27690  1.0000 0.1393657728
H   H102      1.0  0.64890  0.74800  0.72310  1.0000 0.1393657728
H   H103      1.0  0.57420  0.47510  0.72310  1.0000 0.1393657728
H   H104      1.0  0.72510  0.32420  0.22310  1.0000 0.1393657728
H   H105      1.0  0.05240  0.36850  0.66770  1.0000 0.1212661328
H   H106      1.0  0.11530  0.79920  0.66770  1.0000 0.1212661328
H   H107      1.0  0.13150  0.44760  0.33230  1.0000 0.1212661328
H   H108      1.0  0.04920  0.86530  0.16770  1.0000 0.1212661328
H   H109      1.0  0.61850  0.80240  0.16770  1.0000 0.1212661328
H   H110      1.0  0.69760  0.88150  0.83230  1.0000 0.1212661328
H   H111      1.0  0.63470  0.45080  0.83230  1.0000 0.1212661328
H   H112      1.0  0.70080  0.38470  0.33230  1.0000 0.1212661328
H   H113      1.0  0.09950  0.33850  0.57660  1.0000 0.1393657728
H   H114      1.0  0.97710  0.73810  0.57660  1.0000 0.1393657728
H   H115      1.0  0.16150  0.40050  0.42340  1.0000 0.1393657728
H   H116      1.0  0.98810  0.72710  0.07660  1.0000 0.1393657728
H   H117      1.0  0.58850  0.84950  0.07660  1.0000 0.1393657728
H   H118      1.0  0.65050  0.91150  0.92340  1.0000 0.1393657728
H   H119      1.0  0.77290  0.51190  0.92340  1.0000 0.1393657728
H   H120      1.0  0.76190  0.52290  0.42340  1.0000 0.1393657728
H   H121      1.0  0.19830  0.44470  0.59740  1.0000 0.099831048
H   H122      1.0  0.89910  0.65270  0.59740  1.0000 0.099831048
H   H123      1.0  0.05530  0.30170  0.40260  1.0000 0.099831048
H   H124      1.0  0.90270  0.64910  0.09740  1.0000 0.099831048
H   H125      1.0  0.69470  0.94830  0.09740  1.0000 0.099831048
H   H126      1.0  0.55170  0.80530  0.90260  1.0000 0.099831048
H   H127      1.0  0.85090  0.59730  0.90260  1.0000 0.099831048
H   H128      1.0  0.84730  0.60090  0.40260  1.0000 0.099831048
C   C1        1.0  0.45780  0.32870  0.97710  1.0000 0.153300855
C   C2        1.0  0.35160  0.48070  0.02290  1.0000 0.153300855
C   C3        1.0  0.57870  0.20780  0.47710  1.0000 0.153300855
C   C4        1.0  0.73070  0.10160  0.52290  1.0000 0.153300855
C   C5        1.0  0.29220  0.92130  0.52290  1.0000 0.153300855
C   C6        1.0  0.39840  0.76930  0.47710  1.0000 0.153300855
C   C7        1.0  0.17130  0.04220  0.02290  1.0000 0.153300855
C   C8        1.0  0.01930  0.14840  0.97710  1.0000 0.153300855
C   C9        1.0  0.51930  0.40640  0.04070  1.0000 -0.1845575091
C   C10       1.0  0.36570  0.47860  0.95930  1.0000 -0.1893415396
C   C11       1.0  0.65640  0.26930  0.54070  1.0000 -0.1893415396
C   C12       1.0  0.72860  0.11570  0.45930  1.0000 -0.1893415396
C   C13       1.0  0.23070  0.84360  0.45930  1.0000 -0.1893415396
C   C14       1.0  0.38430  0.77140  0.54070  1.0000 -0.1893415396
C   C15       1.0  0.09360  0.98070  0.95930  1.0000 -0.1893415396
C   C16       1.0  0.02140  0.13430  0.04070  1.0000 -0.1845575091
C   C17       1.0  0.59690  0.42160  0.05710  1.0000 -0.0241524168
C   C18       1.0  0.36450  0.53980  0.94290  1.0000 -0.0241524168
C   C19       1.0  0.67160  0.34690  0.55710  1.0000 -0.0241524168
C   C20       1.0  0.78980  0.11450  0.44290  1.0000 -0.0241524168
C   C21       1.0  0.15310  0.82840  0.44290  1.0000 -0.0241524168
C   C22       1.0  0.38550  0.71020  0.55710  1.0000 -0.0241524168
C   C23       1.0  0.07840  0.90310  0.94290  1.0000 -0.0241524168
C   C24       1.0  0.96020  0.13550  0.05710  1.0000 -0.0241524168
C   C25       1.0  0.61000  0.35870  0.00890  1.0000 -0.1504299188
C   C26       1.0  0.34980  0.60110  0.99110  1.0000 -0.1504299188
C   C27       1.0  0.60870  0.36000  0.50890  1.0000 -0.1504299188
C   C28       1.0  0.85110  0.09980  0.49110  1.0000 -0.1504299188
C   C29       1.0  0.14000  0.89130  0.49110  1.0000 -0.1504299188
C   C30       1.0  0.40020  0.64890  0.50890  1.0000 -0.1504299188
C   C31       1.0  0.14130  0.89000  0.99110  1.0000 -0.1504299188
C   C32       1.0  0.89890  0.15020  0.00890  1.0000 -0.1504299188
C   C33       1.0  0.54700  0.28510  0.94790  1.0000 0.05611864
C   C34       1.0  0.33720  0.59910  0.05210  1.0000 0.05611864
C   C35       1.0  0.53510  0.29700  0.44790  1.0000 0.05611864
C   C36       1.0  0.84910  0.08720  0.55210  1.0000 0.05611864
C   C37       1.0  0.20300  0.96490  0.55210  1.0000 0.05611864
C   C38       1.0  0.41280  0.65090  0.44790  1.0000 0.05611864
C   C39       1.0  0.21490  0.95300  0.05210  1.0000 0.05611864
C   C40       1.0  0.90090  0.16280  0.94790  1.0000 0.05611864
C   C41       1.0  0.30070  0.05060  0.87210  1.0000 0.153300855
C   C42       1.0  0.17850  0.42860  0.12790  1.0000 0.153300855
C   C43       1.0  0.30060  0.05070  0.37210  1.0000 0.153300855
C   C44       1.0  0.67860  0.92850  0.62790  1.0000 0.153300855
C   C45       1.0  0.44930  0.19940  0.62790  1.0000 0.153300855
C   C46       1.0  0.57150  0.82140  0.37210  1.0000 0.153300855
C   C47       1.0  0.44940  0.19930  0.12790  1.0000 0.153300855
C   C48       1.0  0.07140  0.32150  0.87210  1.0000 0.153300855
C   C49       1.0  0.23990  0.00030  0.86880  1.0000 -0.1893415396
C   C50       1.0  0.13150  0.37110  0.13120  1.0000 -0.1893415396
C   C51       1.0  0.25030  0.98990  0.36880  1.0000 -0.1893415396
C   C52       1.0  0.62110  0.88150  0.63120  1.0000 -0.1893415396
C   C53       1.0  0.51010  0.24970  0.63120  1.0000 -0.1893415396
C   C54       1.0  0.61850  0.87890  0.36880  1.0000 -0.1893415396
C   C55       1.0  0.49970  0.26010  0.13120  1.0000 -0.1893415396
C   C56       1.0  0.12890  0.36850  0.86880  1.0000 -0.1893415396
C   C57       1.0  0.16070  0.98600  0.81850  1.0000 -0.0353338477
C   C58       1.0  0.16750  0.34220  0.18150  1.0000 -0.0353338477
C   C59       1.0  0.23600  0.91070  0.31850  1.0000 -0.0353338477
C   C60       1.0  0.59220  0.91750  0.68150  1.0000 -0.0353338477
C   C61       1.0  0.58930  0.26400  0.68150  1.0000 -0.0353338477
C   C62       1.0  0.58250  0.90780  0.31850  1.0000 -0.0353338477
C   C63       1.0  0.51400  0.33930  0.18150  1.0000 -0.0353338477
C   C64       1.0  0.15780  0.33250  0.81850  1.0000 -0.0353338477
C   C65       1.0  0.14280  0.02120  0.77340  1.0000 -0.1504299188
C   C66       1.0  0.24780  0.36940  0.22660  1.0000 -0.1504299188
C   C67       1.0  0.27120  0.89280  0.27340  1.0000 -0.1504299188
C   C68       1.0  0.61940  0.99780  0.72660  1.0000 -0.1504299188
C   C69       1.0  0.60720  0.22880  0.72660  1.0000 -0.1504299188
C   C70       1.0  0.50220  0.88060  0.27340  1.0000 -0.1504299188
C   C71       1.0  0.47880  0.35720  0.22660  1.0000 -0.1504299188
C   C72       1.0  0.13060  0.25220  0.77340  1.0000 -0.1504299188
C   C73       1.0  0.20610  0.07160  0.77810  1.0000 0.081506007
C   C74       1.0  0.29350  0.42800  0.22190  1.0000 0.081506007
C   C75       1.0  0.32160  0.95610  0.27810  1.0000 0.081506007
C   C76       1.0  0.67800  0.04350  0.72190  1.0000 0.081506007
C   C77       1.0  0.54390  0.17840  0.72190  1.0000 0.081506007
C   C78       1.0  0.45650  0.82200  0.27810  1.0000 0.081506007
C   C79       1.0  0.42840  0.29390  0.22190  1.0000 0.081506007
C   C80       1.0  0.07200  0.20650  0.77810  1.0000 0.081506007
C   C81       1.0  0.23070  0.70780  0.62910  1.0000 0.153300855
C   C82       1.0  0.89840  0.42130  0.62910  1.0000 0.153300855
C   C83       1.0  0.79220  0.26930  0.37090  1.0000 0.153300855
C   C84       1.0  0.67130  0.64840  0.12910  1.0000 0.153300855
C   C85       1.0  0.95780  0.98070  0.12910  1.0000 0.153300855
C   C86       1.0  0.51930  0.54220  0.87090  1.0000 0.153300855
C   C87       1.0  0.85160  0.82870  0.87090  1.0000 0.153300855
C   C88       1.0  0.07870  0.60160  0.37090  1.0000 0.153300855
C   C89       1.0  0.22860  0.76930  0.61290  1.0000 -0.1893415396
C   C90       1.0  0.88430  0.34360  0.61290  1.0000 -0.1845575091
C   C91       1.0  0.73070  0.27140  0.38710  1.0000 -0.1893415396
C   C92       1.0  0.59360  0.63430  0.11290  1.0000 -0.1845575091
C   C93       1.0  0.01930  0.97860  0.11290  1.0000 -0.1893415396
C   C94       1.0  0.52140  0.48070  0.88710  1.0000 -0.1893415396
C   C95       1.0  0.86570  0.90640  0.88710  1.0000 -0.1893415396
C   C96       1.0  0.15640  0.61570  0.38710  1.0000 -0.1893415396
C   C97       1.0  0.28980  0.84690  0.67530  1.0000 -0.0241524168
C   C98       1.0  0.88550  0.32840  0.67530  1.0000 -0.0241524168
C   C99       1.0  0.65310  0.21020  0.32470  1.0000 -0.0241524168
C   C100      1.0  0.57840  0.63550  0.17530  1.0000 -0.0241524168
C   C101      1.0  0.09690  0.03980  0.17530  1.0000 -0.0241524168
C   C102      1.0  0.46020  0.40310  0.82470  1.0000 -0.0241524168
C   C103      1.0  0.86450  0.92160  0.82470  1.0000 -0.0241524168
C   C104      1.0  0.17160  0.61450  0.32470  1.0000 -0.0241524168
C   C105      1.0  0.35110  0.86000  0.75130  1.0000 -0.1504299188
C   C106      1.0  0.90020  0.39130  0.75130  1.0000 -0.1504299188
C   C107      1.0  0.64000  0.14890  0.24870  1.0000 -0.1504299188
C   C108      1.0  0.64130  0.65020  0.25130  1.0000 -0.1504299188
C   C109      1.0  0.11000  0.10110  0.25130  1.0000 -0.1504299188
C   C110      1.0  0.39890  0.39000  0.74870  1.0000 -0.1504299188
C   C111      1.0  0.84980  0.85870  0.74870  1.0000 -0.1504299188
C   C112      1.0  0.10870  0.59980  0.24870  1.0000 -0.1504299188
C   C113      1.0  0.34910  0.79700  0.76190  1.0000 0.05611864
C   C114      1.0  0.91280  0.46490  0.76190  1.0000 0.05611864
C   C115      1.0  0.70300  0.15090  0.23810  1.0000 0.05611864
C   C116      1.0  0.71490  0.66280  0.26190  1.0000 0.05611864
C   C117      1.0  0.04700  0.09910  0.26190  1.0000 0.05611864
C   C118      1.0  0.40090  0.45300  0.73810  1.0000 0.05611864
C   C119      1.0  0.83720  0.78510  0.73810  1.0000 0.05611864
C   C120      1.0  0.03510  0.58720  0.23810  1.0000 0.05611864
C   C121      1.0  0.17860  0.55070  0.75010  1.0000 0.153300855
C   C122      1.0  0.07150  0.69940  0.75010  1.0000 0.153300855
C   C123      1.0  0.94930  0.32140  0.24990  1.0000 0.153300855
C   C124      1.0  0.94940  0.82150  0.25010  1.0000 0.153300855
C   C125      1.0  0.80070  0.92860  0.25010  1.0000 0.153300855
C   C126      1.0  0.57140  0.69930  0.74990  1.0000 0.153300855
C   C127      1.0  0.67850  0.55060  0.74990  1.0000 0.153300855
C   C128      1.0  0.80060  0.42850  0.24990  1.0000 0.153300855
C   C129      1.0  0.12110  0.48990  0.73960  1.0000 -0.1893415396
C   C130      1.0  0.11850  0.74970  0.73960  1.0000 -0.1893415396
C   C131      1.0  0.01010  0.37890  0.26040  1.0000 -0.1893415396
C   C132      1.0  0.99970  0.86850  0.23960  1.0000 -0.1893415396
C   C133      1.0  0.73990  0.87110  0.23960  1.0000 -0.1893415396
C   C134      1.0  0.62890  0.76010  0.76040  1.0000 -0.1893415396
C   C135      1.0  0.63150  0.50030  0.76040  1.0000 -0.1893415396
C   C136      1.0  0.75030  0.38150  0.26040  1.0000 -0.1893415396
C   C137      1.0  0.09220  0.41070  0.67470  1.0000 -0.0353338477
C   C138      1.0  0.08250  0.76400  0.67470  1.0000 -0.0353338477
C   C139      1.0  0.08930  0.40780  0.32530  1.0000 -0.0353338477
C   C140      1.0  0.01400  0.83250  0.17470  1.0000 -0.0353338477
C   C141      1.0  0.66070  0.84220  0.17470  1.0000 -0.0353338477
C   C142      1.0  0.65780  0.83930  0.82530  1.0000 -0.0353338477
C   C143      1.0  0.66750  0.48600  0.82530  1.0000 -0.0353338477
C   C144      1.0  0.73600  0.41750  0.32530  1.0000 -0.0353338477
C   C145      1.0  0.11940  0.39280  0.62160  1.0000 -0.1504299188
C   C146      1.0  0.00220  0.72880  0.62160  1.0000 -0.1504299188
C   C147      1.0  0.10720  0.38060  0.37840  1.0000 -0.1504299188
C   C148      1.0  0.97880  0.75220  0.12160  1.0000 -0.1504299188
C   C149      1.0  0.64280  0.86940  0.12160  1.0000 -0.1504299188
C   C150      1.0  0.63060  0.85720  0.87840  1.0000 -0.1504299188
C   C151      1.0  0.74780  0.52120  0.87840  1.0000 -0.1504299188
C   C152      1.0  0.77120  0.49780  0.37840  1.0000 -0.1504299188
C   C153      1.0  0.17800  0.45610  0.63450  1.0000 0.081506007
C   C154      1.0  0.95650  0.67840  0.63450  1.0000 0.081506007
C   C155      1.0  0.04390  0.32200  0.36550  1.0000 0.081506007
C   C156      1.0  0.92840  0.70650  0.13450  1.0000 0.081506007
C   C157      1.0  0.70610  0.92800  0.13450  1.0000 0.081506007
C   C158      1.0  0.57200  0.79390  0.86550  1.0000 0.081506007
C   C159      1.0  0.79350  0.57160  0.86550  1.0000 0.081506007
C   C160      1.0  0.82160  0.54350  0.36550  1.0000 0.081506007
Se  Se1       1.0  0.34599  0.29654  0.94321  1.0000 -0.0338110723
Se  Se2       1.0  0.35333  0.40278  0.05679  1.0000 -0.0338110723
Se  Se3       1.0  0.54654  0.09599  0.44321  1.0000 -0.0353338477
Se  Se4       1.0  0.65278  0.10333  0.55679  1.0000 -0.0338110723
Se  Se5       1.0  0.40401  0.95346  0.55679  1.0000 -0.0338110723
Se  Se6       1.0  0.39667  0.84722  0.44321  1.0000 -0.0353338477
Se  Se7       1.0  0.20346  0.15401  0.05679  1.0000 -0.0338110723
Se  Se8       1.0  0.09722  0.14667  0.94321  1.0000 -0.0338110723
Se  Se9       1.0  0.41350  0.07781  0.93827  1.0000 -0.0033297303
Se  Se10      1.0  0.13954  0.47523  0.06173  1.0000 -0.0033297303
Se  Se11      1.0  0.32781  0.16350  0.43827  1.0000 -0.0033297303
Se  Se12      1.0  0.72523  0.88954  0.56173  1.0000 -0.0033297303
Se  Se13      1.0  0.33650  0.17219  0.56173  1.0000 -0.0033297303
Se  Se14      1.0  0.61046  0.77477  0.43827  1.0000 -0.0033297303
Se  Se15      1.0  0.42219  0.08650  0.06173  1.0000 -0.0033297303
Se  Se16      1.0  0.02477  0.36046  0.93827  1.0000 -0.0033297303
Se  Se17      1.0  0.15278  0.59599  0.54945  1.0000 -0.0353338477
Se  Se18      1.0  0.89667  0.45346  0.54945  1.0000 -0.0338110723
Se  Se19      1.0  0.90401  0.34722  0.45055  1.0000 -0.0353338477
Se  Se20      1.0  0.70346  0.64667  0.04945  1.0000 -0.0338110723
Se  Se21      1.0  0.84599  0.90278  0.04945  1.0000 -0.0338110723
Se  Se22      1.0  0.59722  0.65401  0.95055  1.0000 -0.0338110723
Se  Se23      1.0  0.85333  0.79654  0.95055  1.0000 -0.0338110723
Se  Se24      1.0  0.04654  0.60333  0.45055  1.0000 -0.0338110723
Se  Se25      1.0  0.22523  0.66350  0.83569  1.0000 -0.0033297303
Se  Se26      1.0  0.11046  0.67219  0.83569  1.0000 -0.0033297303
Se  Se27      1.0  0.83650  0.27477  0.16431  1.0000 -0.0033297303
Se  Se28      1.0  0.92219  0.86046  0.33569  1.0000 -0.0033297303
Se  Se29      1.0  0.91350  0.97523  0.33569  1.0000 -0.0033297303
Se  Se30      1.0  0.52477  0.58650  0.66431  1.0000 -0.0033297303
Se  Se31      1.0  0.63954  0.57781  0.66431  1.0000 -0.0033297303
Se  Se32      1.0  0.82781  0.38954  0.16431  1.0000 -0.0033297303
Br  Br1       1.0  0.30693  0.18500  0.71729  1.0000 -0.5022013135
Br  Br2       1.0  0.46771  0.58964  0.28271  1.0000 -0.5022013135
Br  Br3       1.0  0.43500  0.05693  0.21729  1.0000 -0.5022013135
Br  Br4       1.0  0.83964  0.21771  0.78271  1.0000 -0.5022013135
Br  Br5       1.0  0.44307  0.06500  0.78271  1.0000 -0.5022013135
Br  Br6       1.0  0.28229  0.66036  0.21729  1.0000 -0.5022013135
Br  Br7       1.0  0.31500  0.19307  0.28271  1.0000 -0.5022013135
Br  Br8       1.0  0.91036  0.03229  0.71729  1.0000 -0.5022013135
Br  Br9       1.0  0.33964  0.55693  0.62193  1.0000 -0.5022013135
Br  Br10      1.0  0.78229  0.56500  0.62193  1.0000 -0.5022013135
Br  Br11      1.0  0.94307  0.16036  0.37807  1.0000 -0.5022013135
Br  Br12      1.0  0.81500  0.53229  0.12193  1.0000 -0.5022013135
Br  Br13      1.0  0.80693  0.08964  0.12193  1.0000 -0.5022013135
Br  Br14      1.0  0.41036  0.69307  0.87807  1.0000 -0.5022013135
Br  Br15      1.0  0.96771  0.68500  0.87807  1.0000 -0.5022013135
Br  Br16      1.0  0.93500  0.71771  0.37807  1.0000 -0.5022013135
N   N1        1.0  0.47050  0.26770  0.93160  1.0000 -0.2337495204
N   N2        1.0  0.33610  0.53890  0.06840  1.0000 -0.2337495204
N   N3        1.0  0.51770  0.22050  0.43160  1.0000 -0.2337495204
N   N4        1.0  0.78890  0.08610  0.56840  1.0000 -0.2337495204
N   N5        1.0  0.27950  0.98230  0.56840  1.0000 -0.2337495204
N   N6        1.0  0.41390  0.71110  0.43160  1.0000 -0.2337495204
N   N7        1.0  0.23230  0.02950  0.06840  1.0000 -0.2337495204
N   N8        1.0  0.96110  0.16390  0.93160  1.0000 -0.2337495204
N   N9        1.0  0.28210  0.08470  0.82600  1.0000 -0.2118836831
N   N10       1.0  0.25870  0.45610  0.17400  1.0000 -0.2118836831
N   N11       1.0  0.33470  0.03210  0.32600  1.0000 -0.2118836831
N   N12       1.0  0.70610  0.00870  0.67400  1.0000 -0.2118836831
N   N13       1.0  0.46790  0.16530  0.67400  1.0000 -0.2118836831
N   N14       1.0  0.49130  0.79390  0.32600  1.0000 -0.2118836831
N   N15       1.0  0.41530  0.21790  0.17400  1.0000 -0.2118836831
N   N16       1.0  0.04390  0.24130  0.82600  1.0000 -0.2118836831
N   N17       1.0  0.28890  0.72050  0.70280  1.0000 -0.2337495204
N   N18       1.0  0.91390  0.48230  0.70280  1.0000 -0.2337495204
N   N19       1.0  0.77950  0.21110  0.29720  1.0000 -0.2337495204
N   N20       1.0  0.73230  0.66390  0.20280  1.0000 -0.2337495204
N   N21       1.0  0.97050  0.03890  0.20280  1.0000 -0.2337495204
N   N22       1.0  0.46110  0.52950  0.79720  1.0000 -0.2337495204
N   N23       1.0  0.83610  0.76770  0.79720  1.0000 -0.2337495204
N   N24       1.0  0.01770  0.58610  0.29720  1.0000 -0.2337495204
N   N25       1.0  0.20610  0.53210  0.69740  1.0000 -0.2118836831
N   N26       1.0  0.99130  0.66530  0.69740  1.0000 -0.2118836831
N   N27       1.0  0.96790  0.29390  0.30260  1.0000 -0.2118836831
N   N28       1.0  0.91530  0.74130  0.19740  1.0000 -0.2118836831
N   N29       1.0  0.78210  0.95610  0.19740  1.0000 -0.2118836831
N   N30       1.0  0.54390  0.71790  0.80260  1.0000 -0.2118836831
N   N31       1.0  0.75870  0.58470  0.80260  1.0000 -0.2118836831
N   N32       1.0  0.83470  0.50870  0.30260  1.0000 -0.2118836831
