# DDEC6 charges by PACMAN v1.1 (https://github.com/mtap-research/PACMAN-charge/)
data_0000[Cd][nan]3[ASR]7
_chemical_formula_sum              "Cd6 H76 C120 N24 O24"
_cell_length_a       14.1567
_cell_length_b       14.1567
_cell_length_c       24.437
_cell_angle_alpha    69.9636
_cell_angle_beta     110.036
_cell_angle_gamma    121.539

_symmetry_space_group_name_H-M    "P 1"
_symmetry_Int_Tables_number       1

loop_
  _symmetry_equiv_pos_as_xyz
  'x, y, z'

loop_
  _atom_site_type_symbol
  _atom_site_label
  _atom_site_symmetry_multiplicity
  _atom_site_fract_x
  _atom_site_fract_y
  _atom_site_fract_z
  _atom_site_occupancy
  _atom_site_charge
Cd  Cd1       1.0  0.26776  0.03972  0.55008  1.0000 0.8662473186
Cd  Cd2       1.0  0.03972  0.26776  0.94992  1.0000 0.8662473186
Cd  Cd3       1.0  0.73224  0.96028  0.44992  1.0000 0.8662473186
Cd  Cd4       1.0  0.96028  0.73224  0.05008  1.0000 0.8662473186
Cd  Cd5       1.0  0.70570  0.70570  0.25000  1.0000 0.8502644225
Cd  Cd6       1.0  0.29430  0.29430  0.75000  1.0000 0.8502644225
H   H1        1.0  0.33233  0.26157  0.12484  1.0000 0.1470657362
H   H2        1.0  0.35688  0.96976  0.19796  1.0000 0.1391150615
H   H3        1.0  0.61659  0.26411  0.24215  1.0000 0.1391150615
H   H4        1.0  0.63288  0.43564  0.25560  1.0000 0.1201531099
H   H5        1.0  0.56388  0.64438  0.11400  1.0000 0.1391150615
H   H6        1.0  0.45734  0.45692  0.08920  1.0000 0.1391150615
H   H7        1.0  0.21896  0.90688  0.11609  1.0000 0.1201531099
H   H8        1.0  0.12894  0.13512  0.10773  1.0000 0.1470657362
H   H9        1.0  0.96736  0.98126  0.06170  1.0000 0.1391150615
H   H10       1.0  0.62931  0.12147  0.33800  1.0000 0.1201531099
H   H11       1.0  0.51465  0.91819  0.22749  1.0000 0.1391150615
H   H12       1.0  0.62119  0.85195  0.32050  1.0000 0.1391150615
H   H13       1.0  0.02278  0.82608  0.39886  1.0000 0.1269234641
H   H14       1.0  0.24915  0.71365  0.50110  1.0000 0.1201531099
H   H15       1.0  0.98177  0.52855  0.38838  1.0000 0.112930674
H   H16       1.0  0.33417  0.64195  0.45766  1.0000 0.1201531099
H   H17       1.0  0.40464  0.51450  0.48209  1.0000 0.1201531099
H   H18       1.0  0.09818  0.25770  0.50486  1.0000 0.1201531099
H   H19       1.0  0.02458  0.38246  0.47363  1.0000 0.112930674
H   H20       1.0  0.26157  0.33233  0.37516  1.0000 0.1470657362
H   H21       1.0  0.96976  0.35688  0.30204  1.0000 0.1391150615
H   H22       1.0  0.26411  0.61659  0.25785  1.0000 0.1391150615
H   H23       1.0  0.43564  0.63288  0.24440  1.0000 0.1201531099
H   H24       1.0  0.64438  0.56388  0.38600  1.0000 0.1391150615
H   H25       1.0  0.45692  0.45734  0.41080  1.0000 0.1391150615
H   H26       1.0  0.90688  0.21896  0.38391  1.0000 0.1201531099
H   H27       1.0  0.13512  0.12894  0.39227  1.0000 0.1470657362
H   H28       1.0  0.98126  0.96736  0.43830  1.0000 0.1391150615
H   H29       1.0  0.12147  0.62931  0.16200  1.0000 0.1201531099
H   H30       1.0  0.91819  0.51465  0.27251  1.0000 0.1391150615
H   H31       1.0  0.85195  0.62119  0.17950  1.0000 0.1391150615
H   H32       1.0  0.82608  0.02278  0.10114  1.0000 0.1269234641
H   H33       1.0  0.71365  0.24915  0.99890  1.0000 0.1201531099
H   H34       1.0  0.52855  0.98177  0.11162  1.0000 0.112930674
H   H35       1.0  0.64195  0.33417  0.04234  1.0000 0.1201531099
H   H36       1.0  0.51450  0.40464  0.01791  1.0000 0.1201531099
H   H37       1.0  0.25770  0.09818  0.99514  1.0000 0.1201531099
H   H38       1.0  0.38246  0.02458  0.02637  1.0000 0.112930674
H   H39       1.0  0.66767  0.73843  0.87516  1.0000 0.1470657362
H   H40       1.0  0.64312  0.03024  0.80204  1.0000 0.1391150615
H   H41       1.0  0.38341  0.73589  0.75785  1.0000 0.1391150615
H   H42       1.0  0.36712  0.56436  0.74440  1.0000 0.1201531099
H   H43       1.0  0.43612  0.35562  0.88600  1.0000 0.1391150615
H   H44       1.0  0.54266  0.54308  0.91080  1.0000 0.1391150615
H   H45       1.0  0.78104  0.09312  0.88391  1.0000 0.1201531099
H   H46       1.0  0.87106  0.86488  0.89227  1.0000 0.1470657362
H   H47       1.0  0.03264  0.01874  0.93830  1.0000 0.1391150615
H   H48       1.0  0.37069  0.87853  0.66200  1.0000 0.1201531099
H   H49       1.0  0.48535  0.08181  0.77251  1.0000 0.1391150615
H   H50       1.0  0.37881  0.14805  0.67950  1.0000 0.1391150615
H   H51       1.0  0.97722  0.17392  0.60114  1.0000 0.1269234641
H   H52       1.0  0.75085  0.28635  0.49890  1.0000 0.1201531099
H   H53       1.0  0.01823  0.47145  0.61162  1.0000 0.112930674
H   H54       1.0  0.66583  0.35805  0.54234  1.0000 0.1201531099
H   H55       1.0  0.59536  0.48550  0.51791  1.0000 0.1201531099
H   H56       1.0  0.90182  0.74230  0.49514  1.0000 0.1201531099
H   H57       1.0  0.97542  0.61754  0.52637  1.0000 0.112930674
H   H58       1.0  0.73843  0.66767  0.62484  1.0000 0.1470657362
H   H59       1.0  0.03024  0.64312  0.69796  1.0000 0.1391150615
H   H60       1.0  0.73589  0.38341  0.74215  1.0000 0.1391150615
H   H61       1.0  0.56436  0.36712  0.75560  1.0000 0.1201531099
H   H62       1.0  0.35562  0.43612  0.61400  1.0000 0.1391150615
H   H63       1.0  0.54308  0.54266  0.58920  1.0000 0.1391150615
H   H64       1.0  0.09312  0.78104  0.61609  1.0000 0.1201531099
H   H65       1.0  0.86488  0.87106  0.60773  1.0000 0.1470657362
H   H66       1.0  0.01874  0.03264  0.56170  1.0000 0.1391150615
H   H67       1.0  0.87853  0.37069  0.83800  1.0000 0.1201531099
H   H68       1.0  0.08181  0.48535  0.72749  1.0000 0.1391150615
H   H69       1.0  0.14805  0.37881  0.82050  1.0000 0.1391150615
H   H70       1.0  0.17392  0.97722  0.89886  1.0000 0.1269234641
H   H71       1.0  0.28635  0.75085  0.00110  1.0000 0.1201531099
H   H72       1.0  0.47145  0.01823  0.88838  1.0000 0.112930674
H   H73       1.0  0.35805  0.66583  0.95766  1.0000 0.1201531099
H   H74       1.0  0.48550  0.59536  0.98209  1.0000 0.1201531099
H   H75       1.0  0.74230  0.90182  0.00486  1.0000 0.1201531099
H   H76       1.0  0.61754  0.97542  0.97363  1.0000 0.112930674
C   C1        1.0  0.48192  0.28088  0.18279  1.0000 0.2268878146
C   C2        1.0  0.37323  0.22317  0.14997  1.0000 -0.2569799126
C   C3        1.0  0.32776  0.10564  0.15606  1.0000 0.2241956479
C   C4        1.0  0.38772  0.04748  0.19399  1.0000 -0.2829710917
C   C5        1.0  0.49578  0.10842  0.22613  1.0000 0.2142361513
C   C6        1.0  0.54439  0.22481  0.22085  1.0000 -0.3003888317
C   C7        1.0  0.60282  0.46438  0.21746  1.0000 0.0890460876
C   C8        1.0  0.56460  0.57840  0.13938  1.0000 -0.0181095056
C   C9        1.0  0.50480  0.47480  0.12536  1.0000 -0.0910412701
C   C10       1.0  0.17652  0.94448  0.10802  1.0000 0.0890460876
C   C11       1.0  0.12778  0.07122  0.10408  1.0000 -0.0910412701
C   C12       1.0  0.03917  0.98623  0.07819  1.0000 -0.0019840555
C   C13       1.0  0.61401  0.06219  0.32255  1.0000 0.0890460876
C   C14       1.0  0.55040  0.95100  0.26079  1.0000 -0.0910412701
C   C15       1.0  0.60895  0.91425  0.31256  1.0000 -0.0289102779
C   C16       1.0  0.87741  0.65759  0.33958  1.0000 0.5471352264
C   C17       1.0  0.98514  0.67446  0.38637  1.0000 -0.0106138985
C   C18       1.0  0.04626  0.77034  0.41182  1.0000 -0.1281773971
C   C19       1.0  0.14285  0.78215  0.45690  1.0000 -0.0106138985
C   C20       1.0  0.18289  0.70331  0.47261  1.0000 -0.1604797078
C   C21       1.0  0.12530  0.60850  0.44636  1.0000 0.0695730689
C   C22       1.0  0.02378  0.59342  0.40437  1.0000 -0.1604797078
C   C23       1.0  0.17125  0.52655  0.46267  1.0000 0.0695730689
C   C24       1.0  0.28609  0.56471  0.46587  1.0000 -0.144730054
C   C25       1.0  0.32872  0.48808  0.48119  1.0000 -0.1098414028
C   C26       1.0  0.25854  0.37186  0.49523  1.0000 -0.0350332745
C   C27       1.0  0.14511  0.33469  0.49380  1.0000 -0.1098414028
C   C28       1.0  0.10140  0.40960  0.47638  1.0000 -0.1531222538
C   C29       1.0  0.19930  0.87690  0.49043  1.0000 0.5471352264
C   C30       1.0  0.30402  0.28838  0.51021  1.0000 0.5471352264
C   C31       1.0  0.28088  0.48192  0.31721  1.0000 0.2268878146
C   C32       1.0  0.22317  0.37323  0.35003  1.0000 -0.2569799126
C   C33       1.0  0.10564  0.32776  0.34394  1.0000 0.2241956479
C   C34       1.0  0.04748  0.38772  0.30601  1.0000 -0.2829710917
C   C35       1.0  0.10842  0.49578  0.27387  1.0000 0.2142361513
C   C36       1.0  0.22481  0.54439  0.27915  1.0000 -0.3003888317
C   C37       1.0  0.46438  0.60282  0.28254  1.0000 0.0890460876
C   C38       1.0  0.57840  0.56460  0.36062  1.0000 -0.0181095056
C   C39       1.0  0.47480  0.50480  0.37464  1.0000 -0.0910412701
C   C40       1.0  0.94448  0.17652  0.39198  1.0000 0.0890460876
C   C41       1.0  0.07122  0.12778  0.39592  1.0000 -0.0910412701
C   C42       1.0  0.98623  0.03917  0.42181  1.0000 -0.0019840555
C   C43       1.0  0.06219  0.61401  0.17745  1.0000 0.0890460876
C   C44       1.0  0.95100  0.55040  0.23921  1.0000 -0.0910412701
C   C45       1.0  0.91425  0.60895  0.18744  1.0000 -0.0289102779
C   C46       1.0  0.65759  0.87741  0.16042  1.0000 0.5471352264
C   C47       1.0  0.67446  0.98514  0.11363  1.0000 -0.0106138985
C   C48       1.0  0.77034  0.04626  0.08818  1.0000 -0.1281773971
C   C49       1.0  0.78215  0.14285  0.04310  1.0000 -0.0106138985
C   C50       1.0  0.70331  0.18289  0.02739  1.0000 -0.1604797078
C   C51       1.0  0.60850  0.12530  0.05364  1.0000 0.0695730689
C   C52       1.0  0.59342  0.02378  0.09563  1.0000 -0.1604797078
C   C53       1.0  0.52655  0.17125  0.03733  1.0000 0.0695730689
C   C54       1.0  0.56471  0.28609  0.03413  1.0000 -0.144730054
C   C55       1.0  0.48808  0.32872  0.01881  1.0000 -0.1098414028
C   C56       1.0  0.37186  0.25854  0.00477  1.0000 -0.0350332745
C   C57       1.0  0.33469  0.14511  0.00620  1.0000 -0.1098414028
C   C58       1.0  0.40960  0.10140  0.02362  1.0000 -0.1531222538
C   C59       1.0  0.87690  0.19930  0.00957  1.0000 0.5471352264
C   C60       1.0  0.28838  0.30402  0.98979  1.0000 0.5471352264
C   C61       1.0  0.51808  0.71912  0.81721  1.0000 0.2268878146
C   C62       1.0  0.62677  0.77683  0.85003  1.0000 -0.2569799126
C   C63       1.0  0.67224  0.89436  0.84394  1.0000 0.2241956479
C   C64       1.0  0.61228  0.95252  0.80601  1.0000 -0.2829710917
C   C65       1.0  0.50422  0.89158  0.77387  1.0000 0.2142361513
C   C66       1.0  0.45561  0.77519  0.77915  1.0000 -0.3003888317
C   C67       1.0  0.39718  0.53562  0.78254  1.0000 0.0890460876
C   C68       1.0  0.43540  0.42160  0.86062  1.0000 -0.0181095056
C   C69       1.0  0.49520  0.52520  0.87464  1.0000 -0.0910412701
C   C70       1.0  0.82348  0.05552  0.89198  1.0000 0.0890460876
C   C71       1.0  0.87222  0.92878  0.89592  1.0000 -0.0910412701
C   C72       1.0  0.96083  0.01377  0.92181  1.0000 -0.0019840555
C   C73       1.0  0.38599  0.93781  0.67745  1.0000 0.0890460876
C   C74       1.0  0.44960  0.04900  0.73921  1.0000 -0.0910412701
C   C75       1.0  0.39105  0.08575  0.68744  1.0000 -0.0289102779
C   C76       1.0  0.12259  0.34241  0.66042  1.0000 0.5471352264
C   C77       1.0  0.01486  0.32554  0.61363  1.0000 -0.0106138985
C   C78       1.0  0.95374  0.22966  0.58818  1.0000 -0.1281773971
C   C79       1.0  0.85715  0.21785  0.54310  1.0000 -0.0106138985
C   C80       1.0  0.81711  0.29669  0.52739  1.0000 -0.1604797078
C   C81       1.0  0.87470  0.39150  0.55364  1.0000 0.0695730689
C   C82       1.0  0.97622  0.40658  0.59563  1.0000 -0.1604797078
C   C83       1.0  0.82875  0.47345  0.53733  1.0000 0.0695730689
C   C84       1.0  0.71391  0.43529  0.53413  1.0000 -0.144730054
C   C85       1.0  0.67128  0.51192  0.51881  1.0000 -0.1098414028
C   C86       1.0  0.74146  0.62814  0.50477  1.0000 -0.0289102779
C   C87       1.0  0.85489  0.66531  0.50620  1.0000 -0.1098414028
C   C88       1.0  0.89860  0.59040  0.52362  1.0000 -0.1531222538
C   C89       1.0  0.80070  0.12310  0.50957  1.0000 0.5471352264
C   C90       1.0  0.69598  0.71162  0.48979  1.0000 0.5471352264
C   C91       1.0  0.71912  0.51808  0.68279  1.0000 0.2268878146
C   C92       1.0  0.77683  0.62677  0.64997  1.0000 -0.2569799126
C   C93       1.0  0.89436  0.67224  0.65606  1.0000 0.2241956479
C   C94       1.0  0.95252  0.61228  0.69399  1.0000 -0.2829710917
C   C95       1.0  0.89158  0.50422  0.72613  1.0000 0.2142361513
C   C96       1.0  0.77519  0.45561  0.72085  1.0000 -0.3003888317
C   C97       1.0  0.53562  0.39718  0.71746  1.0000 0.0890460876
C   C98       1.0  0.42160  0.43540  0.63938  1.0000 -0.0181095056
C   C99       1.0  0.52520  0.49520  0.62536  1.0000 -0.0910412701
C   C100      1.0  0.05552  0.82348  0.60802  1.0000 0.0890460876
C   C101      1.0  0.92878  0.87222  0.60408  1.0000 -0.0910412701
C   C102      1.0  0.01377  0.96083  0.57819  1.0000 -0.0019840555
C   C103      1.0  0.93781  0.38599  0.82255  1.0000 0.0890460876
C   C104      1.0  0.04900  0.44960  0.76079  1.0000 -0.0910412701
C   C105      1.0  0.08575  0.39105  0.81256  1.0000 -0.0289102779
C   C106      1.0  0.34241  0.12259  0.83958  1.0000 0.5471352264
C   C107      1.0  0.32554  0.01486  0.88637  1.0000 -0.0106138985
C   C108      1.0  0.22966  0.95374  0.91182  1.0000 -0.1281773971
C   C109      1.0  0.21785  0.85715  0.95690  1.0000 -0.0106138985
C   C110      1.0  0.29669  0.81711  0.97261  1.0000 -0.1604797078
C   C111      1.0  0.39150  0.87470  0.94636  1.0000 0.0695730689
C   C112      1.0  0.40658  0.97622  0.90437  1.0000 -0.1604797078
C   C113      1.0  0.47345  0.82875  0.96267  1.0000 0.0695730689
C   C114      1.0  0.43529  0.71391  0.96587  1.0000 -0.144730054
C   C115      1.0  0.51192  0.67128  0.98119  1.0000 -0.1098414028
C   C116      1.0  0.62814  0.74146  0.99523  1.0000 -0.0350332745
C   C117      1.0  0.66531  0.85489  0.99380  1.0000 -0.1098414028
C   C118      1.0  0.59040  0.89860  0.97638  1.0000 -0.1531222538
C   C119      1.0  0.12310  0.80070  0.99043  1.0000 0.5471352264
C   C120      1.0  0.71162  0.69598  0.01021  1.0000 0.5471352264
N   N1        1.0  0.62673  0.57187  0.19693  1.0000 -0.3003888317
N   N2        1.0  0.52836  0.40044  0.17567  1.0000 -0.0019840555
N   N3        1.0  0.21636  0.04464  0.12403  1.0000 -0.0019840555
N   N4        1.0  0.07014  0.90846  0.07969  1.0000 -0.29062856
N   N5        1.0  0.55397  0.04543  0.26675  1.0000 0.0020103938
N   N6        1.0  0.64760  0.98440  0.35194  1.0000 -0.29062856
N   N7        1.0  0.57187  0.62673  0.30307  1.0000 -0.3003888317
N   N8        1.0  0.40044  0.52836  0.32433  1.0000 -0.0019840555
N   N9        1.0  0.04464  0.21636  0.37597  1.0000 -0.0019840555
N   N10       1.0  0.90846  0.07014  0.42031  1.0000 -0.29062856
N   N11       1.0  0.04543  0.55397  0.23325  1.0000 0.0020103938
N   N12       1.0  0.98440  0.64760  0.14806  1.0000 -0.29062856
N   N13       1.0  0.37327  0.42813  0.80307  1.0000 -0.3003888317
N   N14       1.0  0.47164  0.59956  0.82433  1.0000 -0.0019840555
N   N15       1.0  0.78364  0.95536  0.87597  1.0000 -0.0106138985
N   N16       1.0  0.92986  0.09154  0.92031  1.0000 -0.29062856
N   N17       1.0  0.44603  0.95457  0.73325  1.0000 0.0020103938
N   N18       1.0  0.35240  0.01560  0.64806  1.0000 -0.29062856
N   N19       1.0  0.42813  0.37327  0.69693  1.0000 -0.3003888317
N   N20       1.0  0.59956  0.47164  0.67567  1.0000 -0.0019840555
N   N21       1.0  0.95536  0.78364  0.62403  1.0000 -0.0106138985
N   N22       1.0  0.09154  0.92986  0.57969  1.0000 -0.29062856
N   N23       1.0  0.95457  0.44603  0.76675  1.0000 0.0020103938
N   N24       1.0  0.01560  0.35240  0.85194  1.0000 -0.29062856
O   O1        1.0  0.86230  0.74690  0.31677  1.0000 -0.5514525399
O   O2        1.0  0.81038  0.56442  0.32585  1.0000 -0.5755128042
O   O3        1.0  0.18538  0.96322  0.46527  1.0000 -0.5514525399
O   O4        1.0  0.25318  0.86142  0.54349  1.0000 -0.5917456524
O   O5        1.0  0.24675  0.19025  0.53667  1.0000 -0.5582937972
O   O6        1.0  0.39255  0.32065  0.49470  1.0000 -0.5659370498
O   O7        1.0  0.74690  0.86230  0.18323  1.0000 -0.5514525399
O   O8        1.0  0.56442  0.81038  0.17415  1.0000 -0.5755128042
O   O9        1.0  0.96322  0.18538  0.03473  1.0000 -0.5514525399
O   O10       1.0  0.86142  0.25318  0.95651  1.0000 -0.5917456524
O   O11       1.0  0.19025  0.24675  0.96333  1.0000 -0.5582937972
O   O12       1.0  0.32065  0.39255  0.00530  1.0000 -0.5659370498
O   O13       1.0  0.13770  0.25310  0.68323  1.0000 -0.5514525399
O   O14       1.0  0.18962  0.43558  0.67415  1.0000 -0.5755128042
O   O15       1.0  0.81462  0.03678  0.53473  1.0000 -0.5514525399
O   O16       1.0  0.74682  0.13858  0.45651  1.0000 -0.5917456524
O   O17       1.0  0.75325  0.80975  0.46333  1.0000 -0.5582937972
O   O18       1.0  0.60745  0.67935  0.50530  1.0000 -0.5659370498
O   O19       1.0  0.25310  0.13770  0.81677  1.0000 -0.5514525399
O   O20       1.0  0.43558  0.18962  0.82585  1.0000 -0.5755128042
O   O21       1.0  0.03678  0.81462  0.96527  1.0000 -0.5514525399
O   O22       1.0  0.13858  0.74682  0.04349  1.0000 -0.5917456524
O   O23       1.0  0.80975  0.75325  0.03667  1.0000 -0.5582937972
O   O24       1.0  0.67935  0.60745  0.99470  1.0000 -0.5659370498
