# DDEC6 charges by PACMAN v1.1 (https://github.com/mtap-research/PACMAN-charge/)
data_0000[Mn][nan]3[ASR]1
_chemical_formula_sum              "Mn12 H24 C72 O48"
_cell_length_a       10.2069
_cell_length_b       19.5446
_cell_length_c       19.6849
_cell_angle_alpha    88.588
_cell_angle_beta     102.448
_cell_angle_gamma    102.346

_symmetry_space_group_name_H-M    "P 1"
_symmetry_Int_Tables_number       1

loop_
  _symmetry_equiv_pos_as_xyz
  'x, y, z'

loop_
  _atom_site_type_symbol
  _atom_site_label
  _atom_site_symmetry_multiplicity
  _atom_site_fract_x
  _atom_site_fract_y
  _atom_site_fract_z
  _atom_site_occupancy
  _atom_site_charge
Mn  Mn1       1.0  0.52526  0.74897  0.74715  1.0000 1.0292247924
Mn  Mn2       1.0  0.22919  0.76118  0.75983  1.0000 1.0210997255
Mn  Mn3       1.0  0.93452  0.28771  0.84440  1.0000 1.0121483597
Mn  Mn4       1.0  0.09409  0.16089  0.77397  1.0000 0.9943105372
Mn  Mn5       1.0  0.31902  0.21839  0.65036  1.0000 1.0121483597
Mn  Mn6       1.0  0.65202  0.34866  0.71527  1.0000 1.0121483597
Mn  Mn7       1.0  0.47474  0.25103  0.25285  1.0000 1.0292247924
Mn  Mn8       1.0  0.77081  0.23882  0.24017  1.0000 1.0210997255
Mn  Mn9       1.0  0.06548  0.71229  0.15560  1.0000 1.0121483597
Mn  Mn10      1.0  0.90591  0.83911  0.22603  1.0000 0.9943105372
Mn  Mn11      1.0  0.68098  0.78161  0.34964  1.0000 1.0121483597
Mn  Mn12      1.0  0.34798  0.65134  0.28473  1.0000 1.0121483597
H   H1        1.0  0.04790  0.53690  0.74760  1.0000 0.1306987087
H   H2        1.0  0.11600  0.34610  0.71890  1.0000 0.1306987087
H   H3        1.0  0.41900  0.51650  0.72510  1.0000 0.1306987087
H   H4        1.0  0.71740  0.98990  0.77150  1.0000 0.1306987087
H   H5        1.0  0.56870  0.16420  0.77540  1.0000 0.1306987087
H   H6        1.0  0.31460  0.97520  0.76420  1.0000 0.1306987087
H   H7        1.0  0.44500  0.75610  0.53580  1.0000 0.1306987087
H   H8        1.0  0.20400  0.77050  0.34780  1.0000 0.1306987087
H   H9        1.0  0.05420  0.76860  0.52130  1.0000 0.1306987087
H   H10       1.0  0.30810  0.72910  0.99090  1.0000 0.1306987087
H   H11       1.0  0.61080  0.72200  0.15820  1.0000 0.1306987087
H   H12       1.0  0.69740  0.75410  0.96890  1.0000 0.1306987087
H   H13       1.0  0.95210  0.46310  0.25240  1.0000 0.1306987087
H   H14       1.0  0.88400  0.65390  0.28110  1.0000 0.1306987087
H   H15       1.0  0.58100  0.48350  0.27490  1.0000 0.1306987087
H   H16       1.0  0.28260  0.01010  0.22850  1.0000 0.1306987087
H   H17       1.0  0.43130  0.83580  0.22460  1.0000 0.1306987087
H   H18       1.0  0.68540  0.02480  0.23580  1.0000 0.1306987087
H   H19       1.0  0.55500  0.24390  0.46420  1.0000 0.1306987087
H   H20       1.0  0.79600  0.22950  0.65220  1.0000 0.1306987087
H   H21       1.0  0.94580  0.23140  0.47870  1.0000 0.1306987087
H   H22       1.0  0.69190  0.27090  0.00910  1.0000 0.1306987087
H   H23       1.0  0.38920  0.27800  0.84180  1.0000 0.1306987087
H   H24       1.0  0.30260  0.24590  0.03110  1.0000 0.1306987087
C   C1        1.0  0.29120  0.61718  0.74462  1.0000 0.5912590938
C   C2        1.0  0.24110  0.53909  0.73747  1.0000 -0.0292377443
C   C3        1.0  0.10700  0.50867  0.74097  1.0000 -0.0838677255
C   C4        1.0  0.06010  0.43637  0.73464  1.0000 -0.0374533238
C   C5        1.0  0.14740  0.39441  0.72360  1.0000 -0.1085377031
C   C6        1.0  0.28240  0.42440  0.71952  1.0000 -0.0292377443
C   C7        1.0  0.32860  0.49642  0.72705  1.0000 -0.0894761813
C   C8        1.0  0.37700  0.37863  0.70769  1.0000 0.5912590938
C   C9        1.0  0.91600  0.40468  0.74036  1.0000 0.5595112534
C   C10       1.0  0.48470  0.89034  0.76006  1.0000 0.5912590938
C   C11       1.0  0.51100  0.96908  0.76611  1.0000 -0.0202906538
C   C12       1.0  0.64370  0.01087  0.77134  1.0000 -0.0894761813
C   C13       1.0  0.66470  0.08307  0.77625  1.0000 -0.0202906538
C   C14       1.0  0.55480  0.11559  0.77363  1.0000 -0.1085377031
C   C15       1.0  0.42380  0.07406  0.76820  1.0000 -0.0292377443
C   C16       1.0  0.40230  0.00209  0.76590  1.0000 -0.0894761813
C   C17       1.0  0.80840  0.12811  0.78476  1.0000 0.5912590938
C   C18       1.0  0.30350  0.10820  0.76600  1.0000 0.5595112534
C   C19       1.0  0.27830  0.76019  0.61867  1.0000 0.5912590938
C   C20       1.0  0.25360  0.76222  0.54040  1.0000 -0.0292377443
C   C21       1.0  0.36030  0.75982  0.50870  1.0000 -0.0894761813
C   C22       1.0  0.34350  0.76286  0.43663  1.0000 -0.0374533238
C   C23       1.0  0.21670  0.76880  0.39603  1.0000 -0.1085377031
C   C24       1.0  0.10860  0.77218  0.42810  1.0000 -0.0292377443
C   C25       1.0  0.12700  0.76779  0.50012  1.0000 -0.0894761813
C   C26       1.0  0.97400  0.78251  0.38451  1.0000 0.5912590938
C   C27       1.0  0.46090  0.75934  0.40416  1.0000 0.5595112534
C   C28       1.0  0.44920  0.74860  0.89012  1.0000 0.5912590938
C   C29       1.0  0.49510  0.74310  0.96804  1.0000 -0.0292377443
C   C30       1.0  0.40050  0.73145  0.01032  1.0000 -0.0894761813
C   C31       1.0  0.44270  0.72327  0.08194  1.0000 -0.0292377443
C   C32       1.0  0.58180  0.72799  0.11068  1.0000 -0.1048707647
C   C33       1.0  0.67720  0.74160  0.06875  1.0000 -0.0374533238
C   C34       1.0  0.63390  0.74730  0.99721  1.0000 -0.0838677255
C   C35       1.0  0.34000  0.70683  0.12744  1.0000 0.5912590938
C   C36       1.0  0.82630  0.74410  0.09876  1.0000 0.5595112534
C   C37       1.0  0.70880  0.38282  0.25538  1.0000 0.5912590938
C   C38       1.0  0.75890  0.46091  0.26253  1.0000 -0.0292377443
C   C39       1.0  0.89300  0.49133  0.25903  1.0000 -0.0838677255
C   C40       1.0  0.93990  0.56363  0.26536  1.0000 -0.0374533238
C   C41       1.0  0.85260  0.60559  0.27640  1.0000 -0.1085377031
C   C42       1.0  0.71760  0.57560  0.28048  1.0000 -0.0292377443
C   C43       1.0  0.67140  0.50358  0.27295  1.0000 -0.0838677255
C   C44       1.0  0.62300  0.62137  0.29231  1.0000 0.5912590938
C   C45       1.0  0.08400  0.59532  0.25964  1.0000 0.5595112534
C   C46       1.0  0.51530  0.10966  0.23994  1.0000 0.5912590938
C   C47       1.0  0.48900  0.03092  0.23389  1.0000 -0.0202906538
C   C48       1.0  0.35630  0.98913  0.22866  1.0000 -0.0894761813
C   C49       1.0  0.33530  0.91693  0.22375  1.0000 -0.0202906538
C   C50       1.0  0.44520  0.88441  0.22637  1.0000 -0.1085377031
C   C51       1.0  0.57620  0.92594  0.23180  1.0000 -0.0292377443
C   C52       1.0  0.59770  0.99791  0.23410  1.0000 -0.0894761813
C   C53       1.0  0.19160  0.87189  0.21524  1.0000 0.5912590938
C   C54       1.0  0.69650  0.89180  0.23400  1.0000 0.5595112534
C   C55       1.0  0.72170  0.23981  0.38133  1.0000 0.5912590938
C   C56       1.0  0.74640  0.23778  0.45960  1.0000 -0.0292377443
C   C57       1.0  0.63970  0.24018  0.49130  1.0000 -0.0894761813
C   C58       1.0  0.65650  0.23714  0.56337  1.0000 -0.0374533238
C   C59       1.0  0.78330  0.23120  0.60397  1.0000 -0.1085377031
C   C60       1.0  0.89140  0.22782  0.57190  1.0000 -0.0292377443
C   C61       1.0  0.87300  0.23221  0.49988  1.0000 -0.0894761813
C   C62       1.0  0.02600  0.21749  0.61549  1.0000 0.5912590938
C   C63       1.0  0.53910  0.24066  0.59584  1.0000 0.5595112534
C   C64       1.0  0.55080  0.25140  0.10988  1.0000 0.5912590938
C   C65       1.0  0.50490  0.25690  0.03196  1.0000 -0.0292377443
C   C66       1.0  0.59950  0.26855  0.98968  1.0000 -0.0894761813
C   C67       1.0  0.55730  0.27673  0.91806  1.0000 -0.0292377443
C   C68       1.0  0.41820  0.27201  0.88932  1.0000 -0.1085377031
C   C69       1.0  0.32280  0.25840  0.93125  1.0000 -0.0374533238
C   C70       1.0  0.36610  0.25270  0.00279  1.0000 -0.0838677255
C   C71       1.0  0.66000  0.29317  0.87256  1.0000 0.5912590938
C   C72       1.0  0.17370  0.25590  0.90124  1.0000 0.5595112534
O   O1        1.0  0.19610  0.07280  0.77760  1.0000 -0.4826064763
O   O2        1.0  0.20320  0.65273  0.74880  1.0000 -0.5587509481
O   O3        1.0  0.41640  0.64186  0.74587  1.0000 -0.5587509481
O   O4        1.0  0.88020  0.33853  0.74506  1.0000 -0.5836561529
O   O5        1.0  0.83170  0.44338  0.73695  1.0000 -0.5124790875
O   O6        1.0  0.32670  0.31539  0.69526  1.0000 -0.5497873409
O   O7        1.0  0.50050  0.40775  0.71027  1.0000 -0.5389189479
O   O8        1.0  0.57980  0.86155  0.75326  1.0000 -0.5294234065
O   O9        1.0  0.36590  0.85812  0.76203  1.0000 -0.5697937715
O   O10       1.0  0.90360  0.09797  0.77995  1.0000 -0.5389189479
O   O11       1.0  0.82290  0.19153  0.79510  1.0000 -0.5497873409
O   O12       1.0  0.31270  0.17157  0.75145  1.0000 -0.5587509481
O   O13       1.0  0.39660  0.75471  0.64983  1.0000 -0.5697937715
O   O14       1.0  0.18240  0.76489  0.64767  1.0000 -0.5294234065
O   O15       1.0  0.87430  0.77524  0.41286  1.0000 -0.5294234065
O   O16       1.0  0.97120  0.79846  0.32239  1.0000 -0.5697937715
O   O17       1.0  0.44020  0.75142  0.33799  1.0000 -0.5878190456
O   O18       1.0  0.57800  0.76504  0.44114  1.0000 -0.5015489591
O   O19       1.0  0.53870  0.75072  0.85460  1.0000 -0.5587509481
O   O20       1.0  0.32540  0.75078  0.86645  1.0000 -0.5587509481
O   O21       1.0  0.21690  0.70875  0.09976  1.0000 -0.5497873409
O   O22       1.0  0.38180  0.69288  0.18906  1.0000 -0.5497873409
O   O23       1.0  0.86700  0.74584  0.16519  1.0000 -0.5878190456
O   O24       1.0  0.90800  0.74240  0.06072  1.0000 -0.5015489591
O   O25       1.0  0.80390  0.92720  0.22240  1.0000 -0.4826064763
O   O26       1.0  0.79680  0.34727  0.25120  1.0000 -0.5587509481
O   O27       1.0  0.58360  0.35814  0.25413  1.0000 -0.5587509481
O   O28       1.0  0.11980  0.66147  0.25494  1.0000 -0.5836561529
O   O29       1.0  0.16830  0.55662  0.26305  1.0000 -0.5124790875
O   O30       1.0  0.67330  0.68461  0.30474  1.0000 -0.5497873409
O   O31       1.0  0.49950  0.59225  0.28973  1.0000 -0.5389189479
O   O32       1.0  0.42020  0.13845  0.24674  1.0000 -0.5294234065
O   O33       1.0  0.63410  0.14188  0.23797  1.0000 -0.5697937715
O   O34       1.0  0.09640  0.90203  0.22005  1.0000 -0.5389189479
O   O35       1.0  0.17710  0.80847  0.20490  1.0000 -0.5497873409
O   O36       1.0  0.68730  0.82843  0.24855  1.0000 -0.5587509481
O   O37       1.0  0.60340  0.24529  0.35017  1.0000 -0.5697937715
O   O38       1.0  0.81760  0.23511  0.35233  1.0000 -0.5294234065
O   O39       1.0  0.12570  0.22476  0.58714  1.0000 -0.5294234065
O   O40       1.0  0.02880  0.20154  0.67761  1.0000 -0.5697937715
O   O41       1.0  0.55980  0.24858  0.66201  1.0000 -0.5878190456
O   O42       1.0  0.42200  0.23496  0.55886  1.0000 -0.5015489591
O   O43       1.0  0.46130  0.24928  0.14540  1.0000 -0.5587509481
O   O44       1.0  0.67460  0.24922  0.13355  1.0000 -0.5587509481
O   O45       1.0  0.78310  0.29125  0.90024  1.0000 -0.5497873409
O   O46       1.0  0.61820  0.30712  0.81094  1.0000 -0.5497873409
O   O47       1.0  0.13300  0.25416  0.83481  1.0000 -0.5878190456
O   O48       1.0  0.09200  0.25760  0.93928  1.0000 -0.5015489591
