# DDEC6 charges by PACMAN v1.1 (https://github.com/mtap-research/PACMAN-charge/)
data_0000[Cd][pts]3[ASR]2
_chemical_formula_sum              "Cd2 H136 C128 S8 Br4 N8 O8"
_cell_length_a       15.6109
_cell_length_b       15.6109
_cell_length_c       19.2713
_cell_angle_alpha    82.9035
_cell_angle_beta     97.0965
_cell_angle_gamma    120.957

_symmetry_space_group_name_H-M    "P 1"
_symmetry_Int_Tables_number       1

loop_
  _symmetry_equiv_pos_as_xyz
  'x, y, z'

loop_
  _atom_site_type_symbol
  _atom_site_label
  _atom_site_symmetry_multiplicity
  _atom_site_fract_x
  _atom_site_fract_y
  _atom_site_fract_z
  _atom_site_occupancy
  _atom_site_charge
Cd  Cd1       1.0  1.00000  0.50000  0.50000  1.0000 0.6405313273
Cd  Cd2       1.0  0.50000  0.00000  0.00000  1.0000 0.6405313273
H   H1        1.0  0.71120  0.90980  0.53550  1.0000 0.1214545907
H   H2        1.0  0.90980  0.71120  0.96450  1.0000 0.1214545907
H   H3        1.0  0.28880  0.09020  0.46450  1.0000 0.1214545907
H   H4        1.0  0.09020  0.28880  0.03550  1.0000 0.1214545907
H   H5        1.0  0.52520  0.71640  0.67960  1.0000 0.1214545907
H   H6        1.0  0.71640  0.52520  0.82040  1.0000 0.1214545907
H   H7        1.0  0.47480  0.28360  0.32040  1.0000 0.1214545907
H   H8        1.0  0.28360  0.47480  0.17960  1.0000 0.1214545907
H   H9        1.0  0.71020  0.58220  0.63650  1.0000 0.1117200178
H   H10       1.0  0.58220  0.71020  0.86350  1.0000 0.1117200178
H   H11       1.0  0.28980  0.41780  0.36350  1.0000 0.1117200178
H   H12       1.0  0.41780  0.28980  0.13650  1.0000 0.1117200178
H   H13       1.0  0.77890  0.65970  0.57670  1.0000 0.1018955277
H   H14       1.0  0.65970  0.77890  0.92330  1.0000 0.1018955277
H   H15       1.0  0.22110  0.34030  0.42330  1.0000 0.1018955277
H   H16       1.0  0.34030  0.22110  0.07670  1.0000 0.1018955277
H   H17       1.0  0.85640  0.58240  0.54200  1.0000 0.1117200178
H   H18       1.0  0.58240  0.85640  0.95800  1.0000 0.1117200178
H   H19       1.0  0.14360  0.41760  0.45800  1.0000 0.1117200178
H   H20       1.0  0.41760  0.14360  0.04200  1.0000 0.1117200178
H   H21       1.0  0.01150  0.48790  0.66970  1.0000 0.1117200178
H   H22       1.0  0.48790  0.01150  0.83030  1.0000 0.1117200178
H   H23       1.0  0.98850  0.51210  0.33030  1.0000 0.1117200178
H   H24       1.0  0.51210  0.98850  0.16970  1.0000 0.1117200178
H   H25       1.0  0.96870  0.52970  0.76570  1.0000 0.1402558943
H   H26       1.0  0.52970  0.96870  0.73430  1.0000 0.1402558943
H   H27       1.0  0.03130  0.47030  0.23430  1.0000 0.1402558943
H   H28       1.0  0.47030  0.03130  0.26570  1.0000 0.1402558943
H   H29       1.0  0.86930  0.60490  0.74830  1.0000 0.1298518998
H   H30       1.0  0.60490  0.86930  0.75170  1.0000 0.1298518998
H   H31       1.0  0.13070  0.39510  0.25170  1.0000 0.1298518998
H   H32       1.0  0.39510  0.13070  0.24830  1.0000 0.1298518998
H   H33       1.0  0.51120  0.96620  0.55870  1.0000 0.1298518998
H   H34       1.0  0.96620  0.51120  0.94130  1.0000 0.1298518998
H   H35       1.0  0.48880  0.03380  0.44130  1.0000 0.1298518998
H   H36       1.0  0.03380  0.48880  0.05870  1.0000 0.1298518998
H   H37       1.0  0.58470  0.96630  0.62440  1.0000 0.1214545907
H   H38       1.0  0.96630  0.58470  0.87560  1.0000 0.1214545907
H   H39       1.0  0.41530  0.03370  0.37560  1.0000 0.1214545907
H   H40       1.0  0.03370  0.41530  0.12440  1.0000 0.1214545907
H   H41       1.0  0.62110  0.98990  0.54660  1.0000 0.1298518998
H   H42       1.0  0.98990  0.62110  0.95340  1.0000 0.1298518998
H   H43       1.0  0.37890  0.01010  0.45340  1.0000 0.1298518998
H   H44       1.0  0.01010  0.37890  0.04660  1.0000 0.1298518998
H   H45       1.0  0.39970  0.70770  0.60630  1.0000 0.1402558943
H   H46       1.0  0.70770  0.39970  0.89370  1.0000 0.1402558943
H   H47       1.0  0.60030  0.29230  0.39370  1.0000 0.1402558943
H   H48       1.0  0.29230  0.60030  0.10630  1.0000 0.1402558943
H   H49       1.0  0.44010  0.79650  0.65700  1.0000 0.1214545907
H   H50       1.0  0.79650  0.44010  0.84300  1.0000 0.1214545907
H   H51       1.0  0.55990  0.20350  0.34300  1.0000 0.1214545907
H   H52       1.0  0.20350  0.55990  0.15700  1.0000 0.1214545907
H   H53       1.0  0.37630  0.79630  0.58530  1.0000 0.1298518998
H   H54       1.0  0.79630  0.37630  0.91470  1.0000 0.1298518998
H   H55       1.0  0.62370  0.20370  0.41470  1.0000 0.1298518998
H   H56       1.0  0.20370  0.62370  0.08530  1.0000 0.1298518998
H   H57       1.0  0.55930  0.84670  0.46780  1.0000 0.1214545907
H   H58       1.0  0.84670  0.55930  0.03220  1.0000 0.1214545907
H   H59       1.0  0.44070  0.15330  0.53220  1.0000 0.1214545907
H   H60       1.0  0.15330  0.44070  0.96780  1.0000 0.1214545907
H   H61       1.0  0.46300  0.74200  0.48940  1.0000 0.1298518998
H   H62       1.0  0.74200  0.46300  0.01060  1.0000 0.1298518998
H   H63       1.0  0.53700  0.25800  0.51060  1.0000 0.1298518998
H   H64       1.0  0.25800  0.53700  0.98940  1.0000 0.1298518998
H   H65       1.0  0.45390  0.83990  0.47020  1.0000 0.1298518998
H   H66       1.0  0.83990  0.45390  0.02980  1.0000 0.1298518998
H   H67       1.0  0.54610  0.16010  0.52980  1.0000 0.1298518998
H   H68       1.0  0.16010  0.54610  0.97020  1.0000 0.1298518998
H   H69       1.0  0.21120  0.01380  0.72980  1.0000 0.1298518998
H   H70       1.0  0.01380  0.21120  0.77020  1.0000 0.1298518998
H   H71       1.0  0.78880  0.98620  0.27020  1.0000 0.1298518998
H   H72       1.0  0.98620  0.78880  0.22980  1.0000 0.1298518998
H   H73       1.0  0.01800  0.82400  0.58680  1.0000 0.1214545907
H   H74       1.0  0.82400  0.01800  0.91320  1.0000 0.1214545907
H   H75       1.0  0.98200  0.17600  0.41320  1.0000 0.1214545907
H   H76       1.0  0.17600  0.98200  0.08680  1.0000 0.1214545907
H   H77       1.0  0.06190  0.18070  0.61410  1.0000 0.1018955277
H   H78       1.0  0.18070  0.06190  0.88590  1.0000 0.1018955277
H   H79       1.0  0.93810  0.81930  0.38590  1.0000 0.1018955277
H   H80       1.0  0.81930  0.93810  0.11410  1.0000 0.1018955277
H   H81       1.0  0.99210  0.11170  0.55200  1.0000 0.1018955277
H   H82       1.0  0.11170  0.99210  0.94800  1.0000 0.1018955277
H   H83       1.0  0.00790  0.88830  0.44800  1.0000 0.1018955277
H   H84       1.0  0.88830  0.00790  0.05200  1.0000 0.1018955277
H   H85       1.0  0.04280  0.31580  0.55750  1.0000 0.1117200178
H   H86       1.0  0.31580  0.04280  0.94250  1.0000 0.1117200178
H   H87       1.0  0.95720  0.68420  0.44250  1.0000 0.1117200178
H   H88       1.0  0.68420  0.95720  0.05750  1.0000 0.1117200178
H   H89       1.0  0.79080  0.31600  0.55580  1.0000 0.1117200178
H   H90       1.0  0.31600  0.79080  0.94420  1.0000 0.1117200178
H   H91       1.0  0.20920  0.68400  0.44420  1.0000 0.1117200178
H   H92       1.0  0.68400  0.20920  0.05580  1.0000 0.1117200178
H   H93       1.0  0.71290  0.15510  0.60740  1.0000 0.1402558943
H   H94       1.0  0.15510  0.71290  0.89260  1.0000 0.1402558943
H   H95       1.0  0.28710  0.84490  0.39260  1.0000 0.1402558943
H   H96       1.0  0.84490  0.28710  0.10740  1.0000 0.1402558943
H   H97       1.0  0.79980  0.06700  0.62680  1.0000 0.1298518998
H   H98       1.0  0.06700  0.79980  0.87320  1.0000 0.1298518998
H   H99       1.0  0.20020  0.93300  0.37320  1.0000 0.1298518998
H   H100      1.0  0.93300  0.20020  0.12680  1.0000 0.1298518998
H   H101      1.0  0.23790  0.94470  0.55240  1.0000 0.1214545907
H   H102      1.0  0.94470  0.23790  0.94760  1.0000 0.1214545907
H   H103      1.0  0.76210  0.05530  0.44760  1.0000 0.1214545907
H   H104      1.0  0.05530  0.76210  0.05240  1.0000 0.1214545907
H   H105      1.0  0.31340  0.01240  0.61320  1.0000 0.1298518998
H   H106      1.0  0.01240  0.31340  0.88680  1.0000 0.1298518998
H   H107      1.0  0.68660  0.98760  0.38680  1.0000 0.1298518998
H   H108      1.0  0.98760  0.68660  0.11320  1.0000 0.1298518998
H   H109      1.0  0.31950  0.91970  0.59220  1.0000 0.1298518998
H   H110      1.0  0.91970  0.31950  0.90780  1.0000 0.1298518998
H   H111      1.0  0.68050  0.08030  0.40780  1.0000 0.1298518998
H   H112      1.0  0.08030  0.68050  0.09220  1.0000 0.1298518998
H   H113      1.0  0.30630  0.95730  0.72500  1.0000 0.1117200178
H   H114      1.0  0.95730  0.30630  0.77500  1.0000 0.1117200178
H   H115      1.0  0.69370  0.04270  0.27500  1.0000 0.1117200178
H   H116      1.0  0.04270  0.69370  0.22500  1.0000 0.1117200178
H   H117      1.0  0.22080  0.85120  0.75610  1.0000 0.1298518998
H   H118      1.0  0.85120  0.22080  0.74390  1.0000 0.1298518998
H   H119      1.0  0.77920  0.14880  0.24390  1.0000 0.1298518998
H   H120      1.0  0.14880  0.77920  0.25610  1.0000 0.1298518998
H   H121      1.0  0.30470  0.85690  0.71250  1.0000 0.1298518998
H   H122      1.0  0.85690  0.30470  0.78750  1.0000 0.1298518998
H   H123      1.0  0.69530  0.14310  0.28750  1.0000 0.1298518998
H   H124      1.0  0.14310  0.69530  0.21250  1.0000 0.1298518998
H   H125      1.0  0.08880  0.72900  0.64790  1.0000 0.1298518998
H   H126      1.0  0.72900  0.08880  0.85210  1.0000 0.1298518998
H   H127      1.0  0.91120  0.27100  0.35210  1.0000 0.1298518998
H   H128      1.0  0.27100  0.91120  0.14790  1.0000 0.1298518998
H   H129      1.0  0.13340  0.77960  0.57360  1.0000 0.1214545907
H   H130      1.0  0.77960  0.13340  0.92640  1.0000 0.1214545907
H   H131      1.0  0.86660  0.22040  0.42640  1.0000 0.1214545907
H   H132      1.0  0.22040  0.86660  0.07360  1.0000 0.1214545907
H   H133      1.0  0.19580  0.74800  0.63230  1.0000 0.1402558943
H   H134      1.0  0.74800  0.19580  0.86770  1.0000 0.1402558943
H   H135      1.0  0.80420  0.25200  0.36770  1.0000 0.1402558943
H   H136      1.0  0.25200  0.80420  0.13230  1.0000 0.1402558943
C   C1        1.0  0.65632  0.71668  0.68370  1.0000 -0.0306625313
C   C2        1.0  0.71668  0.65632  0.81630  1.0000 -0.0306625313
C   C3        1.0  0.34368  0.28332  0.31630  1.0000 -0.0306625313
C   C4        1.0  0.28332  0.34368  0.18370  1.0000 -0.0306625313
C   C5        1.0  0.74552  0.75628  0.65130  1.0000 0.1402558943
C   C6        1.0  0.75628  0.74552  0.84870  1.0000 0.1402558943
C   C7        1.0  0.25448  0.24372  0.34870  1.0000 0.1402558943
C   C8        1.0  0.24372  0.25448  0.15130  1.0000 0.1402558943
C   C9        1.0  0.76706  0.83134  0.59730  1.0000 -0.0197449911
C   C10       1.0  0.83134  0.76706  0.90270  1.0000 -0.0197449911
C   C11       1.0  0.23294  0.16866  0.40270  1.0000 -0.0197449911
C   C12       1.0  0.16866  0.23294  0.09730  1.0000 -0.0197449911
C   C13       1.0  0.69591  0.85889  0.57250  1.0000 -0.1994352356
C   C14       1.0  0.85889  0.69591  0.92750  1.0000 -0.1994352356
C   C15       1.0  0.30409  0.14111  0.42750  1.0000 -0.1994352356
C   C16       1.0  0.14111  0.30409  0.07250  1.0000 -0.1994352356
C   C17       1.0  0.60284  0.81296  0.60090  1.0000 0.080848213
C   C18       1.0  0.81296  0.60284  0.89910  1.0000 0.080848213
C   C19       1.0  0.39716  0.18704  0.39910  1.0000 0.080848213
C   C20       1.0  0.18704  0.39716  0.10090  1.0000 0.080848213
C   C21       1.0  0.58617  0.74503  0.65750  1.0000 -0.1994352356
C   C22       1.0  0.74503  0.58617  0.84250  1.0000 -0.1994352356
C   C23       1.0  0.41383  0.25497  0.34250  1.0000 -0.1994352356
C   C24       1.0  0.25497  0.41383  0.15750  1.0000 -0.1994352356
C   C25       1.0  0.77892  0.63668  0.62690  1.0000 -0.0830954353
C   C26       1.0  0.63668  0.77892  0.87310  1.0000 -0.0830954353
C   C27       1.0  0.22108  0.36332  0.37310  1.0000 -0.0830954353
C   C28       1.0  0.36332  0.22108  0.12690  1.0000 -0.0830954353
C   C29       1.0  0.85067  0.59813  0.64300  1.0000 0.0594246801
C   C30       1.0  0.59813  0.85067  0.85700  1.0000 0.0594246801
C   C31       1.0  0.14933  0.40187  0.35700  1.0000 0.0594246801
C   C32       1.0  0.40187  0.14933  0.14300  1.0000 0.0594246801
C   C33       1.0  0.87921  0.57139  0.58840  1.0000 -0.0094889152
C   C34       1.0  0.57139  0.87921  0.91160  1.0000 -0.0094889152
C   C35       1.0  0.12079  0.42861  0.41160  1.0000 -0.0094889152
C   C36       1.0  0.42861  0.12079  0.08840  1.0000 -0.0094889152
C   C37       1.0  0.96990  0.51650  0.66240  1.0000 0.0699897518
C   C38       1.0  0.51650  0.96990  0.83760  1.0000 0.0699897518
C   C39       1.0  0.03010  0.48350  0.33760  1.0000 0.0699897518
C   C40       1.0  0.48350  0.03010  0.16240  1.0000 0.0699897518
C   C41       1.0  0.94520  0.54160  0.71980  1.0000 -0.1458555798
C   C42       1.0  0.54160  0.94520  0.78020  1.0000 -0.1458555798
C   C43       1.0  0.05480  0.45840  0.28020  1.0000 -0.1458555798
C   C44       1.0  0.45840  0.05480  0.21980  1.0000 -0.1458555798
C   C45       1.0  0.88550  0.58490  0.70960  1.0000 -0.0904401866
C   C46       1.0  0.58490  0.88550  0.79040  1.0000 -0.0904401866
C   C47       1.0  0.11450  0.41510  0.29040  1.0000 -0.0904401866
C   C48       1.0  0.41510  0.11450  0.20960  1.0000 -0.0904401866
C   C49       1.0  0.52310  0.83930  0.56950  1.0000 0.2693604489
C   C50       1.0  0.83930  0.52310  0.93050  1.0000 0.2693604489
C   C51       1.0  0.47690  0.16070  0.43050  1.0000 0.2693604489
C   C52       1.0  0.16070  0.47690  0.06950  1.0000 0.2693604489
C   C53       1.0  0.56370  0.95030  0.57530  1.0000 -0.4996836151
C   C54       1.0  0.95030  0.56370  0.92470  1.0000 -0.4996836151
C   C55       1.0  0.43630  0.04970  0.42470  1.0000 -0.4996836151
C   C56       1.0  0.04970  0.43630  0.07530  1.0000 -0.4996836151
C   C57       1.0  0.42590  0.77950  0.60810  1.0000 -0.4656407425
C   C58       1.0  0.77950  0.42590  0.89190  1.0000 -0.4656407425
C   C59       1.0  0.57410  0.22050  0.39190  1.0000 -0.4656407425
C   C60       1.0  0.22050  0.57410  0.10810  1.0000 -0.4656407425
C   C61       1.0  0.49750  0.81470  0.49220  1.0000 -0.4621599245
C   C62       1.0  0.81470  0.49750  0.00780  1.0000 -0.4621599245
C   C63       1.0  0.50250  0.18530  0.50780  1.0000 -0.4621599245
C   C64       1.0  0.18530  0.50250  0.99220  1.0000 -0.4621599245
C   C65       1.0  0.97810  0.92070  0.61230  1.0000 -0.0197449911
C   C66       1.0  0.92070  0.97810  0.88770  1.0000 -0.0197449911
C   C67       1.0  0.02190  0.07930  0.38770  1.0000 -0.0197449911
C   C68       1.0  0.07930  0.02190  0.11230  1.0000 -0.0197449911
C   C69       1.0  0.00645  0.00015  0.65260  1.0000 0.1402558943
C   C70       1.0  0.00015  0.00645  0.84740  1.0000 0.1402558943
C   C71       1.0  0.99355  0.99985  0.34740  1.0000 0.1402558943
C   C72       1.0  0.99985  0.99355  0.15260  1.0000 0.1402558943
C   C73       1.0  0.09354  0.03306  0.69790  1.0000 -0.0197449911
C   C74       1.0  0.03306  0.09354  0.80210  1.0000 -0.0197449911
C   C75       1.0  0.90646  0.96694  0.30210  1.0000 -0.0197449911
C   C76       1.0  0.96694  0.90646  0.19790  1.0000 -0.0197449911
C   C77       1.0  0.15260  0.99080  0.69880  1.0000 -0.1923755465
C   C78       1.0  0.99080  0.15260  0.80120  1.0000 -0.1923755465
C   C79       1.0  0.84740  0.00920  0.30120  1.0000 -0.1923755465
C   C80       1.0  0.00920  0.84740  0.19880  1.0000 -0.1923755465
C   C81       1.0  0.12856  0.91504  0.65540  1.0000 0.1018955277
C   C82       1.0  0.91504  0.12856  0.84460  1.0000 0.1018955277
C   C83       1.0  0.87144  0.08496  0.34460  1.0000 0.1018955277
C   C84       1.0  0.08496  0.87144  0.15540  1.0000 0.1018955277
C   C85       1.0  0.03875  0.87885  0.61430  1.0000 -0.1923755465
C   C86       1.0  0.87885  0.03875  0.88570  1.0000 -0.1923755465
C   C87       1.0  0.96125  0.12115  0.38570  1.0000 -0.1923755465
C   C88       1.0  0.12115  0.96125  0.11430  1.0000 -0.1923755465
C   C89       1.0  0.99194  0.13286  0.59830  1.0000 -0.0904401866
C   C90       1.0  0.13286  0.99194  0.90170  1.0000 -0.0904401866
C   C91       1.0  0.00806  0.86714  0.40170  1.0000 -0.0904401866
C   C92       1.0  0.86714  0.00806  0.09830  1.0000 -0.0904401866
C   C93       1.0  0.93080  0.18300  0.59180  1.0000 0.0594246801
C   C94       1.0  0.18300  0.93080  0.90820  1.0000 0.0594246801
C   C95       1.0  0.06920  0.81700  0.40820  1.0000 0.0594246801
C   C96       1.0  0.81700  0.06920  0.09180  1.0000 0.0594246801
C   C97       1.0  0.97367  0.28113  0.56570  1.0000 -0.0094889152
C   C98       1.0  0.28113  0.97367  0.93430  1.0000 -0.0094889152
C   C99       1.0  0.02633  0.71887  0.43430  1.0000 -0.0094889152
C   C100      1.0  0.71887  0.02633  0.06570  1.0000 -0.0094889152
C   C101      1.0  0.82778  0.28242  0.56600  1.0000 0.0594246801
C   C102      1.0  0.28242  0.82778  0.93400  1.0000 0.0594246801
C   C103      1.0  0.17222  0.71758  0.43400  1.0000 0.0594246801
C   C104      1.0  0.71758  0.17222  0.06600  1.0000 0.0594246801
C   C105      1.0  0.78030  0.18610  0.59550  1.0000 -0.1377162973
C   C106      1.0  0.18610  0.78030  0.90450  1.0000 -0.1377162973
C   C107      1.0  0.21970  0.81390  0.40450  1.0000 -0.1377162973
C   C108      1.0  0.81390  0.21970  0.09550  1.0000 -0.1377162973
C   C109      1.0  0.83190  0.13450  0.60780  1.0000 -0.0904401866
C   C110      1.0  0.13450  0.83190  0.89220  1.0000 -0.0904401866
C   C111      1.0  0.16810  0.86550  0.39220  1.0000 -0.0904401866
C   C112      1.0  0.86550  0.16810  0.10780  1.0000 -0.0904401866
C   C113      1.0  0.19970  0.87550  0.65190  1.0000 0.2631450331
C   C114      1.0  0.87550  0.19970  0.84810  1.0000 0.2631450331
C   C115      1.0  0.80030  0.12450  0.34810  1.0000 0.2631450331
C   C116      1.0  0.12450  0.80030  0.15190  1.0000 0.2631450331
C   C117      1.0  0.27430  0.94430  0.59750  1.0000 -0.4427011351
C   C118      1.0  0.94430  0.27430  0.90250  1.0000 -0.4427011351
C   C119      1.0  0.72570  0.05570  0.40250  1.0000 -0.4427011351
C   C120      1.0  0.05570  0.72570  0.09750  1.0000 -0.4427011351
C   C121      1.0  0.26310  0.88610  0.71680  1.0000 -0.4621599245
C   C122      1.0  0.88610  0.26310  0.78320  1.0000 -0.4621599245
C   C123      1.0  0.73690  0.11390  0.28320  1.0000 -0.4621599245
C   C124      1.0  0.11390  0.73690  0.21680  1.0000 -0.4621599245
C   C125      1.0  0.15020  0.77440  0.62400  1.0000 -0.4656407425
C   C126      1.0  0.77440  0.15020  0.87600  1.0000 -0.4656407425
C   C127      1.0  0.84980  0.22560  0.37600  1.0000 -0.4656407425
C   C128      1.0  0.22560  0.84980  0.12400  1.0000 -0.4656407425
S   S1        1.0  0.61752  0.61752  0.75000  1.0000 0.0028583766
S   S2        1.0  0.38248  0.38248  0.25000  1.0000 0.0028583766
S   S3        1.0  0.87448  0.88182  0.54891  1.0000 -0.0197449911
S   S4        1.0  0.88182  0.87448  0.95109  1.0000 -0.0197449911
S   S5        1.0  0.12552  0.11818  0.45109  1.0000 -0.0197449911
S   S6        1.0  0.11818  0.12552  0.04891  1.0000 -0.0197449911
S   S7        1.0  0.13571  0.13571  0.75000  1.0000 -0.0094889152
S   S8        1.0  0.86429  0.86429  0.25000  1.0000 -0.0094889152
Br  Br1       1.0  0.17236  0.54012  0.57664  1.0000 -0.6135842244
Br  Br2       1.0  0.54012  0.17236  0.92336  1.0000 -0.6135842244
Br  Br3       1.0  0.82764  0.45988  0.42336  1.0000 -0.6135842244
Br  Br4       1.0  0.45988  0.82764  0.07664  1.0000 -0.6135842244
N   N1        1.0  0.93803  0.53057  0.59730  1.0000 -0.1994352356
N   N2        1.0  0.53057  0.93803  0.90270  1.0000 -0.1994352356
N   N3        1.0  0.06197  0.46943  0.40270  1.0000 -0.1994352356
N   N4        1.0  0.46943  0.06197  0.09730  1.0000 -0.1994352356
N   N5        1.0  0.92384  0.33136  0.55090  1.0000 -0.2072636115
N   N6        1.0  0.33136  0.92384  0.94910  1.0000 -0.2072636115
N   N7        1.0  0.07616  0.66864  0.44910  1.0000 -0.2072636115
N   N8        1.0  0.66864  0.07616  0.05090  1.0000 -0.2072636115
O   O1        1.0  0.80901  0.71919  0.67010  1.0000 -0.2072636115
O   O2        1.0  0.71919  0.80901  0.82990  1.0000 -0.2072636115
O   O3        1.0  0.19099  0.28081  0.32990  1.0000 -0.2072636115
O   O4        1.0  0.28081  0.19099  0.17010  1.0000 -0.2072636115
O   O5        1.0  0.95107  0.04713  0.64770  1.0000 -0.181954358
O   O6        1.0  0.04713  0.95107  0.85230  1.0000 -0.181954358
O   O7        1.0  0.04893  0.95287  0.35230  1.0000 -0.181954358
O   O8        1.0  0.95287  0.04893  0.14770  1.0000 -0.181954358
