# DDEC6 charges by PACMAN v1.1 (https://github.com/mtap-research/PACMAN-charge/)
data_0000[Cd][rob]3[ASR]1
_chemical_formula_sum              "Cd4 H60 C92 N8 O12"
_cell_length_a       17.7858
_cell_length_b       17.7858
_cell_length_c       21.337
_cell_angle_alpha    67.1328
_cell_angle_beta     112.867
_cell_angle_gamma    149.268

_symmetry_space_group_name_H-M    "P 1"
_symmetry_Int_Tables_number       1

loop_
  _symmetry_equiv_pos_as_xyz
  'x, y, z'

loop_
  _atom_site_type_symbol
  _atom_site_label
  _atom_site_symmetry_multiplicity
  _atom_site_fract_x
  _atom_site_fract_y
  _atom_site_fract_z
  _atom_site_occupancy
  _atom_site_charge
Cd  Cd1       1.0  0.61162  0.14340  0.04649  1.0000 0.8357877092
Cd  Cd2       1.0  0.14340  0.61162  0.45351  1.0000 0.8357877092
Cd  Cd3       1.0  0.38838  0.85660  0.95351  1.0000 0.8357877092
Cd  Cd4       1.0  0.85660  0.38838  0.54649  1.0000 0.8357877092
H   H1        1.0  0.68890  0.06370  0.90450  1.0000 0.1309044001
H   H2        1.0  0.06370  0.68890  0.59550  1.0000 0.1309044001
H   H3        1.0  0.31110  0.93630  0.09550  1.0000 0.1309044001
H   H4        1.0  0.93630  0.31110  0.40450  1.0000 0.1309044001
H   H5        1.0  0.91330  0.18670  0.91610  1.0000 0.1099755121
H   H6        1.0  0.18670  0.91330  0.58390  1.0000 0.1099755121
H   H7        1.0  0.08670  0.81330  0.08390  1.0000 0.1099755121
H   H8        1.0  0.81330  0.08670  0.41610  1.0000 0.1099755121
H   H9        1.0  0.11500  0.37100  0.98340  1.0000 0.1201110119
H   H10       1.0  0.37100  0.11500  0.51660  1.0000 0.1201110119
H   H11       1.0  0.88500  0.62900  0.01660  1.0000 0.1201110119
H   H12       1.0  0.62900  0.88500  0.48340  1.0000 0.1201110119
H   H13       1.0  0.22500  0.51960  0.07330  1.0000 0.1201110119
H   H14       1.0  0.51960  0.22500  0.42670  1.0000 0.1201110119
H   H15       1.0  0.77500  0.48040  0.92670  1.0000 0.1201110119
H   H16       1.0  0.48040  0.77500  0.57330  1.0000 0.1201110119
H   H17       1.0  0.19330  0.57570  0.13180  1.0000 0.1309044001
H   H18       1.0  0.57570  0.19330  0.36820  1.0000 0.1309044001
H   H19       1.0  0.80670  0.42430  0.86820  1.0000 0.1309044001
H   H20       1.0  0.42430  0.80670  0.63180  1.0000 0.1309044001
H   H21       1.0  0.85510  0.39770  0.12210  1.0000 0.1201110119
H   H22       1.0  0.39770  0.85510  0.37790  1.0000 0.1201110119
H   H23       1.0  0.14490  0.60230  0.87790  1.0000 0.1201110119
H   H24       1.0  0.60230  0.14490  0.62210  1.0000 0.1201110119
H   H25       1.0  0.12450  0.57190  0.20020  1.0000 0.1099755121
H   H26       1.0  0.57190  0.12450  0.29980  1.0000 0.1099755121
H   H27       1.0  0.87550  0.42810  0.79980  1.0000 0.1099755121
H   H28       1.0  0.42810  0.87550  0.70020  1.0000 0.1099755121
H   H29       1.0  0.81830  0.45850  0.16540  1.0000 0.1309044001
H   H30       1.0  0.45850  0.81830  0.33460  1.0000 0.1309044001
H   H31       1.0  0.18170  0.54150  0.83460  1.0000 0.1309044001
H   H32       1.0  0.54150  0.18170  0.66540  1.0000 0.1309044001
H   H33       1.0  0.76440  0.46960  0.24260  1.0000 0.1309044001
H   H34       1.0  0.46960  0.76440  0.25740  1.0000 0.1309044001
H   H35       1.0  0.23560  0.53040  0.75740  1.0000 0.1309044001
H   H36       1.0  0.53040  0.23560  0.74260  1.0000 0.1309044001
H   H37       1.0  0.90330  0.54670  0.35000  1.0000 0.1201110119
H   H38       1.0  0.54670  0.90330  0.15000  1.0000 0.1201110119
H   H39       1.0  0.09670  0.45330  0.65000  1.0000 0.1201110119
H   H40       1.0  0.45330  0.09670  0.85000  1.0000 0.1201110119
H   H41       1.0  0.15490  0.61670  0.30540  1.0000 0.1099755121
H   H42       1.0  0.61670  0.15490  0.19460  1.0000 0.1099755121
H   H43       1.0  0.84510  0.38330  0.69460  1.0000 0.1099755121
H   H44       1.0  0.38330  0.84510  0.80540  1.0000 0.1099755121
H   H45       1.0  0.49620  0.34420  0.91000  1.0000 0.1201110119
H   H46       1.0  0.34420  0.49620  0.59000  1.0000 0.1201110119
H   H47       1.0  0.50380  0.65580  0.09000  1.0000 0.1201110119
H   H48       1.0  0.65580  0.50380  0.41000  1.0000 0.1201110119
H   H49       1.0  0.47770  0.46330  0.90260  1.0000 0.1099755121
H   H50       1.0  0.46330  0.47770  0.59740  1.0000 0.1099755121
H   H51       1.0  0.52230  0.53670  0.09740  1.0000 0.1099755121
H   H52       1.0  0.53670  0.52230  0.40260  1.0000 0.1099755121
H   H53       1.0  0.56640  0.46180  0.10490  1.0000 0.1099755121
H   H54       1.0  0.46180  0.56640  0.39510  1.0000 0.1099755121
H   H55       1.0  0.43360  0.53820  0.89510  1.0000 0.1099755121
H   H56       1.0  0.53820  0.43360  0.60490  1.0000 0.1099755121
H   H57       1.0  0.58400  0.34320  0.11440  1.0000 0.1201110119
H   H58       1.0  0.34320  0.58400  0.38560  1.0000 0.1201110119
H   H59       1.0  0.41600  0.65680  0.88560  1.0000 0.1201110119
H   H60       1.0  0.65680  0.41600  0.61440  1.0000 0.1201110119
C   C1        1.0  0.75032  0.16528  0.97460  1.0000 0.2596023188
C   C2        1.0  0.16528  0.75032  0.52540  1.0000 0.2596023188
C   C3        1.0  0.24968  0.83472  0.02540  1.0000 0.2596023188
C   C4        1.0  0.83472  0.24968  0.47460  1.0000 0.2596023188
C   C5        1.0  0.76890  0.13590  0.93560  1.0000 -0.2477884559
C   C6        1.0  0.13590  0.76890  0.56440  1.0000 -0.2477884559
C   C7        1.0  0.23110  0.86410  0.06440  1.0000 -0.2477884559
C   C8        1.0  0.86410  0.23110  0.43560  1.0000 -0.2477884559
C   C9        1.0  0.90520  0.21240  0.94180  1.0000 -0.0786805848
C   C10       1.0  0.21240  0.90520  0.55820  1.0000 -0.0786805848
C   C11       1.0  0.09480  0.78760  0.05820  1.0000 -0.0786805848
C   C12       1.0  0.78760  0.09480  0.44180  1.0000 -0.0786805848
C   C13       1.0  0.02380  0.31980  0.98200  1.0000 -0.1873516186
C   C14       1.0  0.31980  0.02380  0.51800  1.0000 -0.1873516186
C   C15       1.0  0.97620  0.68020  0.01800  1.0000 -0.1873516186
C   C16       1.0  0.68020  0.97620  0.48200  1.0000 -0.1873516186
C   C17       1.0  0.01390  0.35730  0.02280  1.0000 0.058229673
C   C18       1.0  0.35730  0.01390  0.47720  1.0000 0.058229673
C   C19       1.0  0.98610  0.64270  0.97720  1.0000 0.058229673
C   C20       1.0  0.64270  0.98610  0.52280  1.0000 0.058229673
C   C21       1.0  0.87605  0.28055  0.01840  1.0000 0.0818992188
C   C22       1.0  0.28055  0.87605  0.48160  1.0000 0.0818992188
C   C23       1.0  0.12395  0.71945  0.98160  1.0000 0.0818992188
C   C24       1.0  0.71945  0.12395  0.51840  1.0000 0.0818992188
C   C25       1.0  0.13210  0.46750  0.06760  1.0000 -0.0924533053
C   C26       1.0  0.46750  0.13210  0.43240  1.0000 -0.0924533053
C   C27       1.0  0.86790  0.53250  0.93240  1.0000 -0.0924533053
C   C28       1.0  0.53250  0.86790  0.56760  1.0000 -0.0924533053
C   C29       1.0  0.11270  0.49910  0.10280  1.0000 -0.1873516186
C   C30       1.0  0.49910  0.11270  0.39720  1.0000 -0.1873516186
C   C31       1.0  0.88730  0.50090  0.89720  1.0000 -0.1873516186
C   C32       1.0  0.50090  0.88730  0.60280  1.0000 -0.1873516186
C   C33       1.0  0.97280  0.41820  0.09640  1.0000 0.2596023188
C   C34       1.0  0.41820  0.97280  0.40360  1.0000 0.2596023188
C   C35       1.0  0.02720  0.58180  0.90360  1.0000 0.2596023188
C   C36       1.0  0.58180  0.02720  0.59640  1.0000 0.2596023188
C   C37       1.0  0.94500  0.44260  0.13570  1.0000 -0.1678314364
C   C38       1.0  0.44260  0.94500  0.36430  1.0000 -0.1678314364
C   C39       1.0  0.05500  0.55740  0.86430  1.0000 -0.1678314364
C   C40       1.0  0.55740  0.05500  0.63570  1.0000 -0.1678314364
C   C41       1.0  0.03100  0.52040  0.18800  1.0000 -0.1267059116
C   C42       1.0  0.52040  0.03100  0.31200  1.0000 -0.1267059116
C   C43       1.0  0.96900  0.47960  0.81200  1.0000 -0.1267059116
C   C44       1.0  0.47960  0.96900  0.68800  1.0000 -0.1267059116
C   C45       1.0  0.99280  0.53320  0.22890  1.0000 0.0818992188
C   C46       1.0  0.53320  0.99280  0.27110  1.0000 0.0818992188
C   C47       1.0  0.00720  0.46680  0.77110  1.0000 0.0818992188
C   C48       1.0  0.46680  0.00720  0.72890  1.0000 0.0818992188
C   C49       1.0  0.87450  0.49070  0.20910  1.0000 -0.0991844504
C   C50       1.0  0.49070  0.87450  0.29090  1.0000 -0.0991844504
C   C51       1.0  0.12550  0.50930  0.79090  1.0000 -0.0991844504
C   C52       1.0  0.50930  0.12550  0.70910  1.0000 -0.0991844504
C   C53       1.0  0.84290  0.49710  0.25460  1.0000 -0.1416743739
C   C54       1.0  0.49710  0.84290  0.24540  1.0000 -0.1416743739
C   C55       1.0  0.15710  0.50290  0.74540  1.0000 -0.1416743739
C   C56       1.0  0.50290  0.15710  0.75460  1.0000 -0.1416743739
C   C57       1.0  0.92750  0.54450  0.31880  1.0000 0.0884813362
C   C58       1.0  0.54450  0.92750  0.18120  1.0000 0.0884813362
C   C59       1.0  0.07250  0.45550  0.68120  1.0000 0.0884813362
C   C60       1.0  0.45550  0.07250  0.81880  1.0000 0.0884813362
C   C61       1.0  0.07180  0.58280  0.29270  1.0000 0.0180553052
C   C62       1.0  0.58280  0.07180  0.20730  1.0000 0.0180553052
C   C63       1.0  0.92820  0.41720  0.70730  1.0000 0.0180553052
C   C64       1.0  0.41720  0.92820  0.79270  1.0000 0.0180553052
C   C65       1.0  0.55910  0.25970  0.01910  1.0000 0.5302247212
C   C66       1.0  0.25970  0.55910  0.48090  1.0000 0.5302247212
C   C67       1.0  0.44090  0.74030  0.98090  1.0000 0.5302247212
C   C68       1.0  0.74030  0.44090  0.51910  1.0000 0.5302247212
C   C69       1.0  0.54020  0.32940  0.01470  1.0000 -0.02468398
C   C70       1.0  0.32940  0.54020  0.48530  1.0000 -0.02468398
C   C71       1.0  0.45980  0.67060  0.98530  1.0000 -0.02468398
C   C72       1.0  0.67060  0.45980  0.51470  1.0000 -0.02468398
C   C73       1.0  0.50880  0.36600  0.95030  1.0000 -0.1095862972
C   C74       1.0  0.36600  0.50880  0.54970  1.0000 -0.1095862972
C   C75       1.0  0.49120  0.63400  0.04970  1.0000 -0.1095862972
C   C76       1.0  0.63400  0.49120  0.45030  1.0000 -0.1095862972
C   C77       1.0  0.49620  0.43600  0.94640  1.0000 -0.1578673447
C   C78       1.0  0.43600  0.49620  0.55360  1.0000 -0.1578673447
C   C79       1.0  0.50380  0.56400  0.05360  1.0000 -0.1578673447
C   C80       1.0  0.56400  0.50380  0.44640  1.0000 -0.1578673447
C   C81       1.0  0.50970  0.46570  0.00330  1.0000 0.0818992188
C   C82       1.0  0.46570  0.50970  0.49670  1.0000 0.0818992188
C   C83       1.0  0.49030  0.53430  0.99670  1.0000 0.0818992188
C   C84       1.0  0.53430  0.49030  0.50330  1.0000 0.0818992188
C   C85       1.0  0.54800  0.43480  0.06470  1.0000 -0.1578673447
C   C86       1.0  0.43480  0.54800  0.43530  1.0000 -0.1578673447
C   C87       1.0  0.45200  0.56520  0.93530  1.0000 -0.1578673447
C   C88       1.0  0.56520  0.45200  0.56470  1.0000 -0.1578673447
C   C89       1.0  0.56060  0.36560  0.07050  1.0000 -0.1095862972
C   C90       1.0  0.36560  0.56060  0.42950  1.0000 -0.1095862972
C   C91       1.0  0.43940  0.63440  0.92950  1.0000 -0.1095862972
C   C92       1.0  0.63440  0.43940  0.57050  1.0000 -0.1095862972
N   N1        1.0  0.85908  0.31252  0.05510  1.0000 -0.3337149365
N   N2        1.0  0.31252  0.85908  0.44490  1.0000 -0.3337149365
N   N3        1.0  0.14092  0.68748  0.94490  1.0000 -0.3337149365
N   N4        1.0  0.68748  0.14092  0.55510  1.0000 -0.3337149365
N   N5        1.0  0.03923  0.58597  0.33780  1.0000 -0.2299365743
N   N6        1.0  0.58597  0.03923  0.16220  1.0000 -0.2299365743
N   N7        1.0  0.96077  0.41403  0.66220  1.0000 -0.2299365743
N   N8        1.0  0.41403  0.96077  0.83780  1.0000 -0.2299365743
O   O1        1.0  0.62414  0.09566  0.97220  1.0000 -0.5497607632
O   O2        1.0  0.09566  0.62414  0.52780  1.0000 -0.5497607632
O   O3        1.0  0.37586  0.90434  0.02780  1.0000 -0.5497607632
O   O4        1.0  0.90434  0.37586  0.47220  1.0000 -0.5497607632
O   O5        1.0  0.53217  0.21923  0.96910  1.0000 -0.5178473337
O   O6        1.0  0.21923  0.53217  0.53090  1.0000 -0.5178473337
O   O7        1.0  0.46783  0.78077  0.03090  1.0000 -0.5178473337
O   O8        1.0  0.78077  0.46783  0.46910  1.0000 -0.5178473337
O   O9        1.0  0.60966  0.25094  0.07830  1.0000 -0.5699696435
O   O10       1.0  0.25094  0.60966  0.42170  1.0000 -0.5699696435
O   O11       1.0  0.39034  0.74906  0.92170  1.0000 -0.5699696435
O   O12       1.0  0.74906  0.39034  0.57830  1.0000 -0.5699696435
