# DDEC6 charges by PACMAN v1.1 (https://github.com/mtap-research/PACMAN-charge/)
data_1979[Cu][cds]3[ASR]1
_chemical_formula_sum              "Cu4 C6 S6 N6"
_cell_length_a       8.09128
_cell_length_b       8.09128
_cell_length_c       10.02
_cell_angle_alpha    81.2387
_cell_angle_beta     98.7613
_cell_angle_gamma    87.967

_symmetry_space_group_name_H-M    "P 1"
_symmetry_Int_Tables_number       1

loop_
  _symmetry_equiv_pos_as_xyz
  'x, y, z'

loop_
  _atom_site_type_symbol
  _atom_site_label
  _atom_site_symmetry_multiplicity
  _atom_site_fract_x
  _atom_site_fract_y
  _atom_site_fract_z
  _atom_site_occupancy
  _atom_site_charge
Cu  Cu1       1.0  0.17550  0.67550  0.75000  1.0000 0.3209652717
Cu  Cu2       1.0  0.32450  0.82450  0.25000  1.0000 0.3209652717
Cu  Cu3       1.0  0.16420  0.02620  0.70660  1.0000 0.4670155908
Cu  Cu4       1.0  0.97380  0.83580  0.20660  1.0000 0.4670155908
C   C1        1.0  0.16990  0.31370  0.87610  1.0000 0.3026617657
C   C2        1.0  0.68630  0.83010  0.37610  1.0000 0.3026617657
C   C3        1.0  0.40720  0.83260  0.96140  1.0000 0.2933648195
C   C4        1.0  0.16740  0.59280  0.46140  1.0000 0.2933648195
C   C5        1.0  0.92000  0.84800  0.89690  1.0000 0.3026617657
C   C6        1.0  0.15200  0.08000  0.39690  1.0000 0.3026617657
S   S1        1.0  0.16680  0.48360  0.94550  1.0000 -0.129880536
S   S2        1.0  0.51640  0.83320  0.44550  1.0000 -0.1350744102
S   S3        1.0  0.41880  0.83580  0.79680  1.0000 -0.2523155619
S   S4        1.0  0.16420  0.58120  0.29680  1.0000 -0.2523155619
S   S5        1.0  0.92340  0.85960  0.73060  1.0000 -0.2523155619
S   S6        1.0  0.14040  0.07660  0.23060  1.0000 -0.2523155619
N   N1        1.0  0.16900  0.19600  0.82540  1.0000 -0.375426415
N   N2        1.0  0.80400  0.83100  0.32540  1.0000 -0.3735654686
N   N3        1.0  0.39810  0.83050  0.07540  1.0000 -0.3312430416
N   N4        1.0  0.16950  0.60190  0.57540  1.0000 -0.3312430416
N   N5        1.0  0.91640  0.84340  0.01100  1.0000 -0.3438216333
N   N6        1.0  0.15660  0.08360  0.51100  1.0000 -0.3438216333
