# DDEC6 charges by PACMAN v1.1 (https://github.com/mtap-research/PACMAN-charge/)
data_1986[Nd][sqc]3[ASR]1
_chemical_formula_sum              "Nd4 H36 C30 O24"
_cell_length_a       8.54965
_cell_length_b       8.54965
_cell_length_c       19.74
_cell_angle_alpha    88.2567
_cell_angle_beta     91.7433
_cell_angle_gamma    56.2534

_symmetry_space_group_name_H-M    "P 1"
_symmetry_Int_Tables_number       1

loop_
  _symmetry_equiv_pos_as_xyz
  'x, y, z'

loop_
  _atom_site_type_symbol
  _atom_site_label
  _atom_site_symmetry_multiplicity
  _atom_site_fract_x
  _atom_site_fract_y
  _atom_site_fract_z
  _atom_site_occupancy
  _atom_site_charge
Nd  Nd1       1.0  0.70784  0.21670  0.98812  1.0000 2.0581126045
Nd  Nd2       1.0  0.21670  0.70784  0.51188  1.0000 2.0581126045
Nd  Nd3       1.0  0.29216  0.78330  0.01188  1.0000 2.0581126045
Nd  Nd4       1.0  0.78330  0.29216  0.48812  1.0000 2.0581126045
H   H1        1.0  0.80700  0.90700  0.83800  1.0000 0.1281261102
H   H2        1.0  0.90700  0.80700  0.66200  1.0000 0.1281261102
H   H3        1.0  0.19300  0.09300  0.16200  1.0000 0.1281261102
H   H4        1.0  0.09300  0.19300  0.33800  1.0000 0.1281261102
H   H5        1.0  0.99500  0.76100  0.80100  1.0000 0.1281261102
H   H6        1.0  0.76100  0.99500  0.69900  1.0000 0.1281261102
H   H7        1.0  0.00500  0.23900  0.19900  1.0000 0.1281261102
H   H8        1.0  0.23900  0.00500  0.30100  1.0000 0.1281261102
H   H9        1.0  0.85200  0.60000  0.82500  1.0000 0.0910250228
H   H10       1.0  0.60000  0.85200  0.67500  1.0000 0.0910250228
H   H11       1.0  0.14800  0.40000  0.17500  1.0000 0.0910250228
H   H12       1.0  0.40000  0.14800  0.32500  1.0000 0.0910250228
H   H13       1.0  0.03000  0.51200  0.87800  1.0000 0.1018079835
H   H14       1.0  0.51200  0.03000  0.62200  1.0000 0.1018079835
H   H15       1.0  0.97000  0.48800  0.12200  1.0000 0.1018079835
H   H16       1.0  0.48800  0.97000  0.37800  1.0000 0.1018079835
H   H17       1.0  0.65400  0.79000  0.90900  1.0000 0.1405700165
H   H18       1.0  0.79000  0.65400  0.59100  1.0000 0.1405700165
H   H19       1.0  0.34600  0.21000  0.09100  1.0000 0.1405700165
H   H20       1.0  0.21000  0.34600  0.40900  1.0000 0.1405700165
H   H21       1.0  0.83300  0.69900  0.96200  1.0000 0.1539889406
H   H22       1.0  0.69900  0.83300  0.53800  1.0000 0.1539889406
H   H23       1.0  0.16700  0.30100  0.03800  1.0000 0.1539889406
H   H24       1.0  0.30100  0.16700  0.46200  1.0000 0.1539889406
H   H25       1.0  0.44400  0.10800  0.79100  1.0000 0.1244019921
H   H26       1.0  0.10800  0.44400  0.70900  1.0000 0.1244019921
H   H27       1.0  0.55600  0.89200  0.20900  1.0000 0.1244019921
H   H28       1.0  0.89200  0.55600  0.29100  1.0000 0.1244019921
H   H29       1.0  0.25500  0.27900  0.82000  1.0000 0.1281261102
H   H30       1.0  0.27900  0.25500  0.68000  1.0000 0.1281261102
H   H31       1.0  0.74500  0.72100  0.18000  1.0000 0.1281261102
H   H32       1.0  0.72100  0.74500  0.32000  1.0000 0.1281261102
H   H33       1.0  0.31700  0.49300  0.76700  1.0000 0.1018079835
H   H34       1.0  0.49300  0.31700  0.73300  1.0000 0.1018079835
H   H35       1.0  0.68300  0.50700  0.23300  1.0000 0.1018079835
H   H36       1.0  0.50700  0.68300  0.26700  1.0000 0.1018079835
C   C1        1.0  0.04690  0.80450  0.89810  1.0000 0.6717570256
C   C2        1.0  0.80450  0.04690  0.60190  1.0000 0.6717570256
C   C3        1.0  0.95310  0.19550  0.10190  1.0000 0.6717570256
C   C4        1.0  0.19550  0.95310  0.39810  1.0000 0.6717570256
C   C5        1.0  0.93130  0.78730  0.84470  1.0000 -0.3302819673
C   C6        1.0  0.78730  0.93130  0.65530  1.0000 -0.3302819673
C   C7        1.0  0.06870  0.21270  0.15530  1.0000 -0.3302819673
C   C8        1.0  0.21270  0.06870  0.34470  1.0000 -0.3302819673
C   C9        1.0  0.90640  0.62540  0.86460  1.0000 -0.094649395
C   C10       1.0  0.62540  0.90640  0.63540  1.0000 -0.094649395
C   C11       1.0  0.09360  0.37460  0.13540  1.0000 -0.094649395
C   C12       1.0  0.37460  0.09360  0.36460  1.0000 -0.094649395
C   C13       1.0  0.77730  0.67410  0.92210  1.0000 -0.3431461621
C   C14       1.0  0.67410  0.77730  0.57790  1.0000 -0.3431461621
C   C15       1.0  0.22270  0.32590  0.07790  1.0000 -0.3431461621
C   C16       1.0  0.32590  0.22270  0.42210  1.0000 -0.3431461621
C   C17       1.0  0.75220  0.52040  0.94270  1.0000 0.677648453
C   C18       1.0  0.52040  0.75220  0.55730  1.0000 0.677648453
C   C19       1.0  0.24780  0.47960  0.05730  1.0000 0.677648453
C   C20       1.0  0.47960  0.24780  0.44270  1.0000 0.677648453
C   C21       1.0  0.49650  0.22910  0.87020  1.0000 0.6245768051
C   C22       1.0  0.22910  0.49650  0.62980  1.0000 0.6245768051
C   C23       1.0  0.50350  0.77090  0.12980  1.0000 0.6245768051
C   C24       1.0  0.77090  0.50350  0.37020  1.0000 0.6245768051
C   C25       1.0  0.38340  0.23560  0.80790  1.0000 -0.3302819673
C   C26       1.0  0.23560  0.38340  0.69210  1.0000 -0.3302819673
C   C27       1.0  0.61660  0.76440  0.19210  1.0000 -0.3302819673
C   C28       1.0  0.76440  0.61660  0.30790  1.0000 -0.3302819673
C   C29       1.0  0.36690  0.36690  0.75000  1.0000 -0.101605909
C   C30       1.0  0.63310  0.63310  0.25000  1.0000 -0.101605909
O   O1        1.0  0.96840  0.94180  0.93790  1.0000 -0.7692510356
O   O2        1.0  0.94180  0.96840  0.56210  1.0000 -0.7692510356
O   O3        1.0  0.03160  0.05820  0.06210  1.0000 -0.7692510356
O   O4        1.0  0.05820  0.03160  0.43790  1.0000 -0.7692510356
O   O5        1.0  0.78090  0.31750  0.09420  1.0000 -0.5960223843
O   O6        1.0  0.31750  0.78090  0.40580  1.0000 -0.5960223843
O   O7        1.0  0.21910  0.68250  0.90580  1.0000 -0.5960223843
O   O8        1.0  0.68250  0.21910  0.59420  1.0000 -0.5936391164
O   O9        1.0  0.59500  0.56540  0.96600  1.0000 -0.7583655287
O   O10       1.0  0.56540  0.59500  0.53400  1.0000 -0.7583655287
O   O11       1.0  0.40500  0.43460  0.03400  1.0000 -0.7583655287
O   O12       1.0  0.43460  0.40500  0.46600  1.0000 -0.7583655287
O   O13       1.0  0.88280  0.35000  0.93930  1.0000 -0.609855773
O   O14       1.0  0.35000  0.88280  0.56070  1.0000 -0.609855773
O   O15       1.0  0.11720  0.65000  0.06070  1.0000 -0.609855773
O   O16       1.0  0.65000  0.11720  0.43930  1.0000 -0.609855773
O   O17       1.0  0.59910  0.29050  0.86720  1.0000 -0.5936391164
O   O18       1.0  0.29050  0.59910  0.63280  1.0000 -0.5936391164
O   O19       1.0  0.40090  0.70950  0.13280  1.0000 -0.5936391164
O   O20       1.0  0.70950  0.40090  0.36720  1.0000 -0.5936391164
O   O21       1.0  0.49030  0.15490  0.92600  1.0000 -0.6543746908
O   O22       1.0  0.15490  0.49030  0.57400  1.0000 -0.6543746908
O   O23       1.0  0.50970  0.84510  0.07400  1.0000 -0.6543746908
O   O24       1.0  0.84510  0.50970  0.42600  1.0000 -0.6543746908
