# DDEC6 charges by PACMAN v1.1 (https://github.com/mtap-research/PACMAN-charge/)
data_1997[Ag][nan]3[ASR]1
_chemical_formula_sum              "Ag4 H80 C96 N16"
_cell_length_a       24.4062
_cell_length_b       19.9709
_cell_length_c       15.8047
_cell_angle_alpha    85.1873
_cell_angle_beta     54.6255
_cell_angle_gamma    40.1872

_symmetry_space_group_name_H-M    "P 1"
_symmetry_Int_Tables_number       1

loop_
  _symmetry_equiv_pos_as_xyz
  'x, y, z'

loop_
  _atom_site_type_symbol
  _atom_site_label
  _atom_site_symmetry_multiplicity
  _atom_site_fract_x
  _atom_site_fract_y
  _atom_site_fract_z
  _atom_site_occupancy
  _atom_site_charge
Ag  Ag1       1.0  0.61160  0.61160  0.38840  1.0000 0.2106658302
Ag  Ag2       1.0  0.38840  0.38840  0.61160  1.0000 0.2106658302
Ag  Ag3       1.0  0.63840  0.63840  0.86160  1.0000 0.2106658302
Ag  Ag4       1.0  0.86160  0.86160  0.63840  1.0000 0.2106658302
H   H1        1.0  0.23540  0.09300  0.35600  1.0000 0.1213333893
H   H2        1.0  0.09300  0.23540  0.31560  1.0000 0.1213333893
H   H3        1.0  0.31560  0.35600  0.09300  1.0000 0.1213333893
H   H4        1.0  0.35600  0.31560  0.23540  1.0000 0.1213333893
H   H5        1.0  0.01460  0.15700  0.89400  1.0000 0.1213333893
H   H6        1.0  0.15700  0.01460  0.93440  1.0000 0.1213333893
H   H7        1.0  0.93440  0.89400  0.15700  1.0000 0.1213333893
H   H8        1.0  0.89400  0.93440  0.01460  1.0000 0.1213333893
H   H9        1.0  0.36750  0.89890  0.18550  1.0000 0.0874503309
H   H10       1.0  0.89890  0.36750  0.54810  1.0000 0.0874503309
H   H11       1.0  0.54810  0.18550  0.89890  1.0000 0.0874503309
H   H12       1.0  0.18550  0.54810  0.36750  1.0000 0.0874503309
H   H13       1.0  0.88250  0.35110  0.06450  1.0000 0.0874503309
H   H14       1.0  0.35110  0.88250  0.70190  1.0000 0.0874503309
H   H15       1.0  0.70190  0.06450  0.35110  1.0000 0.0874503309
H   H16       1.0  0.06450  0.70190  0.88250  1.0000 0.0874503309
H   H17       1.0  0.19060  0.25140  0.41120  1.0000 0.0826323958
H   H18       1.0  0.25140  0.19060  0.14680  1.0000 0.0826323958
H   H19       1.0  0.14680  0.41120  0.25140  1.0000 0.0826323958
H   H20       1.0  0.41120  0.14680  0.19060  1.0000 0.0826323958
H   H21       1.0  0.05940  0.99860  0.83880  1.0000 0.0826323958
H   H22       1.0  0.99860  0.05940  0.10320  1.0000 0.0826323958
H   H23       1.0  0.10320  0.83880  0.99860  1.0000 0.0826323958
H   H24       1.0  0.83880  0.10320  0.05940  1.0000 0.0826323958
H   H25       1.0  0.58580  0.15640  0.29920  1.0000 0.0826323958
H   H26       1.0  0.15640  0.58580  0.95860  1.0000 0.0826323958
H   H27       1.0  0.95860  0.29920  0.15640  1.0000 0.0826323958
H   H28       1.0  0.29920  0.95860  0.58580  1.0000 0.0826323958
H   H29       1.0  0.66420  0.09360  0.95080  1.0000 0.0826323958
H   H30       1.0  0.09360  0.66420  0.29140  1.0000 0.0826323958
H   H31       1.0  0.29140  0.95080  0.09360  1.0000 0.0826323958
H   H32       1.0  0.95080  0.29140  0.66420  1.0000 0.0826323958
H   H33       1.0  0.59540  0.06220  0.20220  1.0000 0.127190675
H   H34       1.0  0.06220  0.59540  0.14020  1.0000 0.127190675
H   H35       1.0  0.14020  0.20220  0.06220  1.0000 0.127190675
H   H36       1.0  0.20220  0.14020  0.59540  1.0000 0.127190675
H   H37       1.0  0.65460  0.18780  0.04780  1.0000 0.127190675
H   H38       1.0  0.18780  0.65460  0.10980  1.0000 0.127190675
H   H39       1.0  0.10980  0.04780  0.18780  1.0000 0.127190675
H   H40       1.0  0.04780  0.10980  0.65460  1.0000 0.127190675
H   H41       1.0  0.59640  0.85680  0.22220  1.0000 0.127190675
H   H42       1.0  0.85680  0.59640  0.32460  1.0000 0.127190675
H   H43       1.0  0.32460  0.22220  0.85680  1.0000 0.127190675
H   H44       1.0  0.22220  0.32460  0.59640  1.0000 0.127190675
H   H45       1.0  0.65360  0.39320  0.02780  1.0000 0.127190675
H   H46       1.0  0.39320  0.65360  0.92540  1.0000 0.127190675
H   H47       1.0  0.92540  0.02780  0.39320  1.0000 0.127190675
H   H48       1.0  0.02780  0.92540  0.65360  1.0000 0.127190675
H   H49       1.0  0.68040  0.68760  0.23160  1.0000 0.0874503309
H   H50       1.0  0.68760  0.68040  0.40040  1.0000 0.0874503309
H   H51       1.0  0.40040  0.23160  0.68760  1.0000 0.0874503309
H   H52       1.0  0.23160  0.40040  0.68040  1.0000 0.0874503309
H   H53       1.0  0.56960  0.56240  0.01840  1.0000 0.0874503309
H   H54       1.0  0.56240  0.56960  0.84960  1.0000 0.0874503309
H   H55       1.0  0.84960  0.01840  0.56240  1.0000 0.0874503309
H   H56       1.0  0.01840  0.84960  0.56960  1.0000 0.0874503309
H   H57       1.0  0.51600  0.02080  0.23540  1.0000 0.0826323958
H   H58       1.0  0.02080  0.51600  0.22780  1.0000 0.0826323958
H   H59       1.0  0.22780  0.23540  0.02080  1.0000 0.0826323958
H   H60       1.0  0.23540  0.22780  0.51600  1.0000 0.0826323958
H   H61       1.0  0.73400  0.22920  0.01460  1.0000 0.0826323958
H   H62       1.0  0.22920  0.73400  0.02220  1.0000 0.0826323958
H   H63       1.0  0.02220  0.01460  0.22920  1.0000 0.0826323958
H   H64       1.0  0.01460  0.02220  0.73400  1.0000 0.0826323958
H   H65       1.0  0.68350  0.74650  0.89630  1.0000 0.0874503309
H   H66       1.0  0.74650  0.68350  0.67370  1.0000 0.0874503309
H   H67       1.0  0.67370  0.89630  0.74650  1.0000 0.0874503309
H   H68       1.0  0.89630  0.67370  0.68350  1.0000 0.0874503309
H   H69       1.0  0.56650  0.50350  0.35370  1.0000 0.0874503309
H   H70       1.0  0.50350  0.56650  0.57630  1.0000 0.0874503309
H   H71       1.0  0.57630  0.35370  0.50350  1.0000 0.0874503309
H   H72       1.0  0.35370  0.57630  0.56650  1.0000 0.0874503309
H   H73       1.0  0.56010  0.93830  0.05610  1.0000 0.1213333893
H   H74       1.0  0.93830  0.56010  0.44550  1.0000 0.1213333893
H   H75       1.0  0.44550  0.05610  0.93830  1.0000 0.1213333893
H   H76       1.0  0.05610  0.44550  0.56010  1.0000 0.1213333893
H   H77       1.0  0.68990  0.31170  0.19390  1.0000 0.1213333893
H   H78       1.0  0.31170  0.68990  0.80450  1.0000 0.1213333893
H   H79       1.0  0.80450  0.19390  0.31170  1.0000 0.1213333893
H   H80       1.0  0.19390  0.80450  0.68990  1.0000 0.1213333893
C   C1        1.0  0.38210  0.03930  0.22530  1.0000 0.1213333893
C   C2        1.0  0.03930  0.38210  0.35330  1.0000 0.1213333893
C   C3        1.0  0.35330  0.22530  0.03930  1.0000 0.1213333893
C   C4        1.0  0.22530  0.35330  0.38210  1.0000 0.1213333893
C   C5        1.0  0.86790  0.21070  0.02470  1.0000 0.1213333893
C   C6        1.0  0.21070  0.86790  0.89670  1.0000 0.1213333893
C   C7        1.0  0.89670  0.02470  0.21070  1.0000 0.1213333893
C   C8        1.0  0.02470  0.89670  0.86790  1.0000 0.1213333893
C   C9        1.0  0.32740  0.02340  0.26140  1.0000 -0.2107183833
C   C10       1.0  0.02340  0.32740  0.38780  1.0000 -0.2107183833
C   C11       1.0  0.38780  0.26140  0.02340  1.0000 -0.2107183833
C   C12       1.0  0.26140  0.38780  0.32740  1.0000 -0.2107183833
C   C13       1.0  0.92260  0.22660  0.98860  1.0000 -0.2107183833
C   C14       1.0  0.22660  0.92260  0.86220  1.0000 -0.2107183833
C   C15       1.0  0.86220  0.98860  0.22660  1.0000 -0.2107183833
C   C16       1.0  0.98860  0.86220  0.92260  1.0000 -0.2107183833
C   C17       1.0  0.40740  0.90680  0.15900  1.0000 0.0307740558
C   C18       1.0  0.90680  0.40740  0.52680  1.0000 0.0307740558
C   C19       1.0  0.52680  0.15900  0.90680  1.0000 0.0307740558
C   C20       1.0  0.15900  0.52680  0.40740  1.0000 0.0307740558
C   C21       1.0  0.84260  0.34320  0.09100  1.0000 0.0307740558
C   C22       1.0  0.34320  0.84260  0.72320  1.0000 0.0307740558
C   C23       1.0  0.72320  0.09100  0.34320  1.0000 0.0307740558
C   C24       1.0  0.09100  0.72320  0.84260  1.0000 0.0307740558
C   C25       1.0  0.29390  0.16570  0.34050  1.0000 -0.1071866455
C   C26       1.0  0.16570  0.29390  0.19990  1.0000 -0.1071866455
C   C27       1.0  0.19990  0.34050  0.16570  1.0000 -0.1071866455
C   C28       1.0  0.34050  0.19990  0.29390  1.0000 -0.1071866455
C   C29       1.0  0.95610  0.08430  0.90950  1.0000 -0.1071866455
C   C30       1.0  0.08430  0.95610  0.05010  1.0000 -0.1071866455
C   C31       1.0  0.05010  0.90950  0.08430  1.0000 -0.1071866455
C   C32       1.0  0.90950  0.05010  0.95610  1.0000 -0.1071866455
C   C33       1.0  0.36160  0.93700  0.51080  1.0000 0.0307740558
C   C34       1.0  0.93700  0.36160  0.19060  1.0000 0.0307740558
C   C35       1.0  0.19060  0.51080  0.93700  1.0000 0.0307740558
C   C36       1.0  0.51080  0.19060  0.36160  1.0000 0.0307740558
C   C37       1.0  0.88840  0.31300  0.73920  1.0000 0.0307740558
C   C38       1.0  0.31300  0.88840  0.05940  1.0000 0.0307740558
C   C39       1.0  0.05940  0.73920  0.31300  1.0000 0.0307740558
C   C40       1.0  0.73920  0.05940  0.88840  1.0000 0.0307740558
C   C41       1.0  0.30220  0.04680  0.51700  1.0000 -0.231770321
C   C42       1.0  0.04680  0.30220  0.13400  1.0000 -0.231770321
C   C43       1.0  0.13400  0.51700  0.04680  1.0000 -0.231770321
C   C44       1.0  0.51700  0.13400  0.30220  1.0000 -0.231770321
C   C45       1.0  0.94780  0.20320  0.73300  1.0000 -0.231770321
C   C46       1.0  0.20320  0.94780  0.11600  1.0000 -0.231770321
C   C47       1.0  0.11600  0.73300  0.20320  1.0000 -0.231770321
C   C48       1.0  0.73300  0.11600  0.94780  1.0000 -0.231770321
C   C49       1.0  0.38790  0.02090  0.40970  1.0000 0.127190675
C   C50       1.0  0.02090  0.38790  0.18150  1.0000 0.127190675
C   C51       1.0  0.18150  0.40970  0.02090  1.0000 0.127190675
C   C52       1.0  0.40970  0.18150  0.38790  1.0000 0.127190675
C   C53       1.0  0.86210  0.22910  0.84030  1.0000 0.127190675
C   C54       1.0  0.22910  0.86210  0.06850  1.0000 0.127190675
C   C55       1.0  0.06850  0.84030  0.22910  1.0000 0.127190675
C   C56       1.0  0.84030  0.06850  0.86210  1.0000 0.127190675
C   C57       1.0  0.53140  0.88260  0.30080  1.0000 -0.2165653593
C   C58       1.0  0.88260  0.53140  0.28520  1.0000 -0.2165653593
C   C59       1.0  0.28520  0.30080  0.88260  1.0000 -0.2165653593
C   C60       1.0  0.30080  0.28520  0.53140  1.0000 -0.2165653593
C   C61       1.0  0.71860  0.36740  0.94920  1.0000 -0.2165653593
C   C62       1.0  0.36740  0.71860  0.96480  1.0000 -0.2165653593
C   C63       1.0  0.96480  0.94920  0.36740  1.0000 -0.2165653593
C   C64       1.0  0.94920  0.96480  0.71860  1.0000 -0.2165653593
C   C65       1.0  0.58070  0.78090  0.30610  1.0000 0.0474059975
C   C66       1.0  0.78090  0.58070  0.33230  1.0000 0.0474059975
C   C67       1.0  0.33230  0.30610  0.78090  1.0000 0.0474059975
C   C68       1.0  0.30610  0.33230  0.58070  1.0000 0.0474059975
C   C69       1.0  0.66930  0.46910  0.94390  1.0000 0.0474059975
C   C70       1.0  0.46910  0.66930  0.91770  1.0000 0.0474059975
C   C71       1.0  0.91770  0.94390  0.46910  1.0000 0.0474059975
C   C72       1.0  0.94390  0.91770  0.66930  1.0000 0.0474059975
C   C73       1.0  0.32460  0.13760  0.41500  1.0000 -0.0987797745
C   C74       1.0  0.13760  0.32460  0.12280  1.0000 -0.0987797745
C   C75       1.0  0.12280  0.41500  0.13760  1.0000 -0.0987797745
C   C76       1.0  0.41500  0.12280  0.32460  1.0000 -0.0987797745
C   C77       1.0  0.92540  0.11240  0.83500  1.0000 -0.0987797745
C   C78       1.0  0.11240  0.92540  0.12720  1.0000 -0.0987797745
C   C79       1.0  0.12720  0.83500  0.11240  1.0000 -0.0987797745
C   C80       1.0  0.83500  0.12720  0.92540  1.0000 -0.0987797745
C   C81       1.0  0.51780  0.93280  0.08600  1.0000 -0.2165653593
C   C82       1.0  0.93280  0.51780  0.46340  1.0000 -0.2165653593
C   C83       1.0  0.46340  0.08600  0.93280  1.0000 -0.2165653593
C   C84       1.0  0.08600  0.46340  0.51780  1.0000 -0.2165653593
C   C85       1.0  0.73220  0.31720  0.16400  1.0000 -0.2165653593
C   C86       1.0  0.31720  0.73220  0.78660  1.0000 -0.2165653593
C   C87       1.0  0.78660  0.16400  0.31720  1.0000 -0.2165653593
C   C88       1.0  0.16400  0.78660  0.73220  1.0000 -0.2165653593
C   C89       1.0  0.59040  0.81880  0.99120  1.0000 0.0307740558
C   C90       1.0  0.81880  0.59040  0.59960  1.0000 0.0307740558
C   C91       1.0  0.59960  0.99120  0.81880  1.0000 0.0307740558
C   C92       1.0  0.99120  0.59960  0.59040  1.0000 0.0307740558
C   C93       1.0  0.65960  0.43120  0.25880  1.0000 0.0307740558
C   C94       1.0  0.43120  0.65960  0.65040  1.0000 0.0307740558
C   C95       1.0  0.65040  0.25880  0.43120  1.0000 0.0307740558
C   C96       1.0  0.25880  0.65040  0.65960  1.0000 0.0307740558
N   N1        1.0  0.49950  0.80450  0.40670  1.0000 -0.2165653593
N   N2        1.0  0.80450  0.49950  0.28930  1.0000 -0.2165653593
N   N3        1.0  0.28930  0.40670  0.80450  1.0000 -0.2165653593
N   N4        1.0  0.40670  0.28930  0.49950  1.0000 -0.2165653593
N   N5        1.0  0.75050  0.44550  0.84330  1.0000 -0.2165653593
N   N6        1.0  0.44550  0.75050  0.96070  1.0000 -0.2165653593
N   N7        1.0  0.96070  0.84330  0.44550  1.0000 -0.2165653593
N   N8        1.0  0.84330  0.96070  0.75050  1.0000 -0.2165653593
N   N9        1.0  0.53820  0.80360  0.02440  1.0000 -0.2027302508
N   N10       1.0  0.80360  0.53820  0.63380  1.0000 -0.2027302508
N   N11       1.0  0.63380  0.02440  0.80360  1.0000 -0.2027302508
N   N12       1.0  0.02440  0.63380  0.53820  1.0000 -0.2027302508
N   N13       1.0  0.71180  0.44640  0.22560  1.0000 -0.2027302508
N   N14       1.0  0.44640  0.71180  0.61620  1.0000 -0.2027302508
N   N15       1.0  0.61620  0.22560  0.44640  1.0000 -0.2027302508
N   N16       1.0  0.22560  0.61620  0.71180  1.0000 -0.2027302508
