# DDEC6 charges by PACMAN v1.1 (https://github.com/mtap-research/PACMAN-charge/)
data_1998[Co][nan]3[ASR]1
_chemical_formula_sum              "Co20 H104 C64 O72"
_cell_length_a       17.7233
_cell_length_b       17.7233
_cell_length_c       17.7233
_cell_angle_alpha    96.1106
_cell_angle_beta     96.1106
_cell_angle_gamma    141.916

_symmetry_space_group_name_H-M    "P 1"
_symmetry_Int_Tables_number       1

loop_
  _symmetry_equiv_pos_as_xyz
  'x, y, z'

loop_
  _atom_site_type_symbol
  _atom_site_label
  _atom_site_symmetry_multiplicity
  _atom_site_fract_x
  _atom_site_fract_y
  _atom_site_fract_z
  _atom_site_occupancy
  _atom_site_charge
Co  Co1       1.0  0.82240  0.40160  0.02480  1.0000 1.0619786372
Co  Co2       1.0  0.04760  0.57240  0.92080  1.0000 1.0619786372
Co  Co3       1.0  0.37680  0.79760  0.97520  1.0000 1.0619786372
Co  Co4       1.0  0.65160  0.12680  0.07920  1.0000 1.0619786372
Co  Co5       1.0  0.42760  0.34840  0.47520  1.0000 1.0619786372
Co  Co6       1.0  0.20240  0.17760  0.57920  1.0000 1.0619786372
Co  Co7       1.0  0.87320  0.95240  0.52480  1.0000 1.0619786372
Co  Co8       1.0  0.59840  0.62320  0.42080  1.0000 1.0619786372
Co  Co9       1.0  0.62500  0.37500  0.75000  1.0000 1.0417355886
Co  Co10      1.0  0.12500  0.37500  0.75000  1.0000 1.0417355886
Co  Co11      1.0  0.62500  0.87500  0.25000  1.0000 1.0417355886
Co  Co12      1.0  0.62500  0.37500  0.25000  1.0000 1.0417355886
Co  Co13      1.0  0.75510  0.33750  0.83780  1.0000 1.0185330203
Co  Co14      1.0  0.16730  0.50510  0.91760  1.0000 1.0185330203
Co  Co15      1.0  0.49970  0.91730  0.16220  1.0000 1.0185330203
Co  Co16      1.0  0.58750  0.24970  0.08240  1.0000 1.0185330203
Co  Co17      1.0  0.49490  0.41250  0.66220  1.0000 1.0185330203
Co  Co18      1.0  0.08270  0.24490  0.58240  1.0000 1.0185330203
Co  Co19      1.0  0.75030  0.83270  0.33780  1.0000 1.0185330203
Co  Co20      1.0  0.66250  0.50030  0.41760  1.0000 1.0185330203
H   H1        1.0  0.88920  0.53880  0.94300  1.0000 0.4103394961
H   H2        1.0  0.19620  0.63920  0.85040  1.0000 0.4103394961
H   H3        1.0  0.59580  0.94620  0.05700  1.0000 0.4103394961
H   H4        1.0  0.78880  0.34580  0.14960  1.0000 0.4103394961
H   H5        1.0  0.36080  0.21120  0.55700  1.0000 0.4103394961
H   H6        1.0  0.05380  0.11080  0.64960  1.0000 0.4103394961
H   H7        1.0  0.65420  0.80380  0.44300  1.0000 0.4103394961
H   H8        1.0  0.46120  0.40420  0.35040  1.0000 0.4103394961
H   H9        1.0  0.74580  0.09100  0.85980  1.0000 0.1691696608
H   H10       1.0  0.13600  0.49580  0.15480  1.0000 0.1691696608
H   H11       1.0  0.23120  0.88600  0.14020  1.0000 0.1691696608
H   H12       1.0  0.34100  0.98120  0.84520  1.0000 0.1691696608
H   H13       1.0  0.50420  0.65900  0.64020  1.0000 0.1691696608
H   H14       1.0  0.11400  0.25420  0.34520  1.0000 0.1691696608
H   H15       1.0  0.01880  0.86400  0.35980  1.0000 0.1691696608
H   H16       1.0  0.90900  0.76880  0.65480  1.0000 0.1691696608
H   H17       1.0  0.60190  0.00210  0.83740  1.0000 0.1819169959
H   H18       1.0  0.01450  0.35190  0.09980  1.0000 0.1819169959
H   H19       1.0  0.16470  0.76450  0.16260  1.0000 0.1819169959
H   H20       1.0  0.25210  0.91470  0.90020  1.0000 0.1819169959
H   H21       1.0  0.64810  0.74790  0.66260  1.0000 0.1819169959
H   H22       1.0  0.23550  0.39810  0.40020  1.0000 0.1819169959
H   H23       1.0  0.08530  0.98550  0.33740  1.0000 0.1819169959
H   H24       1.0  0.99790  0.83530  0.59980  1.0000 0.1819169959
H   H25       1.0  0.70050  0.12410  0.81000  1.0000 0.1622745402
H   H26       1.0  0.14050  0.45050  0.07640  1.0000 0.1622745402
H   H27       1.0  0.31410  0.89050  0.19000  1.0000 0.1622745402
H   H28       1.0  0.37410  0.06410  0.92360  1.0000 0.1622745402
H   H29       1.0  0.54950  0.62590  0.69000  1.0000 0.1622745402
H   H30       1.0  0.10950  0.29950  0.42360  1.0000 0.1691696608
H   H31       1.0  0.93590  0.85950  0.31000  1.0000 0.1622745402
H   H32       1.0  0.87590  0.68590  0.57640  1.0000 0.1622745402
H   H33       1.0  0.95780  0.65440  0.69640  1.0000 0.1622745402
H   H34       1.0  0.51140  0.70780  0.80340  1.0000 0.1622745402
H   H35       1.0  0.95800  0.26140  0.30360  1.0000 0.1622745402
H   H36       1.0  0.90440  0.70800  0.19660  1.0000 0.1622745402
H   H37       1.0  0.29220  0.09560  0.80360  1.0000 0.1622745402
H   H38       1.0  0.73860  0.04220  0.69660  1.0000 0.1622745402
H   H39       1.0  0.29200  0.48860  0.19640  1.0000 0.1622745402
H   H40       1.0  0.34560  0.04200  0.30340  1.0000 0.1622745402
H   H41       1.0  0.87600  0.64030  0.73850  1.0000 0.1622745402
H   H42       1.0  0.38750  0.62600  0.73570  1.0000 0.1622745402
H   H43       1.0  0.90180  0.13750  0.26150  1.0000 0.1622745402
H   H44       1.0  0.89030  0.65180  0.26430  1.0000 0.1622745402
H   H45       1.0  0.37400  0.10970  0.76150  1.0000 0.1622745402
H   H46       1.0  0.86250  0.12400  0.76430  1.0000 0.1622745402
H   H47       1.0  0.34820  0.61250  0.23850  1.0000 0.1622745402
H   H48       1.0  0.35970  0.09820  0.23570  1.0000 0.1622745402
H   H49       1.0  0.02440  0.75170  0.78050  1.0000 0.1622745402
H   H50       1.0  0.49390  0.77440  0.77270  1.0000 0.1622745402
H   H51       1.0  0.97120  0.24390  0.21950  1.0000 0.1622745402
H   H52       1.0  0.00170  0.72120  0.22730  1.0000 0.1622745402
H   H53       1.0  0.22560  0.99830  0.71950  1.0000 0.1622745402
H   H54       1.0  0.75610  0.97560  0.72730  1.0000 0.1622745402
H   H55       1.0  0.27880  0.50610  0.28050  1.0000 0.1622745402
H   H56       1.0  0.24830  0.02880  0.27270  1.0000 0.1622745402
H   H57       1.0  0.47830  0.29680  0.95350  1.0000 0.1622745402
H   H58       1.0  0.77480  0.22830  0.68150  1.0000 0.1622745402
H   H59       1.0  0.34330  0.52480  0.04650  1.0000 0.1622745402
H   H60       1.0  0.54680  0.09330  0.31850  1.0000 0.1622745402
H   H61       1.0  0.77170  0.45320  0.54650  1.0000 0.1622745402
H   H62       1.0  0.47520  0.52170  0.81850  1.0000 0.1622745402
H   H63       1.0  0.90670  0.22520  0.45350  1.0000 0.1622745402
H   H64       1.0  0.70320  0.65670  0.18150  1.0000 0.1622745402
H   H65       1.0  0.61280  0.44290  0.97390  1.0000 0.1691696608
H   H66       1.0  0.88890  0.36280  0.66990  1.0000 0.1691696608
H   H67       1.0  0.46900  0.63890  0.02610  1.0000 0.1691696608
H   H68       1.0  0.69290  0.21900  0.33010  1.0000 0.1691696608
H   H69       1.0  0.63720  0.30710  0.52610  1.0000 0.1691696608
H   H70       1.0  0.36110  0.38720  0.83010  1.0000 0.1691696608
H   H71       1.0  0.78100  0.11110  0.47390  1.0000 0.1691696608
H   H72       1.0  0.55710  0.53100  0.16990  1.0000 0.1691696608
H   H73       1.0  0.52200  0.36130  0.88530  1.0000 0.1691696608
H   H74       1.0  0.88670  0.27200  0.66070  1.0000 0.1691696608
H   H75       1.0  0.47600  0.63670  0.11470  1.0000 0.1691696608
H   H76       1.0  0.61130  0.22600  0.33930  1.0000 0.1691696608
H   H77       1.0  0.72800  0.38870  0.61470  1.0000 0.1691696608
H   H78       1.0  0.36330  0.47800  0.83930  1.0000 0.1691696608
H   H79       1.0  0.77400  0.11330  0.38530  1.0000 0.1691696608
H   H80       1.0  0.63870  0.52400  0.16070  1.0000 0.1691696608
H   H81       1.0  0.42340  0.95760  0.65040  1.0000 0.1691696608
H   H82       1.0  0.02300  0.17340  0.96580  1.0000 0.1691696608
H   H83       1.0  0.30720  0.77300  0.34960  1.0000 0.1691696608
H   H84       1.0  0.20760  0.05720  0.03420  1.0000 0.1691696608
H   H85       1.0  0.82660  0.79240  0.84960  1.0000 0.1691696608
H   H86       1.0  0.22700  0.57660  0.53420  1.0000 0.1691696608
H   H87       1.0  0.94280  0.97700  0.15040  1.0000 0.1691696608
H   H88       1.0  0.04240  0.69280  0.46580  1.0000 0.1691696608
H   H89       1.0  0.48620  0.02800  0.58740  1.0000 0.1622745402
H   H90       1.0  0.14880  0.23620  0.95820  1.0000 0.1622745402
H   H91       1.0  0.44060  0.89880  0.41260  1.0000 0.1622745402
H   H92       1.0  0.27800  0.19060  0.04180  1.0000 0.1622745402
H   H93       1.0  0.76380  0.72200  0.91260  1.0000 0.1622745402
H   H94       1.0  0.10120  0.51380  0.54180  1.0000 0.1622745402
H   H95       1.0  0.80940  0.85120  0.08740  1.0000 0.1622745402
H   H96       1.0  0.97200  0.55940  0.45820  1.0000 0.1622745402
H   H97       1.0  0.36800  0.98000  0.59840  1.0000 0.1622745402
H   H98       1.0  0.01960  0.11800  0.88800  1.0000 0.1622745402
H   H99       1.0  0.38160  0.76960  0.40160  1.0000 0.1622745402
H   H100      1.0  0.23000  0.13160  0.11200  1.0000 0.1622745402
H   H101      1.0  0.88200  0.77000  0.90160  1.0000 0.1622745402
H   H102      1.0  0.23040  0.63200  0.61200  1.0000 0.1622745402
H   H103      1.0  0.86840  0.98040  0.09840  1.0000 0.1622745402
H   H104      1.0  0.02000  0.61840  0.38800  1.0000 0.1622745402
C   C1        1.0  0.72050  0.16720  0.92810  1.0000 0.7128469563
C   C2        1.0  0.04240  0.47050  0.05330  1.0000 0.7128469563
C   C3        1.0  0.23910  0.79240  0.07190  1.0000 0.7128469563
C   C4        1.0  0.41720  0.98910  0.94670  1.0000 0.7128469563
C   C5        1.0  0.52950  0.58280  0.57190  1.0000 0.7128469563
C   C6        1.0  0.20760  0.27950  0.44670  1.0000 0.7128469563
C   C7        1.0  0.01090  0.95760  0.42810  1.0000 0.7128469563
C   C8        1.0  0.83280  0.76090  0.55330  1.0000 0.7128469563
C   C9        1.0  0.68940  0.08880  0.85220  1.0000 -0.5885585332
C   C10       1.0  0.08720  0.43940  0.10060  1.0000 -0.5885585332
C   C11       1.0  0.23660  0.83720  0.14780  1.0000 -0.5885585332
C   C12       1.0  0.33880  0.98660  0.89940  1.0000 -0.5885585332
C   C13       1.0  0.56060  0.66120  0.64780  1.0000 -0.5885585332
C   C14       1.0  0.16280  0.31060  0.39940  1.0000 -0.5885585332
C   C15       1.0  0.01340  0.91280  0.35220  1.0000 -0.5885585332
C   C16       1.0  0.91120  0.76340  0.60060  1.0000 -0.5885585332
C   C17       1.0  0.92350  0.57850  0.78800  1.0000 0.7204258582
C   C18       1.0  0.38550  0.67350  0.84500  1.0000 0.7204258582
C   C19       1.0  0.79050  0.13550  0.21200  1.0000 0.7204258582
C   C20       1.0  0.82850  0.54050  0.15500  1.0000 0.7204258582
C   C21       1.0  0.32650  0.17150  0.71200  1.0000 0.7204258582
C   C22       1.0  0.86450  0.07650  0.65500  1.0000 0.7204258582
C   C23       1.0  0.45950  0.61450  0.28800  1.0000 0.7204258582
C   C24       1.0  0.42150  0.20950  0.34500  1.0000 0.7204258582
C   C25       1.0  0.94760  0.66370  0.74730  1.0000 -0.5885585332
C   C26       1.0  0.45030  0.69760  0.78390  1.0000 -0.5885585332
C   C27       1.0  0.91640  0.20030  0.25270  1.0000 -0.5885585332
C   C28       1.0  0.91370  0.66640  0.21610  1.0000 -0.5885585332
C   C29       1.0  0.30240  0.08630  0.75270  1.0000 -0.5885585332
C   C30       1.0  0.79970  0.05240  0.71610  1.0000 -0.5885585332
C   C31       1.0  0.33360  0.54970  0.24730  1.0000 -0.5885585332
C   C32       1.0  0.33630  0.08360  0.28390  1.0000 -0.5885585332
C   C33       1.0  0.60960  0.33220  0.92180  1.0000 0.7259490928
C   C34       1.0  0.93780  0.35960  0.77740  1.0000 0.7259490928
C   C35       1.0  0.41040  0.68780  0.07820  1.0000 0.7259490928
C   C36       1.0  0.58220  0.16040  0.22260  1.0000 0.7259490928
C   C37       1.0  0.64040  0.41780  0.57820  1.0000 0.7259490928
C   C38       1.0  0.31220  0.39040  0.72260  1.0000 0.7259490928
C   C39       1.0  0.83960  0.06220  0.42180  1.0000 0.7259490928
C   C40       1.0  0.66780  0.58960  0.27740  1.0000 0.7259490928
C   C41       1.0  0.54980  0.36040  0.93420  1.0000 -0.5968843708
C   C42       1.0  0.86560  0.29980  0.68940  1.0000 -0.5968843708
C   C43       1.0  0.42620  0.61560  0.06580  1.0000 -0.5968843708
C   C44       1.0  0.61040  0.17620  0.31060  1.0000 -0.5968843708
C   C45       1.0  0.70020  0.38960  0.56580  1.0000 -0.5968843708
C   C46       1.0  0.38440  0.45020  0.81060  1.0000 -0.5968843708
C   C47       1.0  0.82380  0.13440  0.43420  1.0000 -0.5968843708
C   C48       1.0  0.63960  0.57380  0.18940  1.0000 -0.5968843708
C   C49       1.0  0.53830  0.14250  0.68680  1.0000 0.6993378392
C   C50       1.0  0.10150  0.28830  0.89580  1.0000 0.6993378392
C   C51       1.0  0.45570  0.85150  0.31320  1.0000 0.6993378392
C   C52       1.0  0.39250  0.20570  0.10420  1.0000 0.6993378392
C   C53       1.0  0.71170  0.60750  0.81320  1.0000 0.6993378392
C   C54       1.0  0.14850  0.46170  0.60420  1.0000 0.6993378392
C   C55       1.0  0.79430  0.89850  0.18680  1.0000 0.6993378392
C   C56       1.0  0.85750  0.54430  0.39580  1.0000 0.6993378392
C   C57       1.0  0.44520  0.01610  0.62530  1.0000 -0.5835655043
C   C58       1.0  0.06990  0.19520  0.92910  1.0000 -0.5835655043
C   C59       1.0  0.39080  0.81990  0.37470  1.0000 -0.5835655043
C   C60       1.0  0.26610  0.14080  0.07090  1.0000 -0.5835655043
C   C61       1.0  0.80480  0.73390  0.87470  1.0000 -0.5835655043
C   C62       1.0  0.18010  0.55480  0.57090  1.0000 -0.5835655043
C   C63       1.0  0.85920  0.93010  0.12530  1.0000 -0.5835655043
C   C64       1.0  0.98390  0.60920  0.42910  1.0000 -0.5835655043
O   O1        1.0  0.88780  0.48960  0.94040  1.0000 -0.8769953335
O   O2        1.0  0.19740  0.63780  0.89820  1.0000 -0.8769953335
O   O3        1.0  0.54920  0.94740  0.05960  1.0000 -0.8769953335
O   O4        1.0  0.73960  0.29920  0.10180  1.0000 -0.8769953335
O   O5        1.0  0.36220  0.26040  0.55960  1.0000 -0.8769953335
O   O6        1.0  0.05260  0.11220  0.60180  1.0000 -0.8769953335
O   O7        1.0  0.70080  0.80260  0.44040  1.0000 -0.8769953335
O   O8        1.0  0.51040  0.45080  0.39820  1.0000 -0.8769953335
O   O9        1.0  0.73520  0.24950  0.92390  1.0000 -0.5885585332
O   O10       1.0  0.06130  0.48520  0.98570  1.0000 -0.5885585332
O   O11       1.0  0.32560  0.81130  0.07610  1.0000 -0.5885585332
O   O12       1.0  0.49950  0.07560  0.01430  1.0000 -0.5885585332
O   O13       1.0  0.51480  0.50050  0.57610  1.0000 -0.5885585332
O   O14       1.0  0.18870  0.26480  0.51430  1.0000 -0.5885585332
O   O15       1.0  0.92440  0.93870  0.42390  1.0000 -0.5885585332
O   O16       1.0  0.75050  0.67440  0.48570  1.0000 -0.5885585332
O   O17       1.0  0.02260  0.62890  0.83150  1.0000 -0.5646007368
O   O18       1.0  0.44110  0.77260  0.89370  1.0000 -0.5646007368
O   O19       1.0  0.79740  0.19110  0.16850  1.0000 -0.5646007368
O   O20       1.0  0.87890  0.54740  0.10630  1.0000 -0.5646007368
O   O21       1.0  0.22740  0.12110  0.66850  1.0000 -0.5646007368
O   O22       1.0  0.80890  0.97740  0.60630  1.0000 -0.5646007368
O   O23       1.0  0.45260  0.55890  0.33150  1.0000 -0.5646007368
O   O24       1.0  0.37110  0.20260  0.39370  1.0000 -0.5646007368
O   O25       1.0  0.80690  0.46230  0.77520  1.0000 -0.6309930319
O   O26       1.0  0.28170  0.55690  0.84460  1.0000 -0.6309930319
O   O27       1.0  0.68710  0.03170  0.22480  1.0000 -0.6309930319
O   O28       1.0  0.71230  0.43710  0.15540  1.0000 -0.6309930319
O   O29       1.0  0.44310  0.28770  0.72480  1.0000 -0.6309930319
O   O30       1.0  0.96830  0.19310  0.65540  1.0000 -0.6309930319
O   O31       1.0  0.56290  0.71830  0.27520  1.0000 -0.6309930319
O   O32       1.0  0.53770  0.31290  0.34460  1.0000 -0.6309930319
O   O33       1.0  0.63940  0.31540  0.97900  1.0000 -0.5885585332
O   O34       1.0  0.91040  0.38940  0.82400  1.0000 -0.5885585332
O   O35       1.0  0.33640  0.66040  0.02100  1.0000 -0.5885585332
O   O36       1.0  0.56540  0.08640  0.17600  1.0000 -0.5885585332
O   O37       1.0  0.61060  0.43460  0.52100  1.0000 -0.5885585332
O   O38       1.0  0.33960  0.36060  0.67600  1.0000 -0.5885585332
O   O39       1.0  0.91360  0.08960  0.47900  1.0000 -0.5885585332
O   O40       1.0  0.68460  0.66360  0.32400  1.0000 -0.5885585332
O   O41       1.0  0.62760  0.32580  0.85580  1.0000 -0.5885585332
O   O42       1.0  0.02180  0.37760  0.80180  1.0000 -0.5885585332
O   O43       1.0  0.47000  0.77180  0.14420  1.0000 -0.5885585332
O   O44       1.0  0.57580  0.22000  0.19820  1.0000 -0.5885585332
O   O45       1.0  0.62240  0.42420  0.64420  1.0000 -0.5885585332
O   O46       1.0  0.22820  0.37240  0.69820  1.0000 -0.5885585332
O   O47       1.0  0.78000  0.97820  0.35580  1.0000 -0.5885585332
O   O48       1.0  0.67420  0.53000  0.30180  1.0000 -0.5885585332
O   O49       1.0  0.61690  0.17570  0.74360  1.0000 -0.5725630047
O   O50       1.0  0.12330  0.36690  0.94120  1.0000 -0.5725630047
O   O51       1.0  0.43210  0.87330  0.25640  1.0000 -0.5725630047
O   O52       1.0  0.42570  0.18210  0.05880  1.0000 -0.5725630047
O   O53       1.0  0.63310  0.57430  0.75640  1.0000 -0.5725630047
O   O54       1.0  0.12670  0.38310  0.55880  1.0000 -0.5725630047
O   O55       1.0  0.81790  0.87670  0.24360  1.0000 -0.5725630047
O   O56       1.0  0.82430  0.56790  0.44120  1.0000 -0.5725630047
O   O57       1.0  0.53060  0.20660  0.68100  1.0000 -0.5725630047
O   O58       1.0  0.09960  0.28060  0.82400  1.0000 -0.5725630047
O   O59       1.0  0.52560  0.84960  0.31900  1.0000 -0.5725630047
O   O60       1.0  0.45660  0.27560  0.17600  1.0000 -0.5725630047
O   O61       1.0  0.71940  0.54340  0.81900  1.0000 -0.5725630047
O   O62       1.0  0.15040  0.46940  0.67600  1.0000 -0.5725630047
O   O63       1.0  0.72440  0.90040  0.18100  1.0000 -0.5725630047
O   O64       1.0  0.79340  0.47440  0.32400  1.0000 -0.5725630047
O   O65       1.0  0.73240  0.15070  0.99210  1.0000 -0.524700352
O   O66       1.0  0.99030  0.48240  0.08170  1.0000 -0.524700352
O   O67       1.0  0.15860  0.74030  0.00790  1.0000 -0.524700352
O   O68       1.0  0.40070  0.90860  0.91830  1.0000 -0.524700352
O   O69       1.0  0.51760  0.59930  0.50790  1.0000 -0.524700352
O   O70       1.0  0.25970  0.26760  0.41830  1.0000 -0.524700352
O   O71       1.0  0.09140  0.00970  0.49210  1.0000 -0.524700352
O   O72       1.0  0.84930  0.84140  0.58170  1.0000 -0.524700352
