# DDEC6 charges by PACMAN v1.1 (https://github.com/mtap-research/PACMAN-charge/)
data_1999[Ti][bcu]3[ASR]1
_chemical_formula_sum              "Ti8 H96 C160 O32"
_cell_length_a       11.095
_cell_length_b       17.97
_cell_length_c       19.484
_cell_angle_alpha    90
_cell_angle_beta     90
_cell_angle_gamma    90

_symmetry_space_group_name_H-M    "P 1"
_symmetry_Int_Tables_number       1

loop_
  _symmetry_equiv_pos_as_xyz
  'x, y, z'

loop_
  _atom_site_type_symbol
  _atom_site_label
  _atom_site_symmetry_multiplicity
  _atom_site_fract_x
  _atom_site_fract_y
  _atom_site_fract_z
  _atom_site_occupancy
  _atom_site_charge
Ti  Ti1       1.0  0.90030  0.54150  0.44620  1.0000 1.9443961064
Ti  Ti2       1.0  0.59970  0.45850  0.94620  1.0000 1.9443961064
Ti  Ti3       1.0  0.40030  0.95850  0.55380  1.0000 1.9443961064
Ti  Ti4       1.0  0.09970  0.04150  0.05380  1.0000 1.9443961064
Ti  Ti5       1.0  0.09970  0.45850  0.55380  1.0000 1.9443961064
Ti  Ti6       1.0  0.40030  0.54150  0.05380  1.0000 1.9443961064
Ti  Ti7       1.0  0.59970  0.04150  0.44620  1.0000 1.9443961064
Ti  Ti8       1.0  0.90030  0.95850  0.94620  1.0000 1.9443961064
H   H1        1.0  0.76790  0.19840  0.50190  1.0000 0.1405253465
H   H2        1.0  0.73210  0.80160  0.00190  1.0000 0.1405253465
H   H3        1.0  0.26790  0.30160  0.49810  1.0000 0.1405253465
H   H4        1.0  0.23210  0.69840  0.99810  1.0000 0.1405253465
H   H5        1.0  0.23210  0.80160  0.49810  1.0000 0.1405253465
H   H6        1.0  0.26790  0.19840  0.99810  1.0000 0.1405253465
H   H7        1.0  0.73210  0.69840  0.50190  1.0000 0.1405253465
H   H8        1.0  0.76790  0.30160  0.00190  1.0000 0.1405253465
H   H9        1.0  0.87280  0.32380  0.49150  1.0000 0.1496397461
H   H10       1.0  0.62720  0.67620  0.99150  1.0000 0.1496397461
H   H11       1.0  0.37280  0.17620  0.50850  1.0000 0.1496397461
H   H12       1.0  0.12720  0.82380  0.00850  1.0000 0.1496397461
H   H13       1.0  0.12720  0.67620  0.50850  1.0000 0.1496397461
H   H14       1.0  0.37280  0.32380  0.00850  1.0000 0.1496397461
H   H15       1.0  0.62720  0.82380  0.49150  1.0000 0.1496397461
H   H16       1.0  0.87280  0.17620  0.99150  1.0000 0.1496397461
H   H17       1.0  0.75920  0.49430  0.60750  1.0000 0.1496397461
H   H18       1.0  0.74080  0.50570  0.10750  1.0000 0.1496397461
H   H19       1.0  0.25920  0.00570  0.39250  1.0000 0.1496397461
H   H20       1.0  0.24080  0.99430  0.89250  1.0000 0.1496397461
H   H21       1.0  0.24080  0.50570  0.39250  1.0000 0.1496397461
H   H22       1.0  0.25920  0.49430  0.89250  1.0000 0.1496397461
H   H23       1.0  0.74080  0.99430  0.60750  1.0000 0.1496397461
H   H24       1.0  0.75920  0.00570  0.10750  1.0000 0.1496397461
H   H25       1.0  0.60810  0.42350  0.65210  1.0000 0.1095235179
H   H26       1.0  0.89190  0.57650  0.15210  1.0000 0.1095235179
H   H27       1.0  0.10810  0.07650  0.34790  1.0000 0.1095235179
H   H28       1.0  0.39190  0.92350  0.84790  1.0000 0.1095235179
H   H29       1.0  0.39190  0.57650  0.34790  1.0000 0.1095235179
H   H30       1.0  0.10810  0.42350  0.84790  1.0000 0.1095235179
H   H31       1.0  0.89190  0.92350  0.65210  1.0000 0.1095235179
H   H32       1.0  0.60810  0.07650  0.15210  1.0000 0.1095235179
H   H33       1.0  0.50090  0.30270  0.65950  1.0000 0.1219426374
H   H34       1.0  0.99910  0.69730  0.15950  1.0000 0.1219426374
H   H35       1.0  0.00090  0.19730  0.34050  1.0000 0.1219426374
H   H36       1.0  0.49910  0.80270  0.84050  1.0000 0.1219426374
H   H37       1.0  0.49910  0.69730  0.34050  1.0000 0.1219426374
H   H38       1.0  0.00090  0.30270  0.84050  1.0000 0.1219426374
H   H39       1.0  0.99910  0.80270  0.65950  1.0000 0.1219426374
H   H40       1.0  0.50090  0.19730  0.15950  1.0000 0.1219426374
H   H41       1.0  0.48250  0.18070  0.62810  1.0000 0.1405253465
H   H42       1.0  0.01750  0.81930  0.12810  1.0000 0.1405253465
H   H43       1.0  0.98250  0.31930  0.37190  1.0000 0.1405253465
H   H44       1.0  0.51750  0.68070  0.87190  1.0000 0.1405253465
H   H45       1.0  0.51750  0.81930  0.37190  1.0000 0.1405253465
H   H46       1.0  0.98250  0.18070  0.87190  1.0000 0.1405253465
H   H47       1.0  0.01750  0.68070  0.62810  1.0000 0.1405253465
H   H48       1.0  0.48250  0.31930  0.12810  1.0000 0.1405253465
H   H49       1.0  0.30070  0.39000  0.19550  1.0000 0.1405253465
H   H50       1.0  0.19930  0.61000  0.69550  1.0000 0.1405253465
H   H51       1.0  0.80070  0.11000  0.80450  1.0000 0.1405253465
H   H52       1.0  0.69930  0.89000  0.30450  1.0000 0.1405253465
H   H53       1.0  0.69930  0.61000  0.80450  1.0000 0.1405253465
H   H54       1.0  0.80070  0.39000  0.30450  1.0000 0.1405253465
H   H55       1.0  0.19930  0.89000  0.19550  1.0000 0.1405253465
H   H56       1.0  0.30070  0.11000  0.69550  1.0000 0.1405253465
H   H57       1.0  0.31710  0.36430  0.31100  1.0000 0.1219426374
H   H58       1.0  0.18290  0.63570  0.81100  1.0000 0.1219426374
H   H59       1.0  0.81710  0.13570  0.68900  1.0000 0.1219426374
H   H60       1.0  0.68290  0.86430  0.18900  1.0000 0.1219426374
H   H61       1.0  0.68290  0.63570  0.68900  1.0000 0.1219426374
H   H62       1.0  0.81710  0.36430  0.18900  1.0000 0.1219426374
H   H63       1.0  0.18290  0.86430  0.31100  1.0000 0.1219426374
H   H64       1.0  0.31710  0.13570  0.81100  1.0000 0.1219426374
H   H65       1.0  0.42610  0.37960  0.42230  1.0000 0.127057918
H   H66       1.0  0.07390  0.62040  0.92230  1.0000 0.127057918
H   H67       1.0  0.92610  0.12040  0.57770  1.0000 0.127057918
H   H68       1.0  0.57390  0.87960  0.07770  1.0000 0.127057918
H   H69       1.0  0.57390  0.62040  0.57770  1.0000 0.127057918
H   H70       1.0  0.92610  0.37960  0.07770  1.0000 0.127057918
H   H71       1.0  0.07390  0.87960  0.42230  1.0000 0.127057918
H   H72       1.0  0.42610  0.12040  0.92230  1.0000 0.127057918
H   H73       1.0  0.57240  0.43440  0.48570  1.0000 0.1405253465
H   H74       1.0  0.92760  0.56560  0.98570  1.0000 0.1405253465
H   H75       1.0  0.07240  0.06560  0.51430  1.0000 0.1405253465
H   H76       1.0  0.42760  0.93440  0.01430  1.0000 0.1405253465
H   H77       1.0  0.42760  0.56560  0.51430  1.0000 0.1405253465
H   H78       1.0  0.07240  0.43440  0.01430  1.0000 0.1405253465
H   H79       1.0  0.92760  0.93440  0.48570  1.0000 0.1405253465
H   H80       1.0  0.57240  0.06560  0.98570  1.0000 0.1405253465
H   H81       1.0  0.69440  0.54170  0.31820  1.0000 0.1496397461
H   H82       1.0  0.80560  0.45830  0.81820  1.0000 0.1496397461
H   H83       1.0  0.19440  0.95830  0.68180  1.0000 0.1496397461
H   H84       1.0  0.30560  0.04170  0.18180  1.0000 0.1496397461
H   H85       1.0  0.30560  0.45830  0.68180  1.0000 0.1496397461
H   H86       1.0  0.19440  0.54170  0.18180  1.0000 0.1496397461
H   H87       1.0  0.80560  0.04170  0.31820  1.0000 0.1496397461
H   H88       1.0  0.69440  0.95830  0.81820  1.0000 0.1496397461
H   H89       1.0  0.59230  0.52210  0.20520  1.0000 0.1405253465
H   H90       1.0  0.90770  0.47790  0.70520  1.0000 0.1405253465
H   H91       1.0  0.09230  0.97790  0.79480  1.0000 0.1405253465
H   H92       1.0  0.40770  0.02210  0.29480  1.0000 0.1405253465
H   H93       1.0  0.40770  0.47790  0.79480  1.0000 0.1405253465
H   H94       1.0  0.09230  0.52210  0.29480  1.0000 0.1405253465
H   H95       1.0  0.90770  0.02210  0.20520  1.0000 0.1405253465
H   H96       1.0  0.59230  0.97790  0.70520  1.0000 0.1405253465
C   C1        1.0  0.62530  0.17850  0.56240  1.0000 0.3381319622
C   C2        1.0  0.87470  0.82150  0.06240  1.0000 0.3381319622
C   C3        1.0  0.12530  0.32150  0.43760  1.0000 0.3381319622
C   C4        1.0  0.37470  0.67850  0.93760  1.0000 0.3381319622
C   C5        1.0  0.37470  0.82150  0.43760  1.0000 0.3381319622
C   C6        1.0  0.12530  0.17850  0.93760  1.0000 0.3381319622
C   C7        1.0  0.87470  0.67850  0.56240  1.0000 0.3381319622
C   C8        1.0  0.62530  0.32150  0.06240  1.0000 0.3381319622
C   C9        1.0  0.71530  0.21990  0.53340  1.0000 -0.3202263062
C   C10       1.0  0.78470  0.78010  0.03340  1.0000 -0.3202263062
C   C11       1.0  0.21530  0.28010  0.46660  1.0000 -0.3202263062
C   C12       1.0  0.28470  0.71990  0.96660  1.0000 -0.3202263062
C   C13       1.0  0.28470  0.78010  0.46660  1.0000 -0.3202263062
C   C14       1.0  0.21530  0.21990  0.96660  1.0000 -0.3202263062
C   C15       1.0  0.78470  0.71990  0.53340  1.0000 -0.3202263062
C   C16       1.0  0.71530  0.28010  0.03340  1.0000 -0.3202263062
C   C17       1.0  0.72770  0.29610  0.55180  1.0000 0.127057918
C   C18       1.0  0.77230  0.70390  0.05180  1.0000 0.127057918
C   C19       1.0  0.22770  0.20390  0.44820  1.0000 0.127057918
C   C20       1.0  0.27230  0.79610  0.94820  1.0000 0.127057918
C   C21       1.0  0.27230  0.70390  0.44820  1.0000 0.127057918
C   C22       1.0  0.22770  0.29610  0.94820  1.0000 0.127057918
C   C23       1.0  0.77230  0.79610  0.55180  1.0000 0.127057918
C   C24       1.0  0.72770  0.20390  0.05180  1.0000 0.127057918
C   C25       1.0  0.82010  0.34270  0.52420  1.0000 -0.2899361372
C   C26       1.0  0.67990  0.65730  0.02420  1.0000 -0.2899361372
C   C27       1.0  0.32010  0.15730  0.47580  1.0000 -0.2899361372
C   C28       1.0  0.17990  0.84270  0.97580  1.0000 -0.2899361372
C   C29       1.0  0.17990  0.65730  0.47580  1.0000 -0.2899361372
C   C30       1.0  0.32010  0.34270  0.97580  1.0000 -0.2899361372
C   C31       1.0  0.67990  0.84270  0.52420  1.0000 -0.2899361372
C   C32       1.0  0.82010  0.15730  0.02420  1.0000 -0.2899361372
C   C33       1.0  0.83190  0.41480  0.54540  1.0000 0.3491078894
C   C34       1.0  0.66810  0.58520  0.04540  1.0000 0.3491078894
C   C35       1.0  0.33190  0.08520  0.45460  1.0000 0.3491078894
C   C36       1.0  0.16810  0.91480  0.95460  1.0000 0.3491078894
C   C37       1.0  0.16810  0.58520  0.45460  1.0000 0.3491078894
C   C38       1.0  0.33190  0.41480  0.95460  1.0000 0.3491078894
C   C39       1.0  0.66810  0.91480  0.54540  1.0000 0.3491078894
C   C40       1.0  0.83190  0.08520  0.04540  1.0000 0.3491078894
C   C41       1.0  0.75100  0.44500  0.59390  1.0000 -0.2005121803
C   C42       1.0  0.74900  0.55500  0.09390  1.0000 -0.2005121803
C   C43       1.0  0.25100  0.05500  0.40610  1.0000 -0.2005121803
C   C44       1.0  0.24900  0.94500  0.90610  1.0000 -0.2005121803
C   C45       1.0  0.24900  0.55500  0.40610  1.0000 -0.2005121803
C   C46       1.0  0.25100  0.44500  0.90610  1.0000 -0.2005121803
C   C47       1.0  0.74900  0.94500  0.59390  1.0000 -0.2005121803
C   C48       1.0  0.75100  0.05500  0.09390  1.0000 -0.2005121803
C   C49       1.0  0.66120  0.40260  0.62070  1.0000 -0.1113590958
C   C50       1.0  0.83880  0.59740  0.12070  1.0000 -0.1113590958
C   C51       1.0  0.16120  0.09740  0.37930  1.0000 -0.1113590958
C   C52       1.0  0.33880  0.90260  0.87930  1.0000 -0.1113590958
C   C53       1.0  0.33880  0.59740  0.37930  1.0000 -0.1113590958
C   C54       1.0  0.16120  0.40260  0.87930  1.0000 -0.1113590958
C   C55       1.0  0.83880  0.90260  0.62070  1.0000 -0.1113590958
C   C56       1.0  0.66120  0.09740  0.12070  1.0000 -0.1113590958
C   C57       1.0  0.64730  0.32640  0.60130  1.0000 0.0286187249
C   C58       1.0  0.85270  0.67360  0.10130  1.0000 0.0286187249
C   C59       1.0  0.14730  0.17360  0.39870  1.0000 0.0286187249
C   C60       1.0  0.35270  0.82640  0.89870  1.0000 0.0286187249
C   C61       1.0  0.35270  0.67360  0.39870  1.0000 0.0286187249
C   C62       1.0  0.14730  0.32640  0.89870  1.0000 0.0286187249
C   C63       1.0  0.85270  0.82640  0.60130  1.0000 0.0286187249
C   C64       1.0  0.64730  0.17360  0.10130  1.0000 0.0286187249
C   C65       1.0  0.55510  0.28230  0.62830  1.0000 -0.1371628885
C   C66       1.0  0.94490  0.71770  0.12830  1.0000 -0.1371628885
C   C67       1.0  0.05510  0.21770  0.37170  1.0000 -0.1371628885
C   C68       1.0  0.44490  0.78230  0.87170  1.0000 -0.1371628885
C   C69       1.0  0.44490  0.71770  0.37170  1.0000 -0.1371628885
C   C70       1.0  0.05510  0.28230  0.87170  1.0000 -0.1371628885
C   C71       1.0  0.94490  0.78230  0.62830  1.0000 -0.1371628885
C   C72       1.0  0.55510  0.21770  0.12830  1.0000 -0.1371628885
C   C73       1.0  0.54390  0.20970  0.60960  1.0000 -0.2005121803
C   C74       1.0  0.95610  0.79030  0.10960  1.0000 -0.2005121803
C   C75       1.0  0.04390  0.29030  0.39040  1.0000 -0.2005121803
C   C76       1.0  0.45610  0.70970  0.89040  1.0000 -0.2005121803
C   C77       1.0  0.45610  0.79030  0.39040  1.0000 -0.2005121803
C   C78       1.0  0.04390  0.20970  0.89040  1.0000 -0.2005121803
C   C79       1.0  0.95610  0.70970  0.60960  1.0000 -0.2005121803
C   C80       1.0  0.54390  0.29030  0.10960  1.0000 -0.2005121803
C   C81       1.0  0.44800  0.45880  0.18960  1.0000 0.3381319622
C   C82       1.0  0.05200  0.54120  0.68960  1.0000 0.3381319622
C   C83       1.0  0.94800  0.04120  0.81040  1.0000 0.3381319622
C   C84       1.0  0.55200  0.95880  0.31040  1.0000 0.3381319622
C   C85       1.0  0.55200  0.54120  0.81040  1.0000 0.3381319622
C   C86       1.0  0.94800  0.45880  0.31040  1.0000 0.3381319622
C   C87       1.0  0.05200  0.95880  0.18960  1.0000 0.3381319622
C   C88       1.0  0.44800  0.04120  0.68960  1.0000 0.3381319622
C   C89       1.0  0.36260  0.41100  0.22120  1.0000 -0.2069829871
C   C90       1.0  0.13740  0.58900  0.72120  1.0000 -0.2069829871
C   C91       1.0  0.86260  0.08900  0.77880  1.0000 -0.2069829871
C   C92       1.0  0.63740  0.91100  0.27880  1.0000 -0.2069829871
C   C93       1.0  0.63740  0.58900  0.77880  1.0000 -0.2069829871
C   C94       1.0  0.86260  0.41100  0.27880  1.0000 -0.2069829871
C   C95       1.0  0.13740  0.91100  0.22120  1.0000 -0.2069829871
C   C96       1.0  0.36260  0.08900  0.72120  1.0000 -0.2069829871
C   C97       1.0  0.37250  0.39600  0.29040  1.0000 -0.1229722771
C   C98       1.0  0.12750  0.60400  0.79040  1.0000 -0.1229722771
C   C99       1.0  0.87250  0.10400  0.70960  1.0000 -0.1229722771
C   C100      1.0  0.62750  0.89600  0.20960  1.0000 -0.1229722771
C   C101      1.0  0.62750  0.60400  0.70960  1.0000 -0.1229722771
C   C102      1.0  0.87250  0.39600  0.20960  1.0000 -0.1229722771
C   C103      1.0  0.12750  0.89600  0.29040  1.0000 -0.1229722771
C   C104      1.0  0.37250  0.10400  0.79040  1.0000 -0.1229722771
C   C105      1.0  0.46500  0.42770  0.33030  1.0000 0.0204640514
C   C106      1.0  0.03500  0.57230  0.83030  1.0000 0.0204640514
C   C107      1.0  0.96500  0.07230  0.66970  1.0000 0.0204640514
C   C108      1.0  0.53500  0.92770  0.16970  1.0000 0.0204640514
C   C109      1.0  0.53500  0.57230  0.66970  1.0000 0.0204640514
C   C110      1.0  0.96500  0.42770  0.16970  1.0000 0.0204640514
C   C111      1.0  0.03500  0.92770  0.33030  1.0000 0.0204640514
C   C112      1.0  0.46500  0.07230  0.83030  1.0000 0.0204640514
C   C113      1.0  0.47870  0.41270  0.40120  1.0000 -0.1113590958
C   C114      1.0  0.02130  0.58730  0.90120  1.0000 -0.1113590958
C   C115      1.0  0.97870  0.08730  0.59880  1.0000 -0.1113590958
C   C116      1.0  0.52130  0.91270  0.09880  1.0000 -0.1113590958
C   C117      1.0  0.52130  0.58730  0.59880  1.0000 -0.1113590958
C   C118      1.0  0.97870  0.41270  0.09880  1.0000 -0.1113590958
C   C119      1.0  0.02130  0.91270  0.40120  1.0000 -0.1113590958
C   C120      1.0  0.47870  0.08730  0.90120  1.0000 -0.1113590958
C   C121      1.0  0.56600  0.44510  0.43910  1.0000 -0.1933132728
C   C122      1.0  0.93400  0.55490  0.93910  1.0000 -0.1933132728
C   C123      1.0  0.06600  0.05490  0.56090  1.0000 -0.1933132728
C   C124      1.0  0.43400  0.94510  0.06090  1.0000 -0.1933132728
C   C125      1.0  0.43400  0.55490  0.56090  1.0000 -0.1933132728
C   C126      1.0  0.06600  0.44510  0.06090  1.0000 -0.1933132728
C   C127      1.0  0.93400  0.94510  0.43910  1.0000 -0.1933132728
C   C128      1.0  0.56600  0.05490  0.93910  1.0000 -0.1933132728
C   C129      1.0  0.64880  0.49570  0.40790  1.0000 0.3580383639
C   C130      1.0  0.85120  0.50430  0.90790  1.0000 0.3580383639
C   C131      1.0  0.14880  0.00430  0.59210  1.0000 0.3580383639
C   C132      1.0  0.35120  0.99570  0.09210  1.0000 0.3580383639
C   C133      1.0  0.35120  0.50430  0.59210  1.0000 0.3580383639
C   C134      1.0  0.14880  0.49570  0.09210  1.0000 0.3580383639
C   C135      1.0  0.85120  0.99570  0.40790  1.0000 0.3580383639
C   C136      1.0  0.64880  0.00430  0.90790  1.0000 0.3580383639
C   C137      1.0  0.63940  0.50970  0.33880  1.0000 -0.3093675432
C   C138      1.0  0.86060  0.49030  0.83880  1.0000 -0.3093675432
C   C139      1.0  0.13940  0.99030  0.66120  1.0000 -0.3093675432
C   C140      1.0  0.36060  0.00970  0.16120  1.0000 -0.3093675432
C   C141      1.0  0.36060  0.49030  0.66120  1.0000 -0.3093675432
C   C142      1.0  0.13940  0.50970  0.16120  1.0000 -0.3093675432
C   C143      1.0  0.86060  0.00970  0.33880  1.0000 -0.3093675432
C   C144      1.0  0.63940  0.99030  0.83880  1.0000 -0.3093675432
C   C145      1.0  0.54920  0.47690  0.29820  1.0000 0.127057918
C   C146      1.0  0.95080  0.52310  0.79820  1.0000 0.127057918
C   C147      1.0  0.04920  0.02310  0.70180  1.0000 0.127057918
C   C148      1.0  0.45080  0.97690  0.20180  1.0000 0.127057918
C   C149      1.0  0.45080  0.52310  0.70180  1.0000 0.127057918
C   C150      1.0  0.04920  0.47690  0.20180  1.0000 0.127057918
C   C151      1.0  0.95080  0.97690  0.29820  1.0000 0.127057918
C   C152      1.0  0.54920  0.02310  0.79820  1.0000 0.127057918
C   C153      1.0  0.53760  0.49070  0.22680  1.0000 -0.2899361372
C   C154      1.0  0.96240  0.50930  0.72680  1.0000 -0.2899361372
C   C155      1.0  0.03760  0.00930  0.77320  1.0000 -0.2952227612
C   C156      1.0  0.46240  0.99070  0.27320  1.0000 -0.2899361372
C   C157      1.0  0.46240  0.50930  0.77320  1.0000 -0.2899361372
C   C158      1.0  0.03760  0.49070  0.27320  1.0000 -0.2899361372
C   C159      1.0  0.96240  0.99070  0.22680  1.0000 -0.2899361372
C   C160      1.0  0.53760  0.00930  0.72680  1.0000 -0.2899361372
O   O1        1.0  0.61620  0.10370  0.54640  1.0000 -0.6471052786
O   O2        1.0  0.88380  0.89630  0.04640  1.0000 -0.6471052786
O   O3        1.0  0.11620  0.39630  0.45360  1.0000 -0.6471052786
O   O4        1.0  0.38380  0.60370  0.95360  1.0000 -0.6471052786
O   O5        1.0  0.38380  0.89630  0.45360  1.0000 -0.6471052786
O   O6        1.0  0.11620  0.10370  0.95360  1.0000 -0.6471052786
O   O7        1.0  0.88380  0.60370  0.54640  1.0000 -0.6471052786
O   O8        1.0  0.61620  0.39630  0.04640  1.0000 -0.6471052786
O   O9        1.0  0.92290  0.45870  0.51990  1.0000 -0.7562565302
O   O10       1.0  0.57710  0.54130  0.01990  1.0000 -0.7562565302
O   O11       1.0  0.42290  0.04130  0.48010  1.0000 -0.7562565302
O   O12       1.0  0.07710  0.95870  0.98010  1.0000 -0.7562565302
O   O13       1.0  0.07710  0.54130  0.48010  1.0000 -0.7562565302
O   O14       1.0  0.42290  0.45870  0.98010  1.0000 -0.7562565302
O   O15       1.0  0.57710  0.95870  0.51990  1.0000 -0.7562565302
O   O16       1.0  0.92290  0.04130  0.01990  1.0000 -0.7562565302
O   O17       1.0  0.43990  0.46840  0.12000  1.0000 -0.6868169625
O   O18       1.0  0.06010  0.53160  0.62000  1.0000 -0.6868169625
O   O19       1.0  0.93990  0.03160  0.88000  1.0000 -0.6868169625
O   O20       1.0  0.56010  0.96840  0.38000  1.0000 -0.6868169625
O   O21       1.0  0.56010  0.53160  0.88000  1.0000 -0.6868169625
O   O22       1.0  0.93990  0.46840  0.38000  1.0000 -0.6868169625
O   O23       1.0  0.06010  0.96840  0.12000  1.0000 -0.6868169625
O   O24       1.0  0.43990  0.03160  0.62000  1.0000 -0.6868169625
O   O25       1.0  0.73660  0.52730  0.44670  1.0000 -0.6785378774
O   O26       1.0  0.76340  0.47270  0.94670  1.0000 -0.6785378774
O   O27       1.0  0.23660  0.97270  0.55330  1.0000 -0.6785378774
O   O28       1.0  0.26340  0.02730  0.05330  1.0000 -0.6785378774
O   O29       1.0  0.26340  0.47270  0.55330  1.0000 -0.6785378774
O   O30       1.0  0.23660  0.52730  0.05330  1.0000 -0.6785378774
O   O31       1.0  0.76340  0.02730  0.44670  1.0000 -0.6785378774
O   O32       1.0  0.73660  0.97270  0.94670  1.0000 -0.6785378774
