# DDEC6 charges by PACMAN v1.1 (https://github.com/mtap-research/PACMAN-charge/)
data_1999[Ti][hex]3[ASR]1
_chemical_formula_sum              "Ti8 H64 C96 O32"
_cell_length_a       16.137
_cell_length_b       10.762
_cell_length_c       20.8023
_cell_angle_alpha    90
_cell_angle_beta     114.488
_cell_angle_gamma    90

_symmetry_space_group_name_H-M    "P 1"
_symmetry_Int_Tables_number       1

loop_
  _symmetry_equiv_pos_as_xyz
  'x, y, z'

loop_
  _atom_site_type_symbol
  _atom_site_label
  _atom_site_symmetry_multiplicity
  _atom_site_fract_x
  _atom_site_fract_y
  _atom_site_fract_z
  _atom_site_occupancy
  _atom_site_charge
Ti  Ti1       1.0  0.32650  0.64020  0.78830  1.0000 1.9409440049
Ti  Ti2       1.0  0.67350  0.14020  0.71170  1.0000 1.9409440049
Ti  Ti3       1.0  0.67350  0.35980  0.21170  1.0000 1.9409440049
Ti  Ti4       1.0  0.32650  0.85980  0.28830  1.0000 1.9409440049
Ti  Ti5       1.0  0.17340  0.42150  0.71380  1.0000 1.9252507576
Ti  Ti6       1.0  0.82660  0.92150  0.78620  1.0000 1.9252507576
Ti  Ti7       1.0  0.82660  0.57850  0.28620  1.0000 1.9252507576
Ti  Ti8       1.0  0.17340  0.07850  0.21380  1.0000 1.9252507576
H   H1        1.0  0.32420  0.41270  0.63150  1.0000 0.1490157171
H   H2        1.0  0.67580  0.91270  0.86850  1.0000 0.1490157171
H   H3        1.0  0.67580  0.58730  0.36850  1.0000 0.1490157171
H   H4        1.0  0.32420  0.08730  0.13150  1.0000 0.1490157171
H   H5        1.0  0.43310  0.28610  0.61690  1.0000 0.1404648049
H   H6        1.0  0.56690  0.78610  0.88310  1.0000 0.1404648049
H   H7        1.0  0.56690  0.71390  0.38310  1.0000 0.1404648049
H   H8        1.0  0.43310  0.21390  0.11690  1.0000 0.1404648049
H   H9        1.0  0.45130  0.72280  0.67550  1.0000 0.1404648049
H   H10       1.0  0.54870  0.22280  0.82450  1.0000 0.1404648049
H   H11       1.0  0.54870  0.27720  0.32450  1.0000 0.1404648049
H   H12       1.0  0.45130  0.77720  0.17550  1.0000 0.1404648049
H   H13       1.0  0.43970  0.34750  0.83850  1.0000 0.1404648049
H   H14       1.0  0.56030  0.84750  0.66150  1.0000 0.1404648049
H   H15       1.0  0.56030  0.65250  0.16150  1.0000 0.1404648049
H   H16       1.0  0.43970  0.15250  0.33850  1.0000 0.1404648049
H   H17       1.0  0.95410  0.83800  0.68240  1.0000 0.1404648049
H   H18       1.0  0.04590  0.33800  0.81760  1.0000 0.1404648049
H   H19       1.0  0.04590  0.16200  0.31760  1.0000 0.1404648049
H   H20       1.0  0.95410  0.66200  0.18240  1.0000 0.1404648049
H   H21       1.0  0.05990  0.70750  0.66740  1.0000 0.1490157171
H   H22       1.0  0.94010  0.20750  0.83260  1.0000 0.1490157171
H   H23       1.0  0.94010  0.29250  0.33260  1.0000 0.1490157171
H   H24       1.0  0.05990  0.79250  0.16740  1.0000 0.1490157171
H   H25       1.0  0.17140  0.64160  0.87540  1.0000 0.1490157171
H   H26       1.0  0.82860  0.14160  0.62460  1.0000 0.1490157171
H   H27       1.0  0.82860  0.35840  0.12460  1.0000 0.1490157171
H   H28       1.0  0.17140  0.85840  0.37540  1.0000 0.1490157171
H   H29       1.0  0.07090  0.77860  0.89020  1.0000 0.1404648049
H   H30       1.0  0.92910  0.27860  0.60980  1.0000 0.1404648049
H   H31       1.0  0.92910  0.22140  0.10980  1.0000 0.1404648049
H   H32       1.0  0.07090  0.72140  0.39020  1.0000 0.1404648049
H   H33       1.0  0.17140  0.92660  0.80770  1.0000 0.1298966298
H   H34       1.0  0.82860  0.42660  0.69230  1.0000 0.1298966298
H   H35       1.0  0.82860  0.07340  0.19230  1.0000 0.1298966298
H   H36       1.0  0.17140  0.57340  0.30770  1.0000 0.1298966298
H   H37       1.0  0.11930  0.12040  0.75640  1.0000 0.1298966298
H   H38       1.0  0.88070  0.62040  0.74360  1.0000 0.1298966298
H   H39       1.0  0.88070  0.87960  0.24360  1.0000 0.1298966298
H   H40       1.0  0.11930  0.37960  0.25640  1.0000 0.1298966298
H   H41       1.0  0.32000  0.12810  0.68970  1.0000 0.1298966298
H   H42       1.0  0.68000  0.62810  0.81030  1.0000 0.1298966298
H   H43       1.0  0.68000  0.87190  0.31030  1.0000 0.1298966298
H   H44       1.0  0.32000  0.37190  0.18970  1.0000 0.1298966298
H   H45       1.0  0.36950  0.93410  0.73770  1.0000 0.1298966298
H   H46       1.0  0.63050  0.43410  0.76230  1.0000 0.1298966298
H   H47       1.0  0.63050  0.06590  0.26230  1.0000 0.1298966298
H   H48       1.0  0.36950  0.56590  0.23770  1.0000 0.1298966298
H   H49       1.0  0.53110  0.55450  0.90400  1.0000 0.1298966298
H   H50       1.0  0.46890  0.05450  0.59600  1.0000 0.1298966298
H   H51       1.0  0.46890  0.44550  0.09600  1.0000 0.1298966298
H   H52       1.0  0.53110  0.94550  0.40400  1.0000 0.1298966298
H   H53       1.0  0.35200  0.51000  0.99070  1.0000 0.1404648049
H   H54       1.0  0.64800  0.01000  0.50930  1.0000 0.1404648049
H   H55       1.0  0.64800  0.49000  0.00930  1.0000 0.1404648049
H   H56       1.0  0.35200  0.99000  0.49070  1.0000 0.1490157171
H   H57       1.0  0.07040  0.68360  0.55210  1.0000 0.1404648049
H   H58       1.0  0.92960  0.18360  0.94790  1.0000 0.1404648049
H   H59       1.0  0.92960  0.31640  0.44790  1.0000 0.1404648049
H   H60       1.0  0.07040  0.81640  0.05210  1.0000 0.1404648049
H   H61       1.0  0.04870  0.31150  0.56010  1.0000 0.1404648049
H   H62       1.0  0.95130  0.81150  0.93990  1.0000 0.1404648049
H   H63       1.0  0.95130  0.68850  0.43990  1.0000 0.1404648049
H   H64       1.0  0.04870  0.18850  0.06010  1.0000 0.1404648049
C   C1        1.0  0.37390  0.39780  0.73650  1.0000 0.3009694307
C   C2        1.0  0.62610  0.89780  0.76350  1.0000 0.3009694307
C   C3        1.0  0.62610  0.60220  0.26350  1.0000 0.3009694307
C   C4        1.0  0.37390  0.10220  0.23650  1.0000 0.3009694307
C   C5        1.0  0.36980  0.37590  0.67060  1.0000 -0.1993055816
C   C6        1.0  0.63020  0.87590  0.82940  1.0000 -0.1993055816
C   C7        1.0  0.63020  0.62410  0.32940  1.0000 -0.1993055816
C   C8        1.0  0.36980  0.12410  0.17060  1.0000 -0.1993055816
C   C9        1.0  0.43430  0.29800  0.66150  1.0000 -0.1904552037
C   C10       1.0  0.56570  0.79800  0.83850  1.0000 -0.1904552037
C   C11       1.0  0.56570  0.70200  0.33850  1.0000 -0.1904552037
C   C12       1.0  0.43430  0.20200  0.16150  1.0000 -0.1904552037
C   C13       1.0  0.50050  0.73920  0.78040  1.0000 0.3009694307
C   C14       1.0  0.49950  0.23920  0.71960  1.0000 0.3009694307
C   C15       1.0  0.49950  0.26080  0.21960  1.0000 0.3009694307
C   C16       1.0  0.50050  0.76080  0.28040  1.0000 0.3009694307
C   C17       1.0  0.49660  0.75990  0.71460  1.0000 -0.1993055816
C   C18       1.0  0.50340  0.25990  0.78540  1.0000 -0.1993055816
C   C19       1.0  0.50340  0.24010  0.28540  1.0000 -0.1993055816
C   C20       1.0  0.49660  0.74010  0.21460  1.0000 -0.1993055816
C   C21       1.0  0.43890  0.33700  0.79390  1.0000 -0.1814888578
C   C22       1.0  0.56110  0.83700  0.70610  1.0000 -0.1814888578
C   C23       1.0  0.56110  0.66300  0.20610  1.0000 -0.1814888578
C   C24       1.0  0.43890  0.16300  0.29390  1.0000 -0.1814888578
C   C25       1.0  0.00240  0.82250  0.78730  1.0000 0.3009694307
C   C26       1.0  0.99760  0.32250  0.71270  1.0000 0.3009694307
C   C27       1.0  0.99760  0.17750  0.21270  1.0000 0.3009694307
C   C28       1.0  0.00240  0.67750  0.28730  1.0000 0.3009694307
C   C29       1.0  0.99900  0.80020  0.72150  1.0000 -0.1993055816
C   C30       1.0  0.00100  0.30020  0.77850  1.0000 -0.1993055816
C   C31       1.0  0.00100  0.19980  0.27850  1.0000 -0.1993055816
C   C32       1.0  0.99900  0.69980  0.22150  1.0000 -0.1993055816
C   C33       1.0  0.06210  0.72110  0.71220  1.0000 -0.1904552037
C   C34       1.0  0.93790  0.22110  0.78780  1.0000 -0.1904552037
C   C35       1.0  0.93790  0.27890  0.28780  1.0000 -0.1904552037
C   C36       1.0  0.06210  0.77890  0.21220  1.0000 -0.1904552037
C   C37       1.0  0.12750  0.66380  0.77030  1.0000 0.3067341038
C   C38       1.0  0.87250  0.16380  0.72970  1.0000 0.3067341038
C   C39       1.0  0.87250  0.33620  0.22970  1.0000 0.3067341038
C   C40       1.0  0.12750  0.83620  0.27030  1.0000 0.3067341038
C   C41       1.0  0.12900  0.68320  0.83650  1.0000 -0.1814888578
C   C42       1.0  0.87100  0.18320  0.66350  1.0000 -0.1814888578
C   C43       1.0  0.87100  0.31680  0.16350  1.0000 -0.1814888578
C   C44       1.0  0.12900  0.81680  0.33650  1.0000 -0.1814888578
C   C45       1.0  0.06790  0.76380  0.84520  1.0000 -0.1814888578
C   C46       1.0  0.93210  0.26380  0.65480  1.0000 -0.1814888578
C   C47       1.0  0.93210  0.23620  0.15480  1.0000 -0.1814888578
C   C48       1.0  0.06790  0.73620  0.34520  1.0000 -0.1814888578
C   C49       1.0  0.27480  0.91140  0.77870  1.0000 0.3190680222
C   C50       1.0  0.72520  0.41140  0.72130  1.0000 0.3190680222
C   C51       1.0  0.72520  0.08860  0.22130  1.0000 0.3190680222
C   C52       1.0  0.27480  0.58860  0.27870  1.0000 0.3190680222
C   C53       1.0  0.20130  0.96730  0.78400  1.0000 -0.1904552037
C   C54       1.0  0.79870  0.46730  0.71600  1.0000 -0.1904552037
C   C55       1.0  0.79870  0.03270  0.21600  1.0000 -0.1904552037
C   C56       1.0  0.20130  0.53270  0.28400  1.0000 -0.1904552037
C   C57       1.0  0.17040  0.08440  0.75420  1.0000 -0.1904552037
C   C58       1.0  0.82960  0.58440  0.74580  1.0000 -0.1904552037
C   C59       1.0  0.82960  0.91560  0.24580  1.0000 -0.1904552037
C   C60       1.0  0.17040  0.41560  0.25420  1.0000 -0.1904552037
C   C61       1.0  0.21940  0.14640  0.72090  1.0000 0.3302382717
C   C62       1.0  0.78060  0.64640  0.77910  1.0000 0.3302382717
C   C63       1.0  0.78060  0.85360  0.27910  1.0000 0.3302382717
C   C64       1.0  0.21940  0.35360  0.22090  1.0000 0.3302382717
C   C65       1.0  0.29060  0.08810  0.71410  1.0000 -0.1993055816
C   C66       1.0  0.70940  0.58810  0.78590  1.0000 -0.1993055816
C   C67       1.0  0.70940  0.91190  0.28590  1.0000 -0.1993055816
C   C68       1.0  0.29060  0.41190  0.21410  1.0000 -0.1993055816
C   C69       1.0  0.32040  0.97180  0.74240  1.0000 -0.1993055816
C   C70       1.0  0.67960  0.47180  0.75760  1.0000 -0.1993055816
C   C71       1.0  0.67960  0.02820  0.25760  1.0000 -0.1993055816
C   C72       1.0  0.32040  0.52820  0.24240  1.0000 -0.1993055816
C   C73       1.0  0.42990  0.54400  0.93880  1.0000 0.3190680222
C   C74       1.0  0.57010  0.04400  0.56120  1.0000 0.3190680222
C   C75       1.0  0.57010  0.45600  0.06120  1.0000 0.3190680222
C   C76       1.0  0.42990  0.95600  0.43880  1.0000 0.3190680222
C   C77       1.0  0.51900  0.53390  0.94270  1.0000 -0.2079111075
C   C78       1.0  0.48100  0.03390  0.55730  1.0000 -0.2079111075
C   C79       1.0  0.48100  0.46610  0.05730  1.0000 -0.2079111075
C   C80       1.0  0.51900  0.96610  0.44270  1.0000 -0.2079111075
C   C81       1.0  0.41150  0.50730  0.99470  1.0000 -0.1993055816
C   C82       1.0  0.58850  0.00730  0.50530  1.0000 -0.1993055816
C   C83       1.0  0.58850  0.49270  0.00530  1.0000 -0.1993055816
C   C84       1.0  0.41150  0.99270  0.49470  1.0000 -0.1993055816
C   C85       1.0  0.07880  0.49950  0.56550  1.0000 0.3411928901
C   C86       1.0  0.92120  0.99950  0.93450  1.0000 0.3411928901
C   C87       1.0  0.92120  0.50050  0.43450  1.0000 0.3411928901
C   C88       1.0  0.07880  0.00050  0.06550  1.0000 0.3411928901
C   C89       1.0  0.04370  0.60920  0.53070  1.0000 -0.2079111075
C   C90       1.0  0.95630  0.10920  0.96930  1.0000 -0.2079111075
C   C91       1.0  0.95630  0.39080  0.46930  1.0000 -0.2079111075
C   C92       1.0  0.04370  0.89080  0.03070  1.0000 -0.2079111075
C   C93       1.0  0.03080  0.38630  0.53580  1.0000 -0.1993055816
C   C94       1.0  0.96920  0.88630  0.96420  1.0000 -0.1993055816
C   C95       1.0  0.96920  0.61370  0.46420  1.0000 -0.1993055816
C   C96       1.0  0.03080  0.11370  0.03580  1.0000 -0.1993055816
O   O1        1.0  0.30380  0.79830  0.81000  1.0000 -0.6589356696
O   O2        1.0  0.69620  0.29830  0.69000  1.0000 -0.6589356696
O   O3        1.0  0.69620  0.20170  0.19000  1.0000 -0.6589356696
O   O4        1.0  0.30380  0.70170  0.31000  1.0000 -0.6589356696
O   O5        1.0  0.30930  0.46850  0.74620  1.0000 -0.7729958406
O   O6        1.0  0.69070  0.96850  0.75380  1.0000 -0.7729958406
O   O7        1.0  0.69070  0.53150  0.25380  1.0000 -0.7729958406
O   O8        1.0  0.30930  0.03150  0.24620  1.0000 -0.7729958406
O   O9        1.0  0.35960  0.58100  0.87680  1.0000 -0.6381115428
O   O10       1.0  0.64040  0.08100  0.62320  1.0000 -0.6381115428
O   O11       1.0  0.64040  0.41900  0.12320  1.0000 -0.6381115428
O   O12       1.0  0.35960  0.91900  0.37680  1.0000 -0.6381115428
O   O13       1.0  0.19270  0.58770  0.76290  1.0000 -0.7920498064
O   O14       1.0  0.80730  0.08770  0.73710  1.0000 -0.7920498064
O   O15       1.0  0.80730  0.41230  0.23710  1.0000 -0.7920498064
O   O16       1.0  0.19270  0.91230  0.26290  1.0000 -0.7920498064
O   O17       1.0  0.43570  0.66500  0.78810  1.0000 -0.67028312
O   O18       1.0  0.56430  0.16500  0.71190  1.0000 -0.67028312
O   O19       1.0  0.56430  0.33500  0.21190  1.0000 -0.67028312
O   O20       1.0  0.43570  0.83500  0.28810  1.0000 -0.67028312
O   O21       1.0  0.94140  0.90460  0.79470  1.0000 -0.67028312
O   O22       1.0  0.05860  0.40460  0.70530  1.0000 -0.67028312
O   O23       1.0  0.05860  0.09540  0.20530  1.0000 -0.67028312
O   O24       1.0  0.94140  0.59540  0.29470  1.0000 -0.67028312
O   O25       1.0  0.19210  0.26190  0.69500  1.0000 -0.6589356696
O   O26       1.0  0.80790  0.76190  0.80500  1.0000 -0.6589356696
O   O27       1.0  0.80790  0.73810  0.30500  1.0000 -0.6589356696
O   O28       1.0  0.19210  0.23810  0.19500  1.0000 -0.6589356696
O   O29       1.0  0.14930  0.49910  0.62830  1.0000 -0.6289473882
O   O30       1.0  0.85070  0.99910  0.87170  1.0000 -0.6289473882
O   O31       1.0  0.85070  0.50090  0.37170  1.0000 -0.6289473882
O   O32       1.0  0.14930  0.00090  0.12830  1.0000 -0.6289473882
