# DDEC6 charges by PACMAN v1.1 (https://github.com/mtap-research/PACMAN-charge/)
data_2000[Nd][pcu]3[ASR]1
_chemical_formula_sum              "Nd1 H60 C30 N6 O6"
_cell_length_a       11.7761
_cell_length_b       11.7761
_cell_length_c       11.7761
_cell_angle_alpha    72.8956
_cell_angle_beta     72.8956
_cell_angle_gamma    72.8956

_symmetry_space_group_name_H-M    "P 1"
_symmetry_Int_Tables_number       1

loop_
  _symmetry_equiv_pos_as_xyz
  'x, y, z'

loop_
  _atom_site_type_symbol
  _atom_site_label
  _atom_site_symmetry_multiplicity
  _atom_site_fract_x
  _atom_site_fract_y
  _atom_site_fract_z
  _atom_site_occupancy
  _atom_site_charge
Nd  Nd1       1.0  0.50000  0.50000  0.50000  1.0000 1.934920609
H   H1        1.0  0.39850  0.83510  0.12120  1.0000 0.1438742951
H   H2        1.0  0.83510  0.12120  0.39850  1.0000 0.1438742951
H   H3        1.0  0.12120  0.39850  0.83510  1.0000 0.1438742951
H   H4        1.0  0.60150  0.16490  0.87880  1.0000 0.1438742951
H   H5        1.0  0.16490  0.87880  0.60150  1.0000 0.1438742951
H   H6        1.0  0.87880  0.60150  0.16490  1.0000 0.1438742951
H   H7        1.0  0.38600  0.85380  0.25120  1.0000 0.1607209245
H   H8        1.0  0.85380  0.25120  0.38600  1.0000 0.1607209245
H   H9        1.0  0.25120  0.38600  0.85380  1.0000 0.1607209245
H   H10       1.0  0.61400  0.14620  0.74880  1.0000 0.1607209245
H   H11       1.0  0.14620  0.74880  0.61400  1.0000 0.1607209245
H   H12       1.0  0.74880  0.61400  0.14620  1.0000 0.1607209245
H   H13       1.0  0.50670  0.77500  0.18710  1.0000 0.1546473404
H   H14       1.0  0.77500  0.18710  0.50670  1.0000 0.1546473404
H   H15       1.0  0.18710  0.50670  0.77500  1.0000 0.1546473404
H   H16       1.0  0.49330  0.22500  0.81290  1.0000 0.1546473404
H   H17       1.0  0.22500  0.81290  0.49330  1.0000 0.1546473404
H   H18       1.0  0.81290  0.49330  0.22500  1.0000 0.1546473404
H   H19       1.0  0.23500  0.74400  0.17450  1.0000 0.2474232912
H   H20       1.0  0.74400  0.17450  0.23500  1.0000 0.2474232912
H   H21       1.0  0.17450  0.23500  0.74400  1.0000 0.2474232912
H   H22       1.0  0.76500  0.25600  0.82550  1.0000 0.2474232912
H   H23       1.0  0.25600  0.82550  0.76500  1.0000 0.2474232912
H   H24       1.0  0.82550  0.76500  0.25600  1.0000 0.2474232912
H   H25       1.0  0.17660  0.57120  0.21640  1.0000 0.0844982192
H   H26       1.0  0.57120  0.21640  0.17660  1.0000 0.0844982192
H   H27       1.0  0.21640  0.17660  0.57120  1.0000 0.0844982192
H   H28       1.0  0.82340  0.42880  0.78360  1.0000 0.0844982192
H   H29       1.0  0.42880  0.78360  0.82340  1.0000 0.0844982192
H   H30       1.0  0.78360  0.82340  0.42880  1.0000 0.0844982192
H   H31       1.0  0.27330  0.50420  0.29590  1.0000 0.0985297263
H   H32       1.0  0.50420  0.29590  0.27330  1.0000 0.0985297263
H   H33       1.0  0.29590  0.27330  0.50420  1.0000 0.0985297263
H   H34       1.0  0.72670  0.49580  0.70410  1.0000 0.0985297263
H   H35       1.0  0.49580  0.70410  0.72670  1.0000 0.0985297263
H   H36       1.0  0.70410  0.72670  0.49580  1.0000 0.0985297263
H   H37       1.0  0.05740  0.67420  0.37330  1.0000 0.0985297263
H   H38       1.0  0.67420  0.37330  0.05740  1.0000 0.0985297263
H   H39       1.0  0.37330  0.05740  0.67420  1.0000 0.0985297263
H   H40       1.0  0.94260  0.32580  0.62670  1.0000 0.0985297263
H   H41       1.0  0.32580  0.62670  0.94260  1.0000 0.0985297263
H   H42       1.0  0.62670  0.94260  0.32580  1.0000 0.0985297263
H   H43       1.0  0.15220  0.59990  0.45330  1.0000 0.1159454361
H   H44       1.0  0.59990  0.45330  0.15220  1.0000 0.1159454361
H   H45       1.0  0.45330  0.15220  0.59990  1.0000 0.1159454361
H   H46       1.0  0.84780  0.40010  0.54670  1.0000 0.1159454361
H   H47       1.0  0.40010  0.54670  0.84780  1.0000 0.1159454361
H   H48       1.0  0.54670  0.84780  0.40010  1.0000 0.1159454361
H   H49       1.0  0.00670  0.49620  0.37970  1.0000 0.091490301
H   H50       1.0  0.49620  0.37970  0.00670  1.0000 0.091490301
H   H51       1.0  0.37970  0.00670  0.49620  1.0000 0.091490301
H   H52       1.0  0.99330  0.50380  0.62030  1.0000 0.091490301
H   H53       1.0  0.50380  0.62030  0.99330  1.0000 0.091490301
H   H54       1.0  0.62030  0.99330  0.50380  1.0000 0.091490301
H   H55       1.0  0.10590  0.41850  0.45300  1.0000 0.091490301
H   H56       1.0  0.41850  0.45300  0.10590  1.0000 0.091490301
H   H57       1.0  0.45300  0.10590  0.41850  1.0000 0.091490301
H   H58       1.0  0.89410  0.58150  0.54700  1.0000 0.091490301
H   H59       1.0  0.58150  0.54700  0.89410  1.0000 0.091490301
H   H60       1.0  0.54700  0.89410  0.58150  1.0000 0.091490301
C   C1        1.0  0.36930  0.68630  0.25540  1.0000 0.5038013458
C   C2        1.0  0.68630  0.25540  0.36930  1.0000 0.5038013458
C   C3        1.0  0.25540  0.36930  0.68630  1.0000 0.5038013458
C   C4        1.0  0.63070  0.31370  0.74460  1.0000 0.5038013458
C   C5        1.0  0.31370  0.74460  0.63070  1.0000 0.5056091845
C   C6        1.0  0.74460  0.63070  0.31370  1.0000 0.5056091845
C   C7        1.0  0.41970  0.79740  0.19860  1.0000 -0.6023413141
C   C8        1.0  0.79740  0.19860  0.41970  1.0000 -0.6023413141
C   C9        1.0  0.19860  0.41970  0.79740  1.0000 -0.6023413141
C   C10       1.0  0.58030  0.20260  0.80140  1.0000 -0.6023413141
C   C11       1.0  0.20260  0.80140  0.58030  1.0000 -0.6023413141
C   C12       1.0  0.80140  0.58030  0.20260  1.0000 -0.6023413141
C   C13       1.0  0.21310  0.57910  0.27670  1.0000 -0.0672499463
C   C14       1.0  0.57910  0.27670  0.21310  1.0000 -0.0672499463
C   C15       1.0  0.27670  0.21310  0.57910  1.0000 -0.0672499463
C   C16       1.0  0.78690  0.42090  0.72330  1.0000 -0.0672499463
C   C17       1.0  0.42090  0.72330  0.78690  1.0000 -0.0672499463
C   C18       1.0  0.72330  0.78690  0.42090  1.0000 -0.0672499463
C   C19       1.0  0.11490  0.59680  0.39140  1.0000 -0.2316762457
C   C20       1.0  0.59680  0.39140  0.11490  1.0000 -0.2316762457
C   C21       1.0  0.39140  0.11490  0.59680  1.0000 -0.2316762457
C   C22       1.0  0.88510  0.40320  0.60860  1.0000 -0.2316762457
C   C23       1.0  0.40320  0.60860  0.88510  1.0000 -0.2316762457
C   C24       1.0  0.60860  0.88510  0.40320  1.0000 -0.2316762457
C   C25       1.0  0.04720  0.49590  0.44060  1.0000 -0.189893499
C   C26       1.0  0.49590  0.44060  0.04720  1.0000 -0.189893499
C   C27       1.0  0.44060  0.04720  0.49590  1.0000 -0.189893499
C   C28       1.0  0.95280  0.50410  0.55940  1.0000 -0.189893499
C   C29       1.0  0.50410  0.55940  0.95280  1.0000 -0.189893499
C   C30       1.0  0.55940  0.95280  0.50410  1.0000 -0.189893499
N   N1        1.0  0.27370  0.68140  0.22510  1.0000 -0.3209293485
N   N2        1.0  0.68140  0.22510  0.27370  1.0000 -0.3209293485
N   N3        1.0  0.22510  0.27370  0.68140  1.0000 -0.3209293485
N   N4        1.0  0.72630  0.31860  0.77490  1.0000 -0.3209293485
N   N5        1.0  0.31860  0.77490  0.72630  1.0000 -0.3209293485
N   N6        1.0  0.77490  0.72630  0.31860  1.0000 -0.3209293485
O   O1        1.0  0.41982  0.59972  0.32962  1.0000 -0.7019499342
O   O2        1.0  0.59972  0.32962  0.41982  1.0000 -0.7019499342
O   O3        1.0  0.32962  0.41982  0.59972  1.0000 -0.7019499342
O   O4        1.0  0.58018  0.40028  0.67038  1.0000 -0.7019499342
O   O5        1.0  0.40028  0.67038  0.58018  1.0000 -0.7019499342
O   O6        1.0  0.67038  0.58018  0.40028  1.0000 -0.7019499342
