# DDEC6 charges by PACMAN v1.1 (https://github.com/mtap-research/PACMAN-charge/)
data_2000[Al][sqc]3[ASR]1
_chemical_formula_sum              "Al4 P4 H8 C4 O12 F4"
_cell_length_a       4.978
_cell_length_b       12
_cell_length_c       8.189
_cell_angle_alpha    90
_cell_angle_beta     91.97
_cell_angle_gamma    90

_symmetry_space_group_name_H-M    "P 1"
_symmetry_Int_Tables_number       1

loop_
  _symmetry_equiv_pos_as_xyz
  'x, y, z'

loop_
  _atom_site_type_symbol
  _atom_site_label
  _atom_site_symmetry_multiplicity
  _atom_site_fract_x
  _atom_site_fract_y
  _atom_site_fract_z
  _atom_site_occupancy
  _atom_site_charge
Al  Al1       1.0  0.50000  0.50000  0.00000  1.0000 1.7839584678
Al  Al2       1.0  0.50000  0.00000  0.00000  1.0000 1.7839584678
Al  Al3       1.0  0.23024  0.25000  0.14083  1.0000 1.823524925
Al  Al4       1.0  0.76976  0.75000  0.85917  1.0000 1.823524925
P   P1        1.0  0.01017  0.48623  0.23026  1.0000 1.4054937094
P   P2        1.0  0.98983  0.51377  0.76974  1.0000 1.4040192097
P   P3        1.0  0.98983  0.98623  0.76974  1.0000 1.4040192097
P   P4        1.0  0.01017  0.01377  0.23026  1.0000 1.4054937094
H   H1        1.0  0.03897  0.62094  0.44044  1.0000 0.142690423
H   H2        1.0  0.96103  0.37906  0.55956  1.0000 0.142690423
H   H3        1.0  0.96103  0.12094  0.55956  1.0000 0.142690423
H   H4        1.0  0.03897  0.87906  0.44044  1.0000 0.142690423
H   H5        1.0  0.30596  0.51746  0.46340  1.0000 0.124658621
H   H6        1.0  0.69404  0.48254  0.53660  1.0000 0.124658621
H   H7        1.0  0.69404  0.01746  0.53660  1.0000 0.124658621
H   H8        1.0  0.30596  0.98254  0.46340  1.0000 0.124658621
C   C1        1.0  0.08257  0.53069  0.43814  1.0000 -0.3975383014
C   C2        1.0  0.91743  0.46931  0.56186  1.0000 -0.3975383014
C   C3        1.0  0.91743  0.03069  0.56186  1.0000 -0.3975383014
C   C4        1.0  0.08257  0.96931  0.43814  1.0000 -0.3975383014
O   O1        1.0  0.04577  0.35666  0.22892  1.0000 -0.8383626015
O   O2        1.0  0.95423  0.64334  0.77108  1.0000 -0.8383626015
O   O3        1.0  0.95423  0.85666  0.77108  1.0000 -0.8383626015
O   O4        1.0  0.04577  0.14334  0.22892  1.0000 -0.8383626015
O   O5        1.0  0.19946  0.54364  0.11091  1.0000 -0.8259377153
O   O6        1.0  0.80054  0.45636  0.88909  1.0000 -0.8259377153
O   O7        1.0  0.80054  0.04364  0.88909  1.0000 -0.8259377153
O   O8        1.0  0.19946  0.95636  0.11091  1.0000 -0.8259377153
O   O9        1.0  0.71544  0.51224  0.19795  1.0000 -0.8028080732
O   O10       1.0  0.28456  0.48776  0.80205  1.0000 -0.8028080732
O   O11       1.0  0.28456  0.01224  0.80205  1.0000 -0.8028080732
O   O12       1.0  0.71544  0.98776  0.19795  1.0000 -0.8028080732
F   F1        1.0  0.44434  0.34883  0.05340  1.0000 -0.6112005086
F   F2        1.0  0.55566  0.65117  0.94660  1.0000 -0.6112005086
F   F3        1.0  0.55566  0.84883  0.94660  1.0000 -0.6112005086
F   F4        1.0  0.44434  0.15117  0.05340  1.0000 -0.6112005086
