# DDEC6 charges by PACMAN v1.1 (https://github.com/mtap-research/PACMAN-charge/)
data_2000[Cu][pts]3[ASR]1
_chemical_formula_sum              "Cu4 H24 C28 O16"
_cell_length_a       8.57322
_cell_length_b       8.57322
_cell_length_c       14.3359
_cell_angle_alpha    87.0844
_cell_angle_beta     92.9156
_cell_angle_gamma    98.2572

_symmetry_space_group_name_H-M    "P 1"
_symmetry_Int_Tables_number       1

loop_
  _symmetry_equiv_pos_as_xyz
  'x, y, z'

loop_
  _atom_site_type_symbol
  _atom_site_label
  _atom_site_symmetry_multiplicity
  _atom_site_fract_x
  _atom_site_fract_y
  _atom_site_fract_z
  _atom_site_occupancy
  _atom_site_charge
Cu  Cu1       1.0  0.65430  0.02290  0.51000  1.0000 0.8426876483
Cu  Cu2       1.0  0.02290  0.65430  0.99000  1.0000 0.8426876483
Cu  Cu3       1.0  0.34570  0.97710  0.49000  1.0000 0.8426876483
Cu  Cu4       1.0  0.97710  0.34570  0.01000  1.0000 0.8426876483
H   H1        1.0  0.37510  0.46230  0.58260  1.0000 0.1271297701
H   H2        1.0  0.46230  0.37510  0.91740  1.0000 0.1271297701
H   H3        1.0  0.62490  0.53770  0.41740  1.0000 0.1227238097
H   H4        1.0  0.53770  0.62490  0.08260  1.0000 0.1227238097
H   H5        1.0  0.56390  0.47570  0.58750  1.0000 0.1227238097
H   H6        1.0  0.47570  0.56390  0.91250  1.0000 0.1227238097
H   H7        1.0  0.43610  0.52430  0.41250  1.0000 0.1227238097
H   H8        1.0  0.52430  0.43610  0.08750  1.0000 0.1227238097
H   H9        1.0  0.23660  0.59940  0.69750  1.0000 0.1271297701
H   H10       1.0  0.59940  0.23660  0.80250  1.0000 0.1271297701
H   H11       1.0  0.76340  0.40060  0.30250  1.0000 0.1271297701
H   H12       1.0  0.40060  0.76340  0.19750  1.0000 0.1271297701
H   H13       1.0  0.33550  0.70210  0.77670  1.0000 0.1271297701
H   H14       1.0  0.70210  0.33550  0.72330  1.0000 0.1271297701
H   H15       1.0  0.66450  0.29790  0.22330  1.0000 0.1271297701
H   H16       1.0  0.29790  0.66450  0.27670  1.0000 0.1271297701
H   H17       1.0  0.72390  0.63590  0.71330  1.0000 0.1271297701
H   H18       1.0  0.63590  0.72390  0.78670  1.0000 0.1271297701
H   H19       1.0  0.27610  0.36410  0.28670  1.0000 0.1271297701
H   H20       1.0  0.36410  0.27610  0.21330  1.0000 0.1271297701
H   H21       1.0  0.30130  0.21450  0.79270  1.0000 0.1271297701
H   H22       1.0  0.21450  0.30130  0.70730  1.0000 0.1271297701
H   H23       1.0  0.69870  0.78550  0.20730  1.0000 0.1271297701
H   H24       1.0  0.78550  0.69870  0.29270  1.0000 0.1271297701
C   C1        1.0  0.48910  0.76230  0.61450  1.0000 0.5590641318
C   C2        1.0  0.76230  0.48910  0.88550  1.0000 0.5590641318
C   C3        1.0  0.51090  0.23770  0.38550  1.0000 0.5590641318
C   C4        1.0  0.23770  0.51090  0.11450  1.0000 0.5590641318
C   C5        1.0  0.48070  0.61810  0.68320  1.0000 0.0937050167
C   C6        1.0  0.61810  0.48070  0.81680  1.0000 0.0937050167
C   C7        1.0  0.51930  0.38190  0.31680  1.0000 0.0937050167
C   C8        1.0  0.38190  0.51930  0.18320  1.0000 0.0937050167
C   C9        1.0  0.46980  0.46940  0.62550  1.0000 -0.2699169757
C   C10       1.0  0.46940  0.46980  0.87450  1.0000 -0.2699169757
C   C11       1.0  0.53020  0.53060  0.37450  1.0000 -0.2699169757
C   C12       1.0  0.53060  0.53020  0.12550  1.0000 -0.2699169757
C   C13       1.0  0.45950  0.32050  0.69290  1.0000 0.0937050167
C   C14       1.0  0.32050  0.45950  0.80710  1.0000 0.0937050167
C   C15       1.0  0.54050  0.67950  0.30710  1.0000 0.0937050167
C   C16       1.0  0.67950  0.54050  0.19290  1.0000 0.0937050167
C   C17       1.0  0.45770  0.18230  0.62810  1.0000 0.5535917697
C   C18       1.0  0.18230  0.45770  0.87190  1.0000 0.5535917697
C   C19       1.0  0.54230  0.81770  0.37190  1.0000 0.5535917697
C   C20       1.0  0.81770  0.54230  0.12810  1.0000 0.5535917697
C   C21       1.0  0.33130  0.60630  0.74030  1.0000 -0.2699169757
C   C22       1.0  0.60630  0.33130  0.75970  1.0000 -0.2699169757
C   C23       1.0  0.66870  0.39370  0.25970  1.0000 -0.2699169757
C   C24       1.0  0.39370  0.66870  0.24030  1.0000 -0.2699169757
C   C25       1.0  0.62810  0.62810  0.75000  1.0000 -0.2699169757
C   C26       1.0  0.37190  0.37190  0.25000  1.0000 -0.2699169757
C   C27       1.0  0.30950  0.30950  0.75000  1.0000 -0.2841386827
C   C28       1.0  0.69050  0.69050  0.25000  1.0000 -0.2841386827
O   O1        1.0  0.62360  0.83120  0.59330  1.0000 -0.5189193668
O   O2        1.0  0.83120  0.62360  0.90670  1.0000 -0.5189193668
O   O3        1.0  0.37640  0.16880  0.40670  1.0000 -0.5189193668
O   O4        1.0  0.16880  0.37640  0.09330  1.0000 -0.5189193668
O   O5        1.0  0.36030  0.80110  0.58190  1.0000 -0.5189193668
O   O6        1.0  0.80110  0.36030  0.91810  1.0000 -0.5189193668
O   O7        1.0  0.63970  0.19890  0.41810  1.0000 -0.5189193668
O   O8        1.0  0.19890  0.63970  0.08190  1.0000 -0.5189193668
O   O9        1.0  0.32790  0.11530  0.59510  1.0000 -0.4968378725
O   O10       1.0  0.11530  0.32790  0.90490  1.0000 -0.4968378725
O   O11       1.0  0.67210  0.88470  0.40490  1.0000 -0.4968378725
O   O12       1.0  0.88470  0.67210  0.09510  1.0000 -0.4968378725
O   O13       1.0  0.59090  0.15170  0.60770  1.0000 -0.5473848762
O   O14       1.0  0.15170  0.59090  0.89230  1.0000 -0.5473848762
O   O15       1.0  0.40910  0.84830  0.39230  1.0000 -0.5473848762
O   O16       1.0  0.84830  0.40910  0.10770  1.0000 -0.5473848762
