# DDEC6 charges by PACMAN v1.1 (https://github.com/mtap-research/PACMAN-charge/)
data_2000[Ag][bpv]3[ASR]1
_chemical_formula_sum              "Ag12 H72 C120 N48"
_cell_length_a       16.981
_cell_length_b       15.1658
_cell_length_c       24.4769
_cell_angle_alpha    90
_cell_angle_beta     127.819
_cell_angle_gamma    90

_symmetry_space_group_name_H-M    "P 1"
_symmetry_Int_Tables_number       1

loop_
  _symmetry_equiv_pos_as_xyz
  'x, y, z'

loop_
  _atom_site_type_symbol
  _atom_site_label
  _atom_site_symmetry_multiplicity
  _atom_site_fract_x
  _atom_site_fract_y
  _atom_site_fract_z
  _atom_site_occupancy
  _atom_site_charge
Ag  Ag1       1.0  0.85406  0.07026  0.82042  1.0000 0.2427346556
Ag  Ag2       1.0  0.85406  0.42974  0.32042  1.0000 0.2427346556
Ag  Ag3       1.0  0.14594  0.92974  0.17958  1.0000 0.2452892944
Ag  Ag4       1.0  0.14594  0.57026  0.67958  1.0000 0.2427346556
Ag  Ag5       1.0  0.70431  0.11123  0.46851  1.0000 0.2427346556
Ag  Ag6       1.0  0.70431  0.38877  0.96851  1.0000 0.2427346556
Ag  Ag7       1.0  0.29569  0.88877  0.53149  1.0000 0.2427346556
Ag  Ag8       1.0  0.29569  0.61123  0.03149  1.0000 0.2427346556
Ag  Ag9       1.0  0.25648  0.09043  0.78903  1.0000 0.2427346556
Ag  Ag10      1.0  0.25648  0.40957  0.28903  1.0000 0.2427346556
Ag  Ag11      1.0  0.74352  0.90957  0.21097  1.0000 0.2427346556
Ag  Ag12      1.0  0.74352  0.59043  0.71097  1.0000 0.2427346556
H   H1        1.0  0.22960  0.04640  0.90360  1.0000 0.1083436065
H   H2        1.0  0.22960  0.45360  0.40360  1.0000 0.1083436065
H   H3        1.0  0.77040  0.95360  0.09640  1.0000 0.1083436065
H   H4        1.0  0.77040  0.54640  0.59640  1.0000 0.1083436065
H   H5        1.0  0.10590  0.05150  0.91780  1.0000 0.0998823074
H   H6        1.0  0.10590  0.44850  0.41780  1.0000 0.0998823074
H   H7        1.0  0.89410  0.94850  0.08220  1.0000 0.0998823074
H   H8        1.0  0.89410  0.55150  0.58220  1.0000 0.0998823074
H   H9        1.0  0.65070  0.09520  0.65090  1.0000 0.0998823074
H   H10       1.0  0.65070  0.40480  0.15090  1.0000 0.0998823074
H   H11       1.0  0.34930  0.90480  0.34910  1.0000 0.0998823074
H   H12       1.0  0.34930  0.59520  0.84910  1.0000 0.0998823074
H   H13       1.0  0.60950  0.08830  0.54020  1.0000 0.1083436065
H   H14       1.0  0.60950  0.41170  0.04020  1.0000 0.1083436065
H   H15       1.0  0.39050  0.91170  0.45980  1.0000 0.1083436065
H   H16       1.0  0.39050  0.58830  0.95980  1.0000 0.1083436065
H   H17       1.0  0.90410  0.06000  0.57770  1.0000 0.1307137504
H   H18       1.0  0.90410  0.44000  0.07770  1.0000 0.1307137504
H   H19       1.0  0.09590  0.94000  0.42230  1.0000 0.1307137504
H   H20       1.0  0.09590  0.56000  0.92230  1.0000 0.1307137504
H   H21       1.0  0.06590  0.04970  0.67200  1.0000 0.1307137504
H   H22       1.0  0.06590  0.45030  0.17200  1.0000 0.1307137504
H   H23       1.0  0.93410  0.95030  0.32800  1.0000 0.1307137504
H   H24       1.0  0.93410  0.54970  0.82800  1.0000 0.1307137504
H   H25       1.0  0.82390  0.41900  0.43110  1.0000 0.0998823074
H   H26       1.0  0.82390  0.08100  0.93110  1.0000 0.0998823074
H   H27       1.0  0.17610  0.58100  0.56890  1.0000 0.0998823074
H   H28       1.0  0.17610  0.91900  0.06890  1.0000 0.0998823074
H   H29       1.0  0.78850  0.32450  0.48710  1.0000 0.0998823074
H   H30       1.0  0.78850  0.17550  0.98710  1.0000 0.0998823074
H   H31       1.0  0.21150  0.67550  0.51290  1.0000 0.0998823074
H   H32       1.0  0.21150  0.82450  0.01290  1.0000 0.0998823074
H   H33       1.0  0.65770  0.92870  0.37800  1.0000 0.1083436065
H   H34       1.0  0.65770  0.57130  0.87800  1.0000 0.1083436065
H   H35       1.0  0.34230  0.07130  0.62200  1.0000 0.1083436065
H   H36       1.0  0.34230  0.42870  0.12200  1.0000 0.1083436065
H   H37       1.0  0.67900  0.87420  0.30080  1.0000 0.1083436065
H   H38       1.0  0.67900  0.62580  0.80080  1.0000 0.1083436065
H   H39       1.0  0.32100  0.12580  0.69920  1.0000 0.1083436065
H   H40       1.0  0.32100  0.37420  0.19920  1.0000 0.1083436065
H   H41       1.0  0.78940  0.10270  0.24680  1.0000 0.1307137504
H   H42       1.0  0.78940  0.39730  0.74680  1.0000 0.1307137504
H   H43       1.0  0.21060  0.89730  0.75320  1.0000 0.1307137504
H   H44       1.0  0.21060  0.60270  0.25320  1.0000 0.1307137504
H   H45       1.0  0.82280  0.24840  0.27800  1.0000 0.1307137504
H   H46       1.0  0.82280  0.25160  0.77800  1.0000 0.1307137504
H   H47       1.0  0.17720  0.75160  0.72200  1.0000 0.1307137504
H   H48       1.0  0.17720  0.74840  0.22200  1.0000 0.1307137504
H   H49       1.0  0.62840  0.20160  0.97510  1.0000 0.0998823074
H   H50       1.0  0.62840  0.29840  0.47510  1.0000 0.0998823074
H   H51       1.0  0.37160  0.79840  0.02490  1.0000 0.0998823074
H   H52       1.0  0.37160  0.70160  0.52490  1.0000 0.0998823074
H   H53       1.0  0.49500  0.10280  0.91880  1.0000 0.1083436065
H   H54       1.0  0.49500  0.39720  0.41880  1.0000 0.1083436065
H   H55       1.0  0.50500  0.89720  0.08120  1.0000 0.1083436065
H   H56       1.0  0.50500  0.60280  0.58120  1.0000 0.1083436065
H   H57       1.0  0.06320  0.23460  0.65960  1.0000 0.0998823074
H   H58       1.0  0.06320  0.26540  0.15960  1.0000 0.0998823074
H   H59       1.0  0.93680  0.76540  0.34040  1.0000 0.0998823074
H   H60       1.0  0.93680  0.73460  0.84040  1.0000 0.0998823074
H   H61       1.0  0.03900  0.38270  0.62940  1.0000 0.0998823074
H   H62       1.0  0.03900  0.11730  0.12940  1.0000 0.0998823074
H   H63       1.0  0.96100  0.61730  0.37060  1.0000 0.0998823074
H   H64       1.0  0.96100  0.88270  0.87060  1.0000 0.0998823074
H   H65       1.0  0.35020  0.50090  0.76180  1.0000 0.1215862766
H   H66       1.0  0.35020  0.99910  0.26180  1.0000 0.1215862766
H   H67       1.0  0.64980  0.49910  0.23820  1.0000 0.1215862766
H   H68       1.0  0.64980  0.00090  0.73820  1.0000 0.1215862766
H   H69       1.0  0.50250  0.45380  0.85230  1.0000 0.1215862766
H   H70       1.0  0.50250  0.04620  0.35230  1.0000 0.1215862766
H   H71       1.0  0.49750  0.54620  0.14770  1.0000 0.1215862766
H   H72       1.0  0.49750  0.95380  0.64770  1.0000 0.1215862766
C   C1        1.0  0.96960  0.06330  0.75520  1.0000 0.0796342955
C   C2        1.0  0.96960  0.43670  0.25520  1.0000 0.0796342955
C   C3        1.0  0.03040  0.93670  0.24480  1.0000 0.0796342955
C   C4        1.0  0.03040  0.56330  0.74480  1.0000 0.0796342955
C   C5        1.0  0.04260  0.05720  0.74570  1.0000 0.1307137504
C   C6        1.0  0.04260  0.44280  0.24570  1.0000 0.1307137504
C   C7        1.0  0.95740  0.94280  0.25430  1.0000 0.1307137504
C   C8        1.0  0.95740  0.55720  0.75430  1.0000 0.1307137504
C   C9        1.0  0.16200  0.05100  0.86370  1.0000 -0.0212182582
C   C10       1.0  0.16200  0.44900  0.36370  1.0000 -0.0212182582
C   C11       1.0  0.83800  0.94900  0.13630  1.0000 -0.0212182582
C   C12       1.0  0.83800  0.55100  0.63630  1.0000 -0.0212182582
C   C13       1.0  0.08740  0.05460  0.87250  1.0000 -0.0296606821
C   C14       1.0  0.08740  0.44540  0.37250  1.0000 -0.0296606821
C   C15       1.0  0.91260  0.94540  0.12750  1.0000 -0.0296606821
C   C16       1.0  0.91260  0.55460  0.62750  1.0000 -0.0296606821
C   C17       1.0  0.86560  0.07080  0.69450  1.0000 0.0796342955
C   C18       1.0  0.86560  0.42920  0.19450  1.0000 0.0796342955
C   C19       1.0  0.13440  0.92920  0.30550  1.0000 0.0796342955
C   C20       1.0  0.13440  0.57080  0.80550  1.0000 0.0796342955
C   C21       1.0  0.70230  0.08760  0.64660  1.0000 -0.0098859574
C   C22       1.0  0.70230  0.41240  0.14660  1.0000 -0.0098859574
C   C23       1.0  0.29770  0.91240  0.35340  1.0000 -0.0098859574
C   C24       1.0  0.29770  0.58760  0.85340  1.0000 -0.0098859574
C   C25       1.0  0.67760  0.08450  0.57980  1.0000 -0.0212182582
C   C26       1.0  0.67760  0.41550  0.07980  1.0000 -0.0212182582
C   C27       1.0  0.32240  0.91550  0.42020  1.0000 -0.0212182582
C   C28       1.0  0.32240  0.58450  0.92020  1.0000 -0.0212182582
C   C29       1.0  0.84340  0.06980  0.62910  1.0000 0.1307137504
C   C30       1.0  0.84340  0.43020  0.12910  1.0000 0.1215862766
C   C31       1.0  0.15660  0.93020  0.37090  1.0000 0.1307137504
C   C32       1.0  0.15660  0.56980  0.87090  1.0000 0.1307137504
C   C33       1.0  0.92080  0.06140  0.62250  1.0000 -0.1732870169
C   C34       1.0  0.92080  0.43860  0.12250  1.0000 -0.1732870169
C   C35       1.0  0.07920  0.93860  0.37750  1.0000 -0.1732870169
C   C36       1.0  0.07920  0.56140  0.87750  1.0000 -0.1732870169
C   C37       1.0  0.01560  0.05530  0.67770  1.0000 -0.1877609506
C   C38       1.0  0.01560  0.44470  0.17770  1.0000 -0.1877609506
C   C39       1.0  0.98440  0.94470  0.32230  1.0000 -0.1877609506
C   C40       1.0  0.98440  0.55530  0.82230  1.0000 -0.1877609506
C   C41       1.0  0.76850  0.19000  0.38150  1.0000 0.0796342955
C   C42       1.0  0.76850  0.31000  0.88150  1.0000 0.0796342955
C   C43       1.0  0.23150  0.81000  0.61850  1.0000 0.0796342955
C   C44       1.0  0.23150  0.69000  0.11850  1.0000 0.0796342955
C   C45       1.0  0.79530  0.24540  0.34960  1.0000 0.1307137504
C   C46       1.0  0.79530  0.25460  0.84960  1.0000 0.1307137504
C   C47       1.0  0.20470  0.75460  0.65040  1.0000 0.1307137504
C   C48       1.0  0.20470  0.74540  0.15040  1.0000 0.1307137504
C   C49       1.0  0.81140  0.35870  0.41770  1.0000 -0.036691942
C   C50       1.0  0.81140  0.14130  0.91770  1.0000 -0.036691942
C   C51       1.0  0.18860  0.64130  0.58230  1.0000 -0.036691942
C   C52       1.0  0.18860  0.85870  0.08230  1.0000 -0.036691942
C   C53       1.0  0.78850  0.30230  0.45080  1.0000 -0.036691942
C   C54       1.0  0.78850  0.19770  0.95080  1.0000 -0.036691942
C   C55       1.0  0.21150  0.69770  0.54920  1.0000 -0.036691942
C   C56       1.0  0.21150  0.80230  0.04920  1.0000 -0.036691942
C   C57       1.0  0.74240  0.10040  0.35860  1.0000 0.0742444158
C   C58       1.0  0.74240  0.39960  0.85860  1.0000 0.0742444158
C   C59       1.0  0.25760  0.89960  0.64140  1.0000 0.0742444158
C   C60       1.0  0.25760  0.60040  0.14140  1.0000 0.0742444158
C   C61       1.0  0.68400  0.96650  0.36180  1.0000 -0.036691942
C   C62       1.0  0.68400  0.53350  0.86180  1.0000 -0.0296606821
C   C63       1.0  0.31600  0.03350  0.63820  1.0000 -0.0296606821
C   C64       1.0  0.31600  0.46650  0.13820  1.0000 -0.036691942
C   C65       1.0  0.69590  0.93410  0.31470  1.0000 -0.0098859574
C   C66       1.0  0.69590  0.56590  0.81470  1.0000 -0.0098859574
C   C67       1.0  0.30410  0.06590  0.68530  1.0000 -0.0098859574
C   C68       1.0  0.30410  0.43410  0.18530  1.0000 -0.0098859574
C   C69       1.0  0.75110  0.06780  0.30930  1.0000 0.1215862766
C   C70       1.0  0.75110  0.43220  0.80930  1.0000 0.1307137504
C   C71       1.0  0.24890  0.93220  0.69070  1.0000 0.1307137504
C   C72       1.0  0.24890  0.56780  0.19070  1.0000 0.1307137504
C   C73       1.0  0.78260  0.12500  0.28000  1.0000 -0.1814512327
C   C74       1.0  0.78260  0.37500  0.78000  1.0000 -0.1814512327
C   C75       1.0  0.21740  0.87500  0.72000  1.0000 -0.1814512327
C   C76       1.0  0.21740  0.62500  0.22000  1.0000 -0.1814512327
C   C77       1.0  0.80310  0.21080  0.29870  1.0000 -0.1877609506
C   C78       1.0  0.80310  0.28920  0.79870  1.0000 -0.1877609506
C   C79       1.0  0.19690  0.78920  0.70130  1.0000 -0.1877609506
C   C80       1.0  0.19690  0.71080  0.20130  1.0000 -0.1877609506
C   C81       1.0  0.38300  0.26740  0.82450  1.0000 0.0742444158
C   C82       1.0  0.38300  0.23260  0.32450  1.0000 0.0742444158
C   C83       1.0  0.61700  0.73260  0.17550  1.0000 0.0742444158
C   C84       1.0  0.61700  0.76740  0.67550  1.0000 0.0796342955
C   C85       1.0  0.46380  0.32750  0.85730  1.0000 0.1353960022
C   C86       1.0  0.46380  0.17250  0.35730  1.0000 0.1353960022
C   C87       1.0  0.53620  0.67250  0.14270  1.0000 0.1307137504
C   C88       1.0  0.53620  0.82750  0.64270  1.0000 0.1353960022
C   C89       1.0  0.56500  0.22090  0.93560  1.0000 -0.0212182582
C   C90       1.0  0.56500  0.27910  0.43560  1.0000 -0.0212182582
C   C91       1.0  0.43500  0.77910  0.06440  1.0000 -0.0212182582
C   C92       1.0  0.43500  0.72090  0.56440  1.0000 -0.0212182582
C   C93       1.0  0.48420  0.16140  0.90180  1.0000 -0.0098859574
C   C94       1.0  0.48420  0.33860  0.40180  1.0000 -0.0098859574
C   C95       1.0  0.51580  0.83860  0.09820  1.0000 -0.0098859574
C   C96       1.0  0.51580  0.66140  0.59820  1.0000 -0.0098859574
C   C97       1.0  0.28540  0.29700  0.76610  1.0000 0.0796342955
C   C98       1.0  0.28540  0.20300  0.26610  1.0000 0.0796342955
C   C99       1.0  0.71460  0.70300  0.23390  1.0000 0.0796342955
C   C100      1.0  0.71460  0.79700  0.73390  1.0000 0.0796342955
C   C101      1.0  0.11930  0.27280  0.68390  1.0000 -0.0212182582
C   C102      1.0  0.11930  0.22720  0.18390  1.0000 -0.0212182582
C   C103      1.0  0.88070  0.72720  0.31610  1.0000 -0.0212182582
C   C104      1.0  0.88070  0.77280  0.81610  1.0000 -0.0212182582
C   C105      1.0  0.10460  0.36200  0.66450  1.0000 -0.0098859574
C   C106      1.0  0.10460  0.13800  0.16450  1.0000 -0.0098859574
C   C107      1.0  0.89540  0.63800  0.33550  1.0000 -0.0098859574
C   C108      1.0  0.89540  0.86200  0.83550  1.0000 -0.0098859574
C   C109      1.0  0.27260  0.38530  0.74510  1.0000 0.1307137504
C   C110      1.0  0.27260  0.11470  0.24510  1.0000 0.1307137504
C   C111      1.0  0.72740  0.61470  0.25490  1.0000 0.1307137504
C   C112      1.0  0.72740  0.88530  0.75490  1.0000 0.1307137504
C   C113      1.0  0.35810  0.44230  0.77820  1.0000 -0.1814512327
C   C114      1.0  0.35810  0.05770  0.27820  1.0000 -0.1814512327
C   C115      1.0  0.64190  0.55770  0.22180  1.0000 -0.1814512327
C   C116      1.0  0.64190  0.94230  0.72180  1.0000 -0.1814512327
C   C117      1.0  0.44760  0.41440  0.83120  1.0000 -0.1814512327
C   C118      1.0  0.44760  0.08560  0.33120  1.0000 -0.1814512327
C   C119      1.0  0.55240  0.58560  0.16880  1.0000 -0.1814512327
C   C120      1.0  0.55240  0.91440  0.66880  1.0000 -0.1814512327
N   N1        1.0  0.99250  0.06230  0.81900  1.0000 -0.2214790001
N   N2        1.0  0.99250  0.43770  0.31900  1.0000 -0.2214790001
N   N3        1.0  0.00750  0.93770  0.18100  1.0000 -0.2214790001
N   N4        1.0  0.00750  0.56230  0.68100  1.0000 -0.2214790001
N   N5        1.0  0.14200  0.05380  0.80250  1.0000 -0.2289210175
N   N6        1.0  0.14200  0.44620  0.30250  1.0000 -0.2289210175
N   N7        1.0  0.85800  0.94620  0.19750  1.0000 -0.2289210175
N   N8        1.0  0.85800  0.55380  0.69750  1.0000 -0.2289210175
N   N9        1.0  0.79470  0.08040  0.70260  1.0000 -0.2113780171
N   N10       1.0  0.79470  0.41960  0.20260  1.0000 -0.2113780171
N   N11       1.0  0.20530  0.91960  0.29740  1.0000 -0.2113780171
N   N12       1.0  0.20530  0.58040  0.79740  1.0000 -0.2113780171
N   N13       1.0  0.74670  0.07640  0.57120  1.0000 -0.2113780171
N   N14       1.0  0.74670  0.42360  0.07120  1.0000 -0.2113780171
N   N15       1.0  0.25330  0.92360  0.42880  1.0000 -0.2113780171
N   N16       1.0  0.25330  0.57640  0.92880  1.0000 -0.2113780171
N   N17       1.0  0.76700  0.21860  0.43340  1.0000 -0.2025498874
N   N18       1.0  0.76700  0.28140  0.93340  1.0000 -0.2025498874
N   N19       1.0  0.23300  0.78140  0.56660  1.0000 -0.2025498874
N   N20       1.0  0.23300  0.71860  0.06660  1.0000 -0.2025498874
N   N21       1.0  0.81670  0.33240  0.36810  1.0000 -0.2289210175
N   N22       1.0  0.81670  0.16760  0.86810  1.0000 -0.2289210175
N   N23       1.0  0.18330  0.66760  0.63190  1.0000 -0.2289210175
N   N24       1.0  0.18330  0.83240  0.13190  1.0000 -0.2289210175
N   N25       1.0  0.70790  0.04850  0.38520  1.0000 -0.2113780171
N   N26       1.0  0.70790  0.45150  0.88520  1.0000 -0.2113780171
N   N27       1.0  0.29210  0.95150  0.61480  1.0000 -0.2113780171
N   N28       1.0  0.29210  0.54850  0.11480  1.0000 -0.2113780171
N   N29       1.0  0.72900  0.98110  0.28820  1.0000 -0.2214790001
N   N30       1.0  0.72900  0.51890  0.78820  1.0000 -0.2214790001
N   N31       1.0  0.27100  0.01890  0.71180  1.0000 -0.2214790001
N   N32       1.0  0.27100  0.48110  0.21180  1.0000 -0.2214790001
N   N33       1.0  0.39520  0.18420  0.84810  1.0000 -0.2025498874
N   N34       1.0  0.39520  0.31580  0.34810  1.0000 -0.2025498874
N   N35       1.0  0.60480  0.81580  0.15190  1.0000 -0.2025498874
N   N36       1.0  0.60480  0.68420  0.65190  1.0000 -0.2025498874
N   N37       1.0  0.55500  0.30210  0.91390  1.0000 -0.2289210175
N   N38       1.0  0.55500  0.19790  0.41390  1.0000 -0.2289210175
N   N39       1.0  0.44500  0.69790  0.08610  1.0000 -0.2289210175
N   N40       1.0  0.44500  0.80210  0.58610  1.0000 -0.2289210175
N   N41       1.0  0.20760  0.23940  0.73450  1.0000 -0.2431340679
N   N42       1.0  0.20760  0.26060  0.23450  1.0000 -0.2431340679
N   N43       1.0  0.79240  0.76060  0.26550  1.0000 -0.2431340679
N   N44       1.0  0.79240  0.73940  0.76550  1.0000 -0.2431340679
N   N45       1.0  0.18060  0.41760  0.69420  1.0000 -0.2214790001
N   N46       1.0  0.18060  0.08240  0.19420  1.0000 -0.2214790001
N   N47       1.0  0.81940  0.58240  0.30580  1.0000 -0.2214790001
N   N48       1.0  0.81940  0.91760  0.80580  1.0000 -0.2214790001
