# DDEC6 charges by PACMAN v1.1 (https://github.com/mtap-research/PACMAN-charge/)
data_2000[Zn][pts]3[ASR]1
_chemical_formula_sum              "Zn8 H104 C192 N16 O32"
_cell_length_a       16.9381
_cell_length_b       16.9381
_cell_length_c       32.598
_cell_angle_alpha    87.7734
_cell_angle_beta     92.2266
_cell_angle_gamma    109.672

_symmetry_space_group_name_H-M    "P 1"
_symmetry_Int_Tables_number       1

loop_
  _symmetry_equiv_pos_as_xyz
  'x, y, z'

loop_
  _atom_site_type_symbol
  _atom_site_label
  _atom_site_symmetry_multiplicity
  _atom_site_fract_x
  _atom_site_fract_y
  _atom_site_fract_z
  _atom_site_occupancy
  _atom_site_charge
Zn  Zn1       1.0  0.14407  0.31359  0.44289  1.0000 0.6509984038
Zn  Zn2       1.0  0.68641  0.85593  0.94289  1.0000 0.6509984038
Zn  Zn3       1.0  0.20294  0.85126  0.19473  1.0000 0.9138830802
Zn  Zn4       1.0  0.14874  0.79706  0.69473  1.0000 0.9138830802
Zn  Zn5       1.0  0.85593  0.68641  0.55711  1.0000 0.6509984038
Zn  Zn6       1.0  0.31359  0.14407  0.05711  1.0000 0.6509984038
Zn  Zn7       1.0  0.79706  0.14874  0.80527  1.0000 0.9138830802
Zn  Zn8       1.0  0.85126  0.20294  0.30527  1.0000 0.9138830802
H   H1        1.0  0.21680  0.29280  0.29290  1.0000 0.1207920773
H   H2        1.0  0.70720  0.78320  0.79290  1.0000 0.1207920773
H   H3        1.0  0.21580  0.43440  0.29640  1.0000 0.1207920773
H   H4        1.0  0.56560  0.78420  0.79640  1.0000 0.1207920773
H   H5        1.0  0.17630  0.62550  0.41740  1.0000 0.1291594184
H   H6        1.0  0.37450  0.82370  0.91740  1.0000 0.1291594184
H   H7        1.0  0.15370  0.60390  0.49130  1.0000 0.1291594184
H   H8        1.0  0.39610  0.84630  0.99130  1.0000 0.1291594184
H   H9        1.0  0.11320  0.34620  0.59530  1.0000 0.1291594184
H   H10       1.0  0.65380  0.88680  0.09530  1.0000 0.1291594184
H   H11       1.0  0.11430  0.20310  0.59260  1.0000 0.1291594184
H   H12       1.0  0.79690  0.88570  0.09260  1.0000 0.1291594184
H   H13       1.0  0.16100  0.01900  0.47560  1.0000 0.1291594184
H   H14       1.0  0.98100  0.83900  0.97560  1.0000 0.1291594184
H   H15       1.0  0.19120  0.04400  0.40160  1.0000 0.1291594184
H   H16       1.0  0.95600  0.80880  0.90160  1.0000 0.1291594184
H   H17       1.0  0.08820  0.07800  0.32160  1.0000 0.1365582621
H   H18       1.0  0.92200  0.91180  0.82160  1.0000 0.1365582621
H   H19       1.0  0.12040  0.99640  0.27310  1.0000 0.1291594184
H   H20       1.0  0.00360  0.87960  0.77310  1.0000 0.1291594184
H   H21       1.0  0.36140  0.12620  0.28600  1.0000 0.1207920773
H   H22       1.0  0.87380  0.63860  0.78600  1.0000 0.1207920773
H   H23       1.0  0.33230  0.20590  0.33590  1.0000 0.1207920773
H   H24       1.0  0.79410  0.66770  0.83590  1.0000 0.1207920773
H   H25       1.0  0.32760  0.99860  0.20460  1.0000 0.3571087918
H   H26       1.0  0.00140  0.67240  0.70460  1.0000 0.3571087918
H   H27       1.0  0.09380  0.50500  0.31230  1.0000 0.1365582621
H   H28       1.0  0.49500  0.90620  0.81230  1.0000 0.1365582621
H   H29       1.0  0.11460  0.61420  0.26550  1.0000 0.1207920773
H   H30       1.0  0.38580  0.88540  0.76550  1.0000 0.1207920773
H   H31       1.0  0.32690  0.74290  0.32220  1.0000 0.1291594184
H   H32       1.0  0.25710  0.67310  0.82220  1.0000 0.1291594184
H   H33       1.0  0.30820  0.62980  0.36870  1.0000 0.1207920773
H   H34       1.0  0.37020  0.69180  0.86870  1.0000 0.1207920773
H   H35       1.0  0.12190  0.70770  0.23620  1.0000 0.3769442341
H   H36       1.0  0.29230  0.87810  0.73620  1.0000 0.3769442341
H   H37       1.0  0.00530  0.43910  0.56040  1.0000 0.1207920773
H   H38       1.0  0.56090  0.99470  0.06040  1.0000 0.1207920773
H   H39       1.0  0.99020  0.51700  0.61690  1.0000 0.1047964147
H   H40       1.0  0.48300  0.00980  0.11690  1.0000 0.1047964147
H   H41       1.0  0.23450  0.64750  0.61330  1.0000 0.1207920773
H   H42       1.0  0.35250  0.76550  0.11330  1.0000 0.1207920773
H   H43       1.0  0.24860  0.56880  0.55970  1.0000 0.1207920773
H   H44       1.0  0.43120  0.75140  0.05970  1.0000 0.1207920773
H   H45       1.0  0.01090  0.02430  0.53890  1.0000 0.1207920773
H   H46       1.0  0.97570  0.98910  0.03890  1.0000 0.1207920773
H   H47       1.0  0.00400  0.91760  0.58530  1.0000 0.1207920773
H   H48       1.0  0.08240  0.99600  0.08530  1.0000 0.1207920773
H   H49       1.0  0.24550  0.01970  0.61120  1.0000 0.1139248884
H   H50       1.0  0.98030  0.75450  0.11120  1.0000 0.1139248884
H   H51       1.0  0.25740  0.12640  0.56180  1.0000 0.1207920773
H   H52       1.0  0.87360  0.74260  0.06180  1.0000 0.1207920773
H   H53       1.0  0.78320  0.70720  0.70710  1.0000 0.1207920773
H   H54       1.0  0.29280  0.21680  0.20710  1.0000 0.1207920773
H   H55       1.0  0.78420  0.56560  0.70360  1.0000 0.1207920773
H   H56       1.0  0.43440  0.21580  0.20360  1.0000 0.1207920773
H   H57       1.0  0.82370  0.37450  0.58260  1.0000 0.1291594184
H   H58       1.0  0.62550  0.17630  0.08260  1.0000 0.1291594184
H   H59       1.0  0.84630  0.39610  0.50870  1.0000 0.1291594184
H   H60       1.0  0.60390  0.15370  0.00870  1.0000 0.1291594184
H   H61       1.0  0.88680  0.65380  0.40470  1.0000 0.1291594184
H   H62       1.0  0.34620  0.11320  0.90470  1.0000 0.1291594184
H   H63       1.0  0.88570  0.79690  0.40740  1.0000 0.1291594184
H   H64       1.0  0.20310  0.11430  0.90740  1.0000 0.1291594184
H   H65       1.0  0.83900  0.98100  0.52440  1.0000 0.1291594184
H   H66       1.0  0.01900  0.16100  0.02440  1.0000 0.1291594184
H   H67       1.0  0.80880  0.95600  0.59840  1.0000 0.1291594184
H   H68       1.0  0.04400  0.19120  0.09840  1.0000 0.1291594184
H   H69       1.0  0.91180  0.92200  0.67840  1.0000 0.1365582621
H   H70       1.0  0.07800  0.08820  0.17840  1.0000 0.1365582621
H   H71       1.0  0.87960  0.00360  0.72690  1.0000 0.1291594184
H   H72       1.0  0.99640  0.12040  0.22690  1.0000 0.1291594184
H   H73       1.0  0.63860  0.87380  0.71400  1.0000 0.1207920773
H   H74       1.0  0.12620  0.36140  0.21400  1.0000 0.1207920773
H   H75       1.0  0.66770  0.79410  0.66410  1.0000 0.1207920773
H   H76       1.0  0.20590  0.33230  0.16410  1.0000 0.1207920773
H   H77       1.0  0.67240  0.00140  0.79540  1.0000 0.3571087918
H   H78       1.0  0.99860  0.32760  0.29540  1.0000 0.3571087918
H   H79       1.0  0.90620  0.49500  0.68770  1.0000 0.1365582621
H   H80       1.0  0.50500  0.09380  0.18770  1.0000 0.1365582621
H   H81       1.0  0.88540  0.38580  0.73450  1.0000 0.1207920773
H   H82       1.0  0.61420  0.11460  0.23450  1.0000 0.1207920773
H   H83       1.0  0.67310  0.25710  0.67780  1.0000 0.1291594184
H   H84       1.0  0.74290  0.32690  0.17780  1.0000 0.1291594184
H   H85       1.0  0.69180  0.37020  0.63130  1.0000 0.1207920773
H   H86       1.0  0.62980  0.30820  0.13130  1.0000 0.1207920773
H   H87       1.0  0.87810  0.29230  0.76380  1.0000 0.3769442341
H   H88       1.0  0.70770  0.12190  0.26380  1.0000 0.3769442341
H   H89       1.0  0.99470  0.56090  0.43960  1.0000 0.1207920773
H   H90       1.0  0.43910  0.00530  0.93960  1.0000 0.1207920773
H   H91       1.0  0.00980  0.48300  0.38310  1.0000 0.1047964147
H   H92       1.0  0.51700  0.99020  0.88310  1.0000 0.1047964147
H   H93       1.0  0.76550  0.35250  0.38670  1.0000 0.1207920773
H   H94       1.0  0.64750  0.23450  0.88670  1.0000 0.1207920773
H   H95       1.0  0.75140  0.43120  0.44030  1.0000 0.1207920773
H   H96       1.0  0.56880  0.24860  0.94030  1.0000 0.1207920773
H   H97       1.0  0.98910  0.97570  0.46110  1.0000 0.1207920773
H   H98       1.0  0.02430  0.01090  0.96110  1.0000 0.1207920773
H   H99       1.0  0.99600  0.08240  0.41470  1.0000 0.1207920773
H   H100      1.0  0.91760  0.00400  0.91470  1.0000 0.1207920773
H   H101      1.0  0.75450  0.98030  0.38880  1.0000 0.1139248884
H   H102      1.0  0.01970  0.24550  0.88880  1.0000 0.1139248884
H   H103      1.0  0.74260  0.87360  0.43820  1.0000 0.1207920773
H   H104      1.0  0.12640  0.25740  0.93820  1.0000 0.1207920773
C   C1        1.0  0.17604  0.16136  0.40680  1.0000 0.1833948032
C   C2        1.0  0.83864  0.82396  0.90680  1.0000 0.1833948032
C   C3        1.0  0.18999  0.19901  0.36784  1.0000 -0.0699403198
C   C4        1.0  0.80099  0.81001  0.86784  1.0000 -0.0699403198
C   C5        1.0  0.19320  0.27920  0.35672  1.0000 0.1833948032
C   C6        1.0  0.72080  0.80680  0.85672  1.0000 0.1833948032
C   C7        1.0  0.20800  0.31800  0.31635  1.0000 -0.1900464693
C   C8        1.0  0.68200  0.79200  0.81635  1.0000 -0.1900464693
C   C9        1.0  0.20720  0.39560  0.31820  1.0000 -0.1798478649
C   C10       1.0  0.60440  0.79280  0.81820  1.0000 -0.1798478649
C   C11       1.0  0.19080  0.40960  0.36017  1.0000 0.1833948032
C   C12       1.0  0.59040  0.80920  0.86017  1.0000 0.1833948032
C   C13       1.0  0.18802  0.48418  0.37437  1.0000 -0.0699403198
C   C14       1.0  0.51582  0.81198  0.87437  1.0000 -0.0699403198
C   C15       1.0  0.17724  0.49996  0.41644  1.0000 0.1861551604
C   C16       1.0  0.50004  0.82276  0.91644  1.0000 0.1861551604
C   C17       1.0  0.17165  0.57655  0.43258  1.0000 -0.1981031993
C   C18       1.0  0.42345  0.82835  0.93258  1.0000 -0.1981031993
C   C19       1.0  0.15860  0.56480  0.47321  1.0000 -0.171624024
C   C20       1.0  0.43520  0.84140  0.97321  1.0000 -0.171624024
C   C21       1.0  0.15387  0.48053  0.48306  1.0000 0.1716352156
C   C22       1.0  0.51947  0.84613  0.98306  1.0000 0.1716352156
C   C23       1.0  0.13857  0.44143  0.52207  1.0000 -0.0634881468
C   C24       1.0  0.55857  0.86143  0.02207  1.0000 -0.0634881468
C   C25       1.0  0.13323  0.35977  0.53181  1.0000 0.1833948032
C   C26       1.0  0.64023  0.86677  0.03181  1.0000 0.1833948032
C   C27       1.0  0.12040  0.32040  0.57177  1.0000 -0.1900464693
C   C28       1.0  0.67960  0.87960  0.07177  1.0000 -0.1900464693
C   C29       1.0  0.12050  0.24170  0.57078  1.0000 -0.171624024
C   C30       1.0  0.75830  0.87950  0.07078  1.0000 -0.171624024
C   C31       1.0  0.13237  0.23003  0.52818  1.0000 0.1716352156
C   C32       1.0  0.76997  0.86763  0.02818  1.0000 0.1716352156
C   C33       1.0  0.14034  0.15586  0.51408  1.0000 -0.0484229027
C   C34       1.0  0.84414  0.85966  0.01408  1.0000 -0.0484229027
C   C35       1.0  0.15456  0.14164  0.47362  1.0000 0.1637243084
C   C36       1.0  0.85836  0.84544  0.97362  1.0000 0.1637243084
C   C37       1.0  0.16446  0.06714  0.45996  1.0000 -0.1798478649
C   C38       1.0  0.93286  0.83554  0.95996  1.0000 -0.1798478649
C   C39       1.0  0.17994  0.08106  0.41886  1.0000 -0.1981031993
C   C40       1.0  0.91894  0.82006  0.91886  1.0000 -0.1981031993
C   C41       1.0  0.20507  0.14593  0.33456  1.0000 0.089337056
C   C42       1.0  0.85407  0.79493  0.83456  1.0000 0.089337056
C   C43       1.0  0.14390  0.08750  0.31532  1.0000 -0.1420167336
C   C44       1.0  0.91250  0.85610  0.81532  1.0000 -0.1420167336
C   C45       1.0  0.16320  0.03980  0.28526  1.0000 -0.0959442505
C   C46       1.0  0.96020  0.83680  0.78526  1.0000 -0.0959442505
C   C47       1.0  0.24335  0.05625  0.27384  1.0000 -0.0280734883
C   C48       1.0  0.94375  0.75665  0.77384  1.0000 -0.0280734883
C   C49       1.0  0.30610  0.11630  0.29310  1.0000 -0.0923466135
C   C50       1.0  0.88370  0.69390  0.79310  1.0000 -0.0923466135
C   C51       1.0  0.28910  0.16350  0.32330  1.0000 -0.1496053362
C   C52       1.0  0.83650  0.71090  0.82330  1.0000 -0.1496053362
C   C53       1.0  0.25820  0.00100  0.24136  1.0000 0.5891092023
C   C54       1.0  0.99900  0.74180  0.74136  1.0000 0.5891092023
C   C55       1.0  0.19870  0.55370  0.34513  1.0000 0.0772619521
C   C56       1.0  0.44630  0.80130  0.84513  1.0000 0.0772619521
C   C57       1.0  0.14190  0.55190  0.31460  1.0000 -0.1288436451
C   C58       1.0  0.44810  0.85810  0.81460  1.0000 -0.1288436451
C   C59       1.0  0.15400  0.61840  0.28674  1.0000 -0.12126183
C   C60       1.0  0.38160  0.84600  0.78674  1.0000 -0.12126183
C   C61       1.0  0.22084  0.68876  0.28953  1.0000 -0.0484229027
C   C62       1.0  0.31124  0.77916  0.78953  1.0000 -0.0484229027
C   C63       1.0  0.28000  0.69480  0.31992  1.0000 -0.0795622678
C   C64       1.0  0.30520  0.72000  0.81992  1.0000 -0.0795622678
C   C65       1.0  0.26820  0.62640  0.34782  1.0000 -0.1496053362
C   C66       1.0  0.37360  0.73180  0.84782  1.0000 -0.1496053362
C   C67       1.0  0.23630  0.76410  0.25995  1.0000 0.5544142625
C   C68       1.0  0.23590  0.76370  0.75995  1.0000 0.5544142625
C   C69       1.0  0.13048  0.49692  0.55622  1.0000 0.0772619521
C   C70       1.0  0.50308  0.86952  0.05622  1.0000 0.0772619521
C   C71       1.0  0.05150  0.48050  0.57161  1.0000 -0.1496053362
C   C72       1.0  0.51950  0.94850  0.07161  1.0000 -0.1496053362
C   C73       1.0  0.04225  0.52855  0.60514  1.0000 -0.0795622678
C   C74       1.0  0.47145  0.95775  0.10514  1.0000 -0.0795622678
C   C75       1.0  0.11180  0.59280  0.62007  1.0000 -0.0484229027
C   C76       1.0  0.40720  0.88820  0.12007  1.0000 -0.0484229027
C   C77       1.0  0.18740  0.60560  0.60312  1.0000 -0.0795622678
C   C78       1.0  0.39440  0.81260  0.10312  1.0000 -0.0795622678
C   C79       1.0  0.19630  0.55790  0.57094  1.0000 -0.1420167336
C   C80       1.0  0.44210  0.80370  0.07094  1.0000 -0.1420167336
C   C81       1.0  0.09920  0.64380  0.65337  1.0000 0.5891092023
C   C82       1.0  0.35620  0.90080  0.15337  1.0000 0.5891092023
C   C83       1.0  0.13244  0.08516  0.54452  1.0000 0.0772619521
C   C84       1.0  0.91484  0.86756  0.04452  1.0000 0.0772619521
C   C85       1.0  0.05970  0.02370  0.55283  1.0000 -0.1496053362
C   C86       1.0  0.97630  0.94030  0.05283  1.0000 -0.1496053362
C   C87       1.0  0.05510  0.95990  0.58115  1.0000 -0.0923466135
C   C88       1.0  0.04010  0.94490  0.08115  1.0000 -0.0923466135
C   C89       1.0  0.12403  0.95837  0.60302  1.0000 -0.0280734883
C   C90       1.0  0.04163  0.87597  0.10302  1.0000 -0.0280734883
C   C91       1.0  0.19810  0.02030  0.59598  1.0000 -0.0923466135
C   C92       1.0  0.97970  0.80190  0.09598  1.0000 -0.0923466135
C   C93       1.0  0.20590  0.08510  0.56658  1.0000 -0.1496053362
C   C94       1.0  0.91490  0.79410  0.06658  1.0000 -0.1496053362
C   C95       1.0  0.12220  0.89220  0.63455  1.0000 0.5725257299
C   C96       1.0  0.10780  0.87780  0.13455  1.0000 0.5725257299
C   C97       1.0  0.82396  0.83864  0.59320  1.0000 0.1833948032
C   C98       1.0  0.16136  0.17604  0.09320  1.0000 0.1833948032
C   C99       1.0  0.81001  0.80099  0.63216  1.0000 -0.0699403198
C   C100      1.0  0.19901  0.18999  0.13216  1.0000 -0.0699403198
C   C101      1.0  0.80680  0.72080  0.64328  1.0000 0.1833948032
C   C102      1.0  0.27920  0.19320  0.14328  1.0000 0.1833948032
C   C103      1.0  0.79200  0.68200  0.68365  1.0000 -0.1900464693
C   C104      1.0  0.31800  0.20800  0.18365  1.0000 -0.1900464693
C   C105      1.0  0.79280  0.60440  0.68180  1.0000 -0.1798478649
C   C106      1.0  0.39560  0.20720  0.18180  1.0000 -0.1798478649
C   C107      1.0  0.80920  0.59040  0.63983  1.0000 0.1833948032
C   C108      1.0  0.40960  0.19080  0.13983  1.0000 0.1833948032
C   C109      1.0  0.81198  0.51582  0.62563  1.0000 -0.0699403198
C   C110      1.0  0.48418  0.18802  0.12563  1.0000 -0.0699403198
C   C111      1.0  0.82276  0.50004  0.58356  1.0000 0.1861551604
C   C112      1.0  0.49996  0.17724  0.08356  1.0000 0.1861551604
C   C113      1.0  0.82835  0.42345  0.56742  1.0000 -0.1981031993
C   C114      1.0  0.57655  0.17165  0.06742  1.0000 -0.1981031993
C   C115      1.0  0.84140  0.43520  0.52679  1.0000 -0.171624024
C   C116      1.0  0.56480  0.15860  0.02679  1.0000 -0.171624024
C   C117      1.0  0.84613  0.51947  0.51694  1.0000 0.1716352156
C   C118      1.0  0.48053  0.15387  0.01694  1.0000 0.1716352156
C   C119      1.0  0.86143  0.55857  0.47793  1.0000 -0.0634881468
C   C120      1.0  0.44143  0.13857  0.97793  1.0000 -0.0634881468
C   C121      1.0  0.86677  0.64023  0.46819  1.0000 0.1833948032
C   C122      1.0  0.35977  0.13323  0.96819  1.0000 0.1833948032
C   C123      1.0  0.87960  0.67960  0.42823  1.0000 -0.1900464693
C   C124      1.0  0.32040  0.12040  0.92823  1.0000 -0.1900464693
C   C125      1.0  0.87950  0.75830  0.42922  1.0000 -0.171624024
C   C126      1.0  0.24170  0.12050  0.92922  1.0000 -0.171624024
C   C127      1.0  0.86763  0.76997  0.47182  1.0000 0.1716352156
C   C128      1.0  0.23003  0.13237  0.97182  1.0000 0.1716352156
C   C129      1.0  0.85966  0.84414  0.48592  1.0000 -0.0484229027
C   C130      1.0  0.15586  0.14034  0.98592  1.0000 -0.0484229027
C   C131      1.0  0.84544  0.85836  0.52638  1.0000 0.1637243084
C   C132      1.0  0.14164  0.15456  0.02638  1.0000 0.1637243084
C   C133      1.0  0.83554  0.93286  0.54004  1.0000 -0.1798478649
C   C134      1.0  0.06714  0.16446  0.04004  1.0000 -0.1798478649
C   C135      1.0  0.82006  0.91894  0.58114  1.0000 -0.1981031993
C   C136      1.0  0.08106  0.17994  0.08114  1.0000 -0.1981031993
C   C137      1.0  0.79493  0.85407  0.66544  1.0000 0.089337056
C   C138      1.0  0.14593  0.20507  0.16544  1.0000 0.089337056
C   C139      1.0  0.85610  0.91250  0.68468  1.0000 -0.1420167336
C   C140      1.0  0.08750  0.14390  0.18468  1.0000 -0.1420167336
C   C141      1.0  0.83680  0.96020  0.71474  1.0000 -0.0959442505
C   C142      1.0  0.03980  0.16320  0.21474  1.0000 -0.0959442505
C   C143      1.0  0.75665  0.94375  0.72616  1.0000 -0.0280734883
C   C144      1.0  0.05625  0.24335  0.22616  1.0000 -0.0280734883
C   C145      1.0  0.69390  0.88370  0.70690  1.0000 -0.0923466135
C   C146      1.0  0.11630  0.30610  0.20690  1.0000 -0.0923466135
C   C147      1.0  0.71090  0.83650  0.67670  1.0000 -0.1496053362
C   C148      1.0  0.16350  0.28910  0.17670  1.0000 -0.1496053362
C   C149      1.0  0.74180  0.99900  0.75864  1.0000 0.5891092023
C   C150      1.0  0.00100  0.25820  0.25864  1.0000 0.5891092023
C   C151      1.0  0.80130  0.44630  0.65487  1.0000 0.0772619521
C   C152      1.0  0.55370  0.19870  0.15487  1.0000 0.0772619521
C   C153      1.0  0.85810  0.44810  0.68540  1.0000 -0.1288436451
C   C154      1.0  0.55190  0.14190  0.18540  1.0000 -0.1288436451
C   C155      1.0  0.84600  0.38160  0.71326  1.0000 -0.12126183
C   C156      1.0  0.61840  0.15400  0.21326  1.0000 -0.12126183
C   C157      1.0  0.77916  0.31124  0.71047  1.0000 -0.0484229027
C   C158      1.0  0.68876  0.22084  0.21047  1.0000 -0.0484229027
C   C159      1.0  0.72000  0.30520  0.68008  1.0000 -0.0795622678
C   C160      1.0  0.69480  0.28000  0.18008  1.0000 -0.0795622678
C   C161      1.0  0.73180  0.37360  0.65218  1.0000 -0.1496053362
C   C162      1.0  0.62640  0.26820  0.15218  1.0000 -0.1496053362
C   C163      1.0  0.76370  0.23590  0.74005  1.0000 0.5544142625
C   C164      1.0  0.76410  0.23630  0.24005  1.0000 0.5544142625
C   C165      1.0  0.86952  0.50308  0.44378  1.0000 0.0772619521
C   C166      1.0  0.49692  0.13048  0.94378  1.0000 0.0772619521
C   C167      1.0  0.94850  0.51950  0.42839  1.0000 -0.1496053362
C   C168      1.0  0.48050  0.05150  0.92839  1.0000 -0.1496053362
C   C169      1.0  0.95775  0.47145  0.39486  1.0000 -0.0795622678
C   C170      1.0  0.52855  0.04225  0.89486  1.0000 -0.0795622678
C   C171      1.0  0.88820  0.40720  0.37993  1.0000 -0.0484229027
C   C172      1.0  0.59280  0.11180  0.87993  1.0000 -0.0484229027
C   C173      1.0  0.81260  0.39440  0.39688  1.0000 -0.0795622678
C   C174      1.0  0.60560  0.18740  0.89688  1.0000 -0.0795622678
C   C175      1.0  0.80370  0.44210  0.42906  1.0000 -0.1420167336
C   C176      1.0  0.55790  0.19630  0.92906  1.0000 -0.1420167336
C   C177      1.0  0.90080  0.35620  0.34663  1.0000 0.5891092023
C   C178      1.0  0.64380  0.09920  0.84663  1.0000 0.5891092023
C   C179      1.0  0.86756  0.91484  0.45548  1.0000 0.0772619521
C   C180      1.0  0.08516  0.13244  0.95548  1.0000 0.0772619521
C   C181      1.0  0.94030  0.97630  0.44717  1.0000 -0.1496053362
C   C182      1.0  0.02370  0.05970  0.94717  1.0000 -0.1496053362
C   C183      1.0  0.94490  0.04010  0.41885  1.0000 -0.0923466135
C   C184      1.0  0.95990  0.05510  0.91885  1.0000 -0.0923466135
C   C185      1.0  0.87597  0.04163  0.39698  1.0000 -0.0280734883
C   C186      1.0  0.95837  0.12403  0.89698  1.0000 -0.0280734883
C   C187      1.0  0.80190  0.97970  0.40402  1.0000 -0.0923466135
C   C188      1.0  0.02030  0.19810  0.90402  1.0000 -0.0923466135
C   C189      1.0  0.79410  0.91490  0.43342  1.0000 -0.1496053362
C   C190      1.0  0.08510  0.20590  0.93342  1.0000 -0.1496053362
C   C191      1.0  0.87780  0.10780  0.36545  1.0000 0.5725257299
C   C192      1.0  0.89220  0.12220  0.86545  1.0000 0.5725257299
N   N1        1.0  0.18104  0.33656  0.38293  1.0000 -0.3590828874
N   N2        1.0  0.66344  0.81896  0.88293  1.0000 -0.3590828874
N   N3        1.0  0.16469  0.44031  0.44826  1.0000 -0.3748113313
N   N4        1.0  0.55969  0.83531  0.94826  1.0000 -0.3748113313
N   N5        1.0  0.13913  0.30127  0.50547  1.0000 -0.3590828874
N   N6        1.0  0.69873  0.86087  0.00547  1.0000 -0.3590828874
N   N7        1.0  0.16296  0.20024  0.44140  1.0000 -0.3769766787
N   N8        1.0  0.79976  0.83704  0.94140  1.0000 -0.3769766787
N   N9        1.0  0.81896  0.66344  0.61707  1.0000 -0.3590828874
N   N10       1.0  0.33656  0.18104  0.11707  1.0000 -0.3590828874
N   N11       1.0  0.83531  0.55969  0.55174  1.0000 -0.3748113313
N   N12       1.0  0.44031  0.16469  0.05174  1.0000 -0.3748113313
N   N13       1.0  0.86087  0.69873  0.49453  1.0000 -0.3590828874
N   N14       1.0  0.30127  0.13913  0.99453  1.0000 -0.3590828874
N   N15       1.0  0.83704  0.79976  0.55860  1.0000 -0.3769766787
N   N16       1.0  0.20024  0.16296  0.05860  1.0000 -0.3769766787
O   O1        1.0  0.33623  0.02017  0.23243  1.0000 -0.4288786002
O   O2        1.0  0.97983  0.66377  0.73243  1.0000 -0.4288786002
O   O3        1.0  0.19900  0.94520  0.22627  1.0000 -0.5011167028
O   O4        1.0  0.05480  0.80100  0.72627  1.0000 -0.5011167028
O   O5        1.0  0.29879  0.82601  0.26108  1.0000 -0.436607922
O   O6        1.0  0.17399  0.70121  0.76108  1.0000 -0.436607922
O   O7        1.0  0.17288  0.75372  0.23240  1.0000 -0.5102186301
O   O8        1.0  0.24628  0.82712  0.73240  1.0000 -0.5102186301
O   O9        1.0  0.15785  0.70775  0.66137  1.0000 -0.5191066363
O   O10       1.0  0.29225  0.84215  0.16137  1.0000 -0.5191066363
O   O11       1.0  0.03010  0.61970  0.67102  1.0000 -0.5574756363
O   O12       1.0  0.38030  0.96990  0.17102  1.0000 -0.5574756363
O   O13       1.0  0.17903  0.90117  0.66098  1.0000 -0.5375420549
O   O14       1.0  0.09883  0.82097  0.16098  1.0000 -0.5375420549
O   O15       1.0  0.06022  0.82278  0.63240  1.0000 -0.5877989629
O   O16       1.0  0.17722  0.93978  0.13240  1.0000 -0.5877989629
O   O17       1.0  0.66377  0.97983  0.76757  1.0000 -0.4288786002
O   O18       1.0  0.02017  0.33623  0.26757  1.0000 -0.4288786002
O   O19       1.0  0.80100  0.05480  0.77373  1.0000 -0.5011167028
O   O20       1.0  0.94520  0.19900  0.27373  1.0000 -0.5011167028
O   O21       1.0  0.70121  0.17399  0.73892  1.0000 -0.436607922
O   O22       1.0  0.82601  0.29879  0.23892  1.0000 -0.436607922
O   O23       1.0  0.82712  0.24628  0.76760  1.0000 -0.5102186301
O   O24       1.0  0.75372  0.17288  0.26760  1.0000 -0.5102186301
O   O25       1.0  0.84215  0.29225  0.33863  1.0000 -0.5191066363
O   O26       1.0  0.70775  0.15785  0.83863  1.0000 -0.5191066363
O   O27       1.0  0.96990  0.38030  0.32898  1.0000 -0.5574756363
O   O28       1.0  0.61970  0.03010  0.82898  1.0000 -0.5574756363
O   O29       1.0  0.82097  0.09883  0.33902  1.0000 -0.5375420549
O   O30       1.0  0.90117  0.17903  0.83902  1.0000 -0.5375420549
O   O31       1.0  0.93978  0.17722  0.36760  1.0000 -0.5877989629
O   O32       1.0  0.82278  0.06022  0.86760  1.0000 -0.5877989629
