# DDEC6 charges by PACMAN v1.1 (https://github.com/mtap-research/PACMAN-charge/)
data_2000[Mn][fet]3[ASR]1
_chemical_formula_sum              "Mn4 H40 C56 N8 O16"
_cell_length_a       11.6612
_cell_length_b       8.648
_cell_length_c       18.493
_cell_angle_alpha    90
_cell_angle_beta     102.037
_cell_angle_gamma    90

_symmetry_space_group_name_H-M    "P 1"
_symmetry_Int_Tables_number       1

loop_
  _symmetry_equiv_pos_as_xyz
  'x, y, z'

loop_
  _atom_site_type_symbol
  _atom_site_label
  _atom_site_symmetry_multiplicity
  _atom_site_fract_x
  _atom_site_fract_y
  _atom_site_fract_z
  _atom_site_occupancy
  _atom_site_charge
Mn  Mn1       1.0  0.94163  0.79378  0.16580  1.0000 0.8691177413
Mn  Mn2       1.0  0.94163  0.70622  0.66580  1.0000 0.8691177413
Mn  Mn3       1.0  0.05837  0.20622  0.83420  1.0000 0.8691177413
Mn  Mn4       1.0  0.05837  0.29378  0.33420  1.0000 0.8691177413
H   H1        1.0  0.88000  0.65100  0.88600  1.0000 0.1278575841
H   H2        1.0  0.88000  0.84900  0.38600  1.0000 0.1278575841
H   H3        1.0  0.12000  0.34900  0.11400  1.0000 0.1278575841
H   H4        1.0  0.12000  0.15100  0.61400  1.0000 0.1278575841
H   H5        1.0  0.01700  0.90800  0.93700  1.0000 0.1406227991
H   H6        1.0  0.01700  0.59200  0.43700  1.0000 0.1406227991
H   H7        1.0  0.98300  0.09200  0.06300  1.0000 0.1406227991
H   H8        1.0  0.98300  0.40800  0.56300  1.0000 0.1406227991
H   H9        1.0  0.70300  0.63800  0.09620  1.0000 0.1170392827
H   H10       1.0  0.70300  0.86200  0.59620  1.0000 0.1170392827
H   H11       1.0  0.29700  0.36200  0.90380  1.0000 0.1170392827
H   H12       1.0  0.29700  0.13800  0.40380  1.0000 0.1170392827
H   H13       1.0  0.50900  0.63800  0.09760  1.0000 0.1406227991
H   H14       1.0  0.50900  0.86200  0.59760  1.0000 0.1406227991
H   H15       1.0  0.49100  0.36200  0.90240  1.0000 0.1406227991
H   H16       1.0  0.49100  0.13800  0.40240  1.0000 0.1406227991
H   H17       1.0  0.56400  0.97000  0.24300  1.0000 0.1278575841
H   H18       1.0  0.56400  0.53000  0.74300  1.0000 0.1278575841
H   H19       1.0  0.43600  0.03000  0.75700  1.0000 0.1278575841
H   H20       1.0  0.43600  0.47000  0.25700  1.0000 0.1278575841
H   H21       1.0  0.75200  0.96700  0.24000  1.0000 0.1170392827
H   H22       1.0  0.75200  0.53300  0.74000  1.0000 0.1170392827
H   H23       1.0  0.24800  0.03300  0.76000  1.0000 0.1170392827
H   H24       1.0  0.24800  0.46700  0.26000  1.0000 0.1170392827
H   H25       1.0  0.12800  0.65000  0.07800  1.0000 0.1109102311
H   H26       1.0  0.12800  0.85000  0.57800  1.0000 0.1109102311
H   H27       1.0  0.87200  0.35000  0.92200  1.0000 0.1109102311
H   H28       1.0  0.87200  0.15000  0.42200  1.0000 0.1109102311
H   H29       1.0  0.32500  0.64500  0.08360  1.0000 0.1406227991
H   H30       1.0  0.32500  0.85500  0.58360  1.0000 0.1406227991
H   H31       1.0  0.67500  0.35500  0.91640  1.0000 0.1406227991
H   H32       1.0  0.67500  0.14500  0.41640  1.0000 0.1406227991
H   H33       1.0  0.37200  0.95000  0.24960  1.0000 0.1278575841
H   H34       1.0  0.37200  0.55000  0.74960  1.0000 0.1278575841
H   H35       1.0  0.62800  0.05000  0.75040  1.0000 0.1278575841
H   H36       1.0  0.62800  0.45000  0.25040  1.0000 0.1278575841
H   H37       1.0  0.17500  0.94700  0.24800  1.0000 0.1109102311
H   H38       1.0  0.17500  0.55300  0.74800  1.0000 0.1109102311
H   H39       1.0  0.82500  0.05300  0.75200  1.0000 0.1109102311
H   H40       1.0  0.82500  0.44700  0.25200  1.0000 0.1109102311
C   C1        1.0  0.88630  0.69590  0.99800  1.0000 0.6027610943
C   C2        1.0  0.88630  0.80410  0.49800  1.0000 0.6027610943
C   C3        1.0  0.11370  0.30410  0.00200  1.0000 0.6027610943
C   C4        1.0  0.11370  0.19590  0.50200  1.0000 0.6027610943
C   C5        1.0  0.90960  0.72420  0.92312  1.0000 -0.1825337514
C   C6        1.0  0.90960  0.77580  0.42312  1.0000 -0.1825337514
C   C7        1.0  0.09040  0.27580  0.07688  1.0000 -0.1825337514
C   C8        1.0  0.09040  0.22420  0.57688  1.0000 -0.1825337514
C   C9        1.0  0.97660  0.83300  0.90440  1.0000 -0.1987880386
C   C10       1.0  0.97660  0.66700  0.40440  1.0000 -0.1987880386
C   C11       1.0  0.02340  0.16700  0.09560  1.0000 -0.1987880386
C   C12       1.0  0.02340  0.33300  0.59560  1.0000 -0.1987880386
C   C13       1.0  0.00350  0.84280  0.82892  1.0000 0.6098520205
C   C14       1.0  0.00350  0.65720  0.32892  1.0000 0.6098520205
C   C15       1.0  0.99650  0.15720  0.17108  1.0000 0.6098520205
C   C16       1.0  0.99650  0.34280  0.67108  1.0000 0.6098520205
C   C17       1.0  0.67270  0.70760  0.12690  1.0000 0.0731485159
C   C18       1.0  0.67270  0.79240  0.62690  1.0000 0.0731485159
C   C19       1.0  0.32730  0.29240  0.87310  1.0000 0.0731485159
C   C20       1.0  0.32730  0.20760  0.37310  1.0000 0.0731485159
C   C21       1.0  0.55470  0.70250  0.12610  1.0000 -0.1825337514
C   C22       1.0  0.55470  0.79750  0.62610  1.0000 -0.1825337514
C   C23       1.0  0.44530  0.29750  0.87390  1.0000 -0.1825337514
C   C24       1.0  0.44530  0.20250  0.37390  1.0000 -0.1825337514
C   C25       1.0  0.50650  0.80150  0.16958  1.0000 0.0993299939
C   C26       1.0  0.50650  0.69850  0.66958  1.0000 0.0993299939
C   C27       1.0  0.49350  0.19850  0.83042  1.0000 0.0993299939
C   C28       1.0  0.49350  0.30150  0.33042  1.0000 0.0993299939
C   C29       1.0  0.58400  0.90050  0.21390  1.0000 -0.1987880386
C   C30       1.0  0.58400  0.59950  0.71390  1.0000 -0.1987880386
C   C31       1.0  0.41600  0.09950  0.78610  1.0000 -0.1987880386
C   C32       1.0  0.41600  0.40050  0.28610  1.0000 -0.1987880386
C   C33       1.0  0.70120  0.89870  0.21110  1.0000 0.0818037622
C   C34       1.0  0.70120  0.60130  0.71110  1.0000 0.0818037622
C   C35       1.0  0.29880  0.10130  0.78890  1.0000 0.0818037622
C   C36       1.0  0.29880  0.39870  0.28890  1.0000 0.0818037622
C   C37       1.0  0.18260  0.71350  0.11930  1.0000 0.0993299939
C   C38       1.0  0.18260  0.78650  0.61930  1.0000 0.0993299939
C   C39       1.0  0.81740  0.28650  0.88070  1.0000 0.0993299939
C   C40       1.0  0.81740  0.21350  0.38070  1.0000 0.0993299939
C   C41       1.0  0.29990  0.70980  0.11930  1.0000 -0.1897884898
C   C42       1.0  0.29990  0.79020  0.61930  1.0000 -0.1897884898
C   C43       1.0  0.70010  0.29020  0.88070  1.0000 -0.1897884898
C   C44       1.0  0.70010  0.20980  0.38070  1.0000 -0.1897884898
C   C45       1.0  0.37860  0.80080  0.16831  1.0000 0.0993299939
C   C46       1.0  0.37860  0.69920  0.66831  1.0000 0.0993299939
C   C47       1.0  0.62140  0.19920  0.83169  1.0000 0.0993299939
C   C48       1.0  0.62140  0.30080  0.33169  1.0000 0.0993299939
C   C49       1.0  0.32960  0.89070  0.21570  1.0000 -0.1897884898
C   C50       1.0  0.32960  0.60930  0.71570  1.0000 -0.1897884898
C   C51       1.0  0.67040  0.10930  0.78430  1.0000 -0.1897884898
C   C52       1.0  0.67040  0.39070  0.28430  1.0000 -0.1897884898
C   C53       1.0  0.21070  0.88690  0.21330  1.0000 0.0818037622
C   C54       1.0  0.21070  0.61310  0.71330  1.0000 0.0818037622
C   C55       1.0  0.78930  0.11310  0.78670  1.0000 0.0818037622
C   C56       1.0  0.78930  0.38690  0.28670  1.0000 0.0818037622
N   N1        1.0  0.74690  0.80340  0.16812  1.0000 -0.2082505628
N   N2        1.0  0.74690  0.69660  0.66812  1.0000 -0.2082505628
N   N3        1.0  0.25310  0.19660  0.83188  1.0000 -0.2082505628
N   N4        1.0  0.25310  0.30340  0.33188  1.0000 -0.2082505628
N   N5        1.0  0.13690  0.79890  0.16616  1.0000 -0.2176575914
N   N6        1.0  0.13690  0.70110  0.66616  1.0000 -0.2176575914
N   N7        1.0  0.86310  0.20110  0.83384  1.0000 -0.2176575914
N   N8        1.0  0.86310  0.29890  0.33384  1.0000 -0.2176575914
O   O1        1.0  0.90866  0.80250  0.04601  1.0000 -0.5806406095
O   O2        1.0  0.90866  0.69750  0.54601  1.0000 -0.5806406095
O   O3        1.0  0.09134  0.19750  0.95399  1.0000 -0.5806406095
O   O4        1.0  0.09134  0.30250  0.45399  1.0000 -0.5806406095
O   O5        1.0  0.84590  0.56560  0.00891  1.0000 -0.596290107
O   O6        1.0  0.84590  0.93440  0.50891  1.0000 -0.596290107
O   O7        1.0  0.15410  0.43440  0.99109  1.0000 -0.596290107
O   O8        1.0  0.15410  0.06560  0.49109  1.0000 -0.596290107
O   O9        1.0  0.97577  0.72960  0.78589  1.0000 -0.5663788125
O   O10       1.0  0.97577  0.77040  0.28589  1.0000 -0.5663788125
O   O11       1.0  0.02423  0.27040  0.21411  1.0000 -0.5663788125
O   O12       1.0  0.02423  0.22960  0.71411  1.0000 -0.5663788125
O   O13       1.0  0.05279  0.96260  0.81215  1.0000 -0.5663788125
O   O14       1.0  0.05279  0.53740  0.31215  1.0000 -0.5663788125
O   O15       1.0  0.94721  0.03740  0.18785  1.0000 -0.5663788125
O   O16       1.0  0.94721  0.46260  0.68785  1.0000 -0.5663788125
