# DDEC6 charges by PACMAN v1.1 (https://github.com/mtap-research/PACMAN-charge/)
data_2001[La][nan]3[ASR]1
_chemical_formula_sum              "La2 H24 C18 O12"
_cell_length_a       9.249
_cell_length_b       9.807
_cell_length_c       10.73
_cell_angle_alpha    112
_cell_angle_beta     84.47
_cell_angle_gamma    117.95

_symmetry_space_group_name_H-M    "P 1"
_symmetry_Int_Tables_number       1

loop_
  _symmetry_equiv_pos_as_xyz
  'x, y, z'

loop_
  _atom_site_type_symbol
  _atom_site_label
  _atom_site_symmetry_multiplicity
  _atom_site_fract_x
  _atom_site_fract_y
  _atom_site_fract_z
  _atom_site_occupancy
  _atom_site_charge
La  La1       1.0  0.22478  0.95626  0.98423  1.0000 1.8752769783
La  La2       1.0  0.77522  0.04374  0.01577  1.0000 1.8710321739
H   H1        1.0  0.36230  0.87410  0.37180  1.0000 0.1274297043
H   H2        1.0  0.63770  0.12590  0.62820  1.0000 0.1274297043
H   H3        1.0  0.53380  0.02440  0.37730  1.0000 0.1378834463
H   H4        1.0  0.46620  0.97560  0.62270  1.0000 0.1378834463
H   H5        1.0  0.63280  0.83790  0.24610  1.0000 0.0929076924
H   H6        1.0  0.36720  0.16210  0.75390  1.0000 0.0929076924
H   H7        1.0  0.57640  0.81090  0.38120  1.0000 0.0734368219
H   H8        1.0  0.42360  0.18910  0.61880  1.0000 0.0734368219
H   H9        1.0  0.32890  0.57530  0.26480  1.0000 0.0929076924
H   H10       1.0  0.67110  0.42470  0.73520  1.0000 0.0929076924
H   H11       1.0  0.38220  0.60330  0.12920  1.0000 0.1002400423
H   H12       1.0  0.61780  0.39670  0.87080  1.0000 0.1002400423
H   H13       1.0  0.60090  0.54970  0.13370  1.0000 0.1378834463
H   H14       1.0  0.39910  0.45030  0.86630  1.0000 0.1378834463
H   H15       1.0  0.56560  0.53970  0.27640  1.0000 0.1274297043
H   H16       1.0  0.43440  0.46030  0.72360  1.0000 0.1274297043
H   H17       1.0  0.83180  0.90390  0.65100  1.0000 0.1378834463
H   H18       1.0  0.16820  0.09610  0.34900  1.0000 0.1378834463
H   H19       1.0  0.88600  0.77080  0.56050  1.0000 0.1378834463
H   H20       1.0  0.11400  0.22920  0.43950  1.0000 0.1378834463
H   H21       1.0  0.08660  0.11830  0.62690  1.0000 0.1002400423
H   H22       1.0  0.91340  0.88170  0.37310  1.0000 0.1002400423
H   H23       1.0  0.13370  0.98220  0.53120  1.0000 0.1002400423
H   H24       1.0  0.86630  0.01780  0.46880  1.0000 0.1002400423
C   C1        1.0  0.40040  0.91220  0.19500  1.0000 0.6636341169
C   C2        1.0  0.59960  0.08780  0.80500  1.0000 0.6636341169
C   C3        1.0  0.45640  0.91140  0.32150  1.0000 -0.3413064525
C   C4        1.0  0.54360  0.08860  0.67850  1.0000 -0.3413064525
C   C5        1.0  0.53780  0.79980  0.29530  1.0000 -0.1381245897
C   C6        1.0  0.46220  0.20020  0.70470  1.0000 -0.1381245897
C   C7        1.0  0.42260  0.61590  0.21510  1.0000 -0.132687942
C   C8        1.0  0.57740  0.38410  0.78490  1.0000 -0.132687942
C   C9        1.0  0.51410  0.51460  0.19060  1.0000 -0.3181479916
C   C10       1.0  0.48590  0.48540  0.80940  1.0000 -0.3181479916
C   C11       1.0  0.40790  0.32860  0.12530  1.0000 0.6181084468
C   C12       1.0  0.59210  0.67140  0.87470  1.0000 0.6181084468
C   C13       1.0  0.01370  0.90620  0.74860  1.0000 0.6525686934
C   C14       1.0  0.98630  0.09380  0.25140  1.0000 0.6525686934
C   C15       1.0  0.92580  0.88410  0.62520  1.0000 -0.3302267239
C   C16       1.0  0.07420  0.11590  0.37480  1.0000 -0.3302267239
C   C17       1.0  0.04240  0.00570  0.56020  1.0000 -0.132687942
C   C18       1.0  0.95760  0.99430  0.43980  1.0000 -0.132687942
O   O1        1.0  0.25190  0.87770  0.17640  1.0000 -0.6307882414
O   O2        1.0  0.74810  0.12230  0.82360  1.0000 -0.6307882414
O   O3        1.0  0.50050  0.94900  0.10990  1.0000 -0.6542534874
O   O4        1.0  0.49950  0.05100  0.89010  1.0000 -0.6542534874
O   O5        1.0  0.42170  0.23410  0.17270  1.0000 -0.620236446
O   O6        1.0  0.57830  0.76590  0.82730  1.0000 -0.620236446
O   O7        1.0  0.30810  0.26630  0.02250  1.0000 -0.620236446
O   O8        1.0  0.69190  0.73370  0.97750  1.0000 -0.620236446
O   O9        1.0  0.12740  0.86640  0.73380  1.0000 -0.6107578621
O   O10       1.0  0.87260  0.13360  0.26620  1.0000 -0.6107578621
O   O11       1.0  0.97770  0.96830  0.86550  1.0000 -0.6443772361
O   O12       1.0  0.02230  0.03170  0.13450  1.0000 -0.6443772361
