# DDEC6 charges by PACMAN v1.1 (https://github.com/mtap-research/PACMAN-charge/)
data_2001[Zn][sab]3[ASR]1
_chemical_formula_sum              "Zn12 H24 C72 O64"
_cell_length_a       17.115
_cell_length_b       17.115
_cell_length_c       17.115
_cell_angle_alpha    105.761
_cell_angle_beta     105.761
_cell_angle_gamma    117.177

_symmetry_space_group_name_H-M    "P 1"
_symmetry_Int_Tables_number       1

loop_
  _symmetry_equiv_pos_as_xyz
  'x, y, z'

loop_
  _atom_site_type_symbol
  _atom_site_label
  _atom_site_symmetry_multiplicity
  _atom_site_fract_x
  _atom_site_fract_y
  _atom_site_fract_z
  _atom_site_occupancy
  _atom_site_charge
Zn  Zn1       1.0  0.24525  0.37745  0.62270  1.0000 0.8967196329
Zn  Zn2       1.0  0.62255  0.24525  0.86780  1.0000 0.8967196329
Zn  Zn3       1.0  0.25475  0.87745  0.13220  1.0000 0.8967196329
Zn  Zn4       1.0  0.75475  0.62255  0.37730  1.0000 0.8967196329
Zn  Zn5       1.0  0.12255  0.25475  0.37730  1.0000 0.8967196329
Zn  Zn6       1.0  0.37745  0.75475  0.13220  1.0000 0.8967196329
Zn  Zn7       1.0  0.74525  0.12255  0.86780  1.0000 0.8967196329
Zn  Zn8       1.0  0.87745  0.74525  0.62270  1.0000 0.8967196329
Zn  Zn9       1.0  0.30477  0.48535  0.50000  1.0000 0.9786508365
Zn  Zn10      1.0  0.80477  0.30477  0.81942  1.0000 0.9786508365
Zn  Zn11      1.0  0.48535  0.98535  0.18058  1.0000 0.9786508365
Zn  Zn12      1.0  0.98535  0.80477  0.50000  1.0000 0.9786508365
H   H1        1.0  0.48520  0.34120  0.69280  1.0000 0.1266445948
H   H2        1.0  0.79240  0.48520  0.14400  1.0000 0.1266445948
H   H3        1.0  0.14840  0.84120  0.85600  1.0000 0.1266445948
H   H4        1.0  0.64840  0.79240  0.30720  1.0000 0.1266445948
H   H5        1.0  0.29240  0.14840  0.30720  1.0000 0.1266445948
H   H6        1.0  0.34120  0.64840  0.85600  1.0000 0.1266445948
H   H7        1.0  0.98520  0.29240  0.14400  1.0000 0.1266445948
H   H8        1.0  0.84120  0.98520  0.69280  1.0000 0.1266445948
H   H9        1.0  0.75100  0.44780  0.68980  1.0000 0.1246981157
H   H10       1.0  0.06120  0.75100  0.30320  1.0000 0.1246981157
H   H11       1.0  0.25800  0.94780  0.69680  1.0000 0.1246981157
H   H12       1.0  0.75800  0.06120  0.31020  1.0000 0.1246981157
H   H13       1.0  0.56120  0.25800  0.31020  1.0000 0.1246981157
H   H14       1.0  0.44780  0.75800  0.69680  1.0000 0.1246981157
H   H15       1.0  0.25100  0.56120  0.30320  1.0000 0.1246981157
H   H16       1.0  0.94780  0.25100  0.68980  1.0000 0.1246981157
H   H17       1.0  0.59000  0.55310  0.61090  1.0000 0.1246981157
H   H18       1.0  0.97910  0.59000  0.03690  1.0000 0.1246981157
H   H19       1.0  0.44220  0.05310  0.96310  1.0000 0.1246981157
H   H20       1.0  0.94220  0.97910  0.38910  1.0000 0.1246981157
H   H21       1.0  0.47910  0.44220  0.38910  1.0000 0.1246981157
H   H22       1.0  0.55310  0.94220  0.96310  1.0000 0.1246981157
H   H23       1.0  0.09000  0.47910  0.03690  1.0000 0.1246981157
H   H24       1.0  0.05310  0.09000  0.61090  1.0000 0.1246981157
C   C1        1.0  0.52110  0.44220  0.64610  1.0000 -0.0387444958
C   C2        1.0  0.87500  0.52110  0.07890  1.0000 -0.0387444958
C   C3        1.0  0.29610  0.94220  0.92110  1.0000 -0.0387444958
C   C4        1.0  0.79610  0.87500  0.35390  1.0000 -0.0387444958
C   C5        1.0  0.37500  0.29610  0.35390  1.0000 -0.0387444958
C   C6        1.0  0.44220  0.79610  0.92110  1.0000 -0.0387444958
C   C7        1.0  0.02110  0.37500  0.07890  1.0000 -0.0387444958
C   C8        1.0  0.94220  0.02110  0.64610  1.0000 -0.0387444958
C   C9        1.0  0.53510  0.38350  0.68080  1.0000 -0.103291963
C   C10       1.0  0.85430  0.53510  0.15160  1.0000 -0.103291963
C   C11       1.0  0.20270  0.88350  0.84840  1.0000 -0.103291963
C   C12       1.0  0.70270  0.85430  0.31920  1.0000 -0.103291963
C   C13       1.0  0.35430  0.20270  0.31920  1.0000 -0.103291963
C   C14       1.0  0.38350  0.70270  0.84840  1.0000 -0.103291963
C   C15       1.0  0.03510  0.35430  0.15160  1.0000 -0.103291963
C   C16       1.0  0.88350  0.03510  0.68080  1.0000 -0.103291963
C   C17       1.0  0.62040  0.38590  0.69910  1.0000 -0.0237526725
C   C18       1.0  0.92130  0.62040  0.23450  1.0000 -0.0237526725
C   C19       1.0  0.18680  0.88590  0.76550  1.0000 -0.0237526725
C   C20       1.0  0.68680  0.92130  0.30090  1.0000 -0.0237526725
C   C21       1.0  0.42130  0.18680  0.30090  1.0000 -0.0237526725
C   C22       1.0  0.38590  0.68680  0.76550  1.0000 -0.0237526725
C   C23       1.0  0.12040  0.42130  0.23450  1.0000 -0.0237526725
C   C24       1.0  0.88590  0.12040  0.69910  1.0000 -0.0237526725
C   C25       1.0  0.69430  0.44950  0.68240  1.0000 -0.1101147037
C   C26       1.0  0.01190  0.69430  0.24480  1.0000 -0.1101147037
C   C27       1.0  0.26710  0.94950  0.75520  1.0000 -0.1101147037
C   C28       1.0  0.76710  0.01190  0.31760  1.0000 -0.1101147037
C   C29       1.0  0.51190  0.26710  0.31760  1.0000 -0.1101147037
C   C30       1.0  0.44950  0.76710  0.75520  1.0000 -0.1101147037
C   C31       1.0  0.19430  0.51190  0.24480  1.0000 -0.1101147037
C   C32       1.0  0.94950  0.19430  0.68240  1.0000 -0.1101147037
C   C33       1.0  0.68220  0.51190  0.65070  1.0000 -0.0275658499
C   C34       1.0  0.03150  0.68220  0.17030  1.0000 -0.0275658499
C   C35       1.0  0.36120  0.01190  0.82970  1.0000 -0.0237526725
C   C36       1.0  0.86120  0.03150  0.34930  1.0000 -0.0237526725
C   C37       1.0  0.53150  0.36120  0.34930  1.0000 -0.0275658499
C   C38       1.0  0.51190  0.86120  0.82970  1.0000 -0.0237526725
C   C39       1.0  0.18220  0.53150  0.17030  1.0000 -0.0237526725
C   C40       1.0  0.01190  0.18220  0.65070  1.0000 -0.0275658499
C   C41       1.0  0.59780  0.50990  0.63250  1.0000 -0.103291963
C   C42       1.0  0.96530  0.59780  0.08790  1.0000 -0.103291963
C   C43       1.0  0.37740  0.00990  0.91210  1.0000 -0.103291963
C   C44       1.0  0.87740  0.96530  0.36750  1.0000 -0.103291963
C   C45       1.0  0.46530  0.37740  0.36750  1.0000 -0.103291963
C   C46       1.0  0.50990  0.87740  0.91210  1.0000 -0.103291963
C   C47       1.0  0.09780  0.46530  0.08790  1.0000 -0.103291963
C   C48       1.0  0.00990  0.09780  0.63250  1.0000 -0.103291963
C   C49       1.0  0.42770  0.43800  0.62250  1.0000 0.5912654085
C   C50       1.0  0.80520  0.42770  0.98970  1.0000 0.5912654085
C   C51       1.0  0.31550  0.93800  0.01030  1.0000 0.5912654085
C   C52       1.0  0.81550  0.80520  0.37750  1.0000 0.5912654085
C   C53       1.0  0.30520  0.31550  0.37750  1.0000 0.5912654085
C   C54       1.0  0.43800  0.81550  0.01030  1.0000 0.5912654085
C   C55       1.0  0.92770  0.30520  0.98970  1.0000 0.5912654085
C   C56       1.0  0.93800  0.92770  0.62250  1.0000 0.5912654085
C   C57       1.0  0.63940  0.32410  0.73890  1.0000 0.5839875473
C   C58       1.0  0.90050  0.63940  0.31530  1.0000 0.5839875473
C   C59       1.0  0.08520  0.82410  0.68470  1.0000 0.5839875473
C   C60       1.0  0.58520  0.90050  0.26110  1.0000 0.5839875473
C   C61       1.0  0.40050  0.08520  0.26110  1.0000 0.5839875473
C   C62       1.0  0.32410  0.58520  0.68470  1.0000 0.5839875473
C   C63       1.0  0.13940  0.40050  0.31530  1.0000 0.5839875473
C   C64       1.0  0.82410  0.13940  0.73890  1.0000 0.5839875473
C   C65       1.0  0.76710  0.58450  0.63960  1.0000 0.5444290621
C   C66       1.0  0.12750  0.76710  0.18260  1.0000 0.5444290621
C   C67       1.0  0.44490  0.08450  0.81740  1.0000 0.5444290621
C   C68       1.0  0.94490  0.12750  0.36040  1.0000 0.5444290621
C   C69       1.0  0.62750  0.44490  0.36040  1.0000 0.5444290621
C   C70       1.0  0.58450  0.94490  0.81740  1.0000 0.5444290621
C   C71       1.0  0.26710  0.62750  0.18260  1.0000 0.5444290621
C   C72       1.0  0.08450  0.26710  0.63960  1.0000 0.5444290621
O   O1        1.0  0.03820  0.39040  0.50000  1.0000 -0.0275658499
O   O2        1.0  0.53820  0.03820  0.64780  1.0000 -0.0275658499
O   O3        1.0  0.39040  0.89040  0.35220  1.0000 -0.0275658499
O   O4        1.0  0.89040  0.53820  0.50000  1.0000 -0.0387444958
O   O5        1.0  0.42110  0.49710  0.59680  1.0000 -0.5668152806
O   O6        1.0  0.82430  0.42110  0.92400  1.0000 -0.5668152806
O   O7        1.0  0.40030  0.99710  0.07600  1.0000 -0.5668152806
O   O8        1.0  0.90030  0.82430  0.40320  1.0000 -0.5668152806
O   O9        1.0  0.32430  0.40030  0.40320  1.0000 -0.5668152806
O   O10       1.0  0.49710  0.90030  0.07600  1.0000 -0.5668152806
O   O11       1.0  0.92110  0.32430  0.92400  1.0000 -0.5668152806
O   O12       1.0  0.99710  0.92110  0.59680  1.0000 -0.5668152806
O   O13       1.0  0.36270  0.37520  0.63510  1.0000 -0.5374063047
O   O14       1.0  0.72760  0.36270  0.98750  1.0000 -0.5374063047
O   O15       1.0  0.24010  0.87520  0.01250  1.0000 -0.5374063047
O   O16       1.0  0.74010  0.72760  0.36490  1.0000 -0.5374063047
O   O17       1.0  0.22760  0.24010  0.36490  1.0000 -0.5374063047
O   O18       1.0  0.37520  0.74010  0.01250  1.0000 -0.5374063047
O   O19       1.0  0.86270  0.22760  0.98750  1.0000 -0.5374063047
O   O20       1.0  0.87520  0.86270  0.63510  1.0000 -0.5374063047
O   O21       1.0  0.69590  0.30400  0.72610  1.0000 -0.5224342437
O   O22       1.0  0.96980  0.69590  0.39190  1.0000 -0.5224342437
O   O23       1.0  0.07790  0.80400  0.60810  1.0000 -0.5224342437
O   O24       1.0  0.57790  0.96980  0.27390  1.0000 -0.5224342437
O   O25       1.0  0.46980  0.07790  0.27390  1.0000 -0.5224342437
O   O26       1.0  0.30400  0.57790  0.60810  1.0000 -0.5224342437
O   O27       1.0  0.19590  0.46980  0.39190  1.0000 -0.5224342437
O   O28       1.0  0.80400  0.19590  0.72610  1.0000 -0.5224342437
O   O29       1.0  0.59220  0.29920  0.78560  1.0000 -0.5668152806
O   O30       1.0  0.80660  0.59220  0.29300  1.0000 -0.5668152806
O   O31       1.0  0.01360  0.79920  0.70700  1.0000 -0.5668152806
O   O32       1.0  0.51360  0.80660  0.21440  1.0000 -0.5668152806
O   O33       1.0  0.30660  0.01360  0.21440  1.0000 -0.5646191554
O   O34       1.0  0.29920  0.51360  0.70700  1.0000 -0.5668152806
O   O35       1.0  0.09220  0.30660  0.29300  1.0000 -0.5668152806
O   O36       1.0  0.79920  0.09220  0.78560  1.0000 -0.5668152806
O   O37       1.0  0.83140  0.57260  0.63680  1.0000 -0.3918494301
O   O38       1.0  0.19460  0.83140  0.25880  1.0000 -0.3918494301
O   O39       1.0  0.43580  0.07260  0.74120  1.0000 -0.3918494301
O   O40       1.0  0.93580  0.19460  0.36320  1.0000 -0.3918494301
O   O41       1.0  0.69460  0.43580  0.36320  1.0000 -0.3918494301
O   O42       1.0  0.57260  0.93580  0.74120  1.0000 -0.3918494301
O   O43       1.0  0.33140  0.69460  0.25880  1.0000 -0.3918494301
O   O44       1.0  0.07260  0.33140  0.63680  1.0000 -0.3918494301
O   O45       1.0  0.76480  0.65830  0.63610  1.0000 -0.5308420452
O   O46       1.0  0.12870  0.76480  0.10650  1.0000 -0.5308420452
O   O47       1.0  0.52220  0.15830  0.89350  1.0000 -0.5308420452
O   O48       1.0  0.02220  0.12870  0.36390  1.0000 -0.5308420452
O   O49       1.0  0.62870  0.52220  0.36390  1.0000 -0.5308420452
O   O50       1.0  0.65830  0.02220  0.89350  1.0000 -0.5308420452
O   O51       1.0  0.26480  0.62870  0.10650  1.0000 -0.5308420452
O   O52       1.0  0.15830  0.26480  0.63610  1.0000 -0.5308420452
O   O53       1.0  0.18930  0.36470  0.50000  1.0000 -0.5793622749
O   O54       1.0  0.68930  0.18930  0.82460  1.0000 -0.5793622749
O   O55       1.0  0.36470  0.86470  0.17540  1.0000 -0.5793622749
O   O56       1.0  0.86470  0.68930  0.50000  1.0000 -0.5793622749
O   O57       1.0  0.12810  0.38750  0.56820  1.0000 0.3474327806
O   O58       1.0  0.55990  0.12810  0.74060  1.0000 0.3416789336
O   O59       1.0  0.31930  0.88750  0.25940  1.0000 0.3416789336
O   O60       1.0  0.81930  0.55990  0.43180  1.0000 0.3474327806
O   O61       1.0  0.05990  0.31930  0.43180  1.0000 0.3474327806
O   O62       1.0  0.38750  0.81930  0.25940  1.0000 0.3416789336
O   O63       1.0  0.62810  0.05990  0.74060  1.0000 0.3416789336
O   O64       1.0  0.88750  0.62810  0.56820  1.0000 0.3416789336
