# DDEC6 charges by PACMAN v1.1 (https://github.com/mtap-research/PACMAN-charge/)
data_2001[Cu][nan]3[ASR]2
_chemical_formula_sum              "Cu12 H120 C216 O48"
_cell_length_a       23.3363
_cell_length_b       23.3363
_cell_length_c       23.3363
_cell_angle_alpha    109.471
_cell_angle_beta     109.471
_cell_angle_gamma    109.471

_symmetry_space_group_name_H-M    "P 1"
_symmetry_Int_Tables_number       1

loop_
  _symmetry_equiv_pos_as_xyz
  'x, y, z'

loop_
  _atom_site_type_symbol
  _atom_site_label
  _atom_site_symmetry_multiplicity
  _atom_site_fract_x
  _atom_site_fract_y
  _atom_site_fract_z
  _atom_site_occupancy
  _atom_site_charge
Cu  Cu1       1.0  0.50000  0.14219  0.64219  1.0000 0.8599642387
Cu  Cu2       1.0  0.50000  0.24015  0.74015  1.0000 0.8505899579
Cu  Cu3       1.0  0.50000  0.85781  0.35781  1.0000 0.8599642387
Cu  Cu4       1.0  0.50000  0.75985  0.25985  1.0000 0.8505899579
Cu  Cu5       1.0  0.35781  0.50000  0.85781  1.0000 0.8599642387
Cu  Cu6       1.0  0.25985  0.50000  0.75985  1.0000 0.8505899579
Cu  Cu7       1.0  0.64219  0.50000  0.14219  1.0000 0.8599642387
Cu  Cu8       1.0  0.74015  0.50000  0.24015  1.0000 0.8505899579
Cu  Cu9       1.0  0.85781  0.35781  0.50000  1.0000 0.8599642387
Cu  Cu10      1.0  0.75985  0.25985  0.50000  1.0000 0.8505899579
Cu  Cu11      1.0  0.14219  0.64219  0.50000  1.0000 0.8599642387
Cu  Cu12      1.0  0.24015  0.74015  0.50000  1.0000 0.8505899579
H   H1        1.0  0.52580  0.01820  0.74440  1.0000 0.1305878841
H   H2        1.0  0.55380  0.97810  0.82210  1.0000 0.1218850894
H   H3        1.0  0.55460  0.13340  0.96600  1.0000 0.1105083099
H   H4        1.0  0.52640  0.17460  0.88900  1.0000 0.1218850894
H   H5        1.0  0.51150  0.92210  0.87960  1.0000 0.1105083099
H   H6        1.0  0.27380  0.78140  0.25560  1.0000 0.1305878841
H   H7        1.0  0.15600  0.73170  0.17790  1.0000 0.1218850894
H   H8        1.0  0.16740  0.58860  0.03400  1.0000 0.1105083099
H   H9        1.0  0.28560  0.63740  0.11100  1.0000 0.1218850894
H   H10       1.0  0.04250  0.63190  0.12040  1.0000 0.1105083099
H   H11       1.0  0.72620  0.98180  0.50760  1.0000 0.1305878841
H   H12       1.0  0.84400  0.02190  0.57570  1.0000 0.1218850894
H   H13       1.0  0.83260  0.86660  0.42120  1.0000 0.1105083099
H   H14       1.0  0.71440  0.82540  0.35180  1.0000 0.1218850894
H   H15       1.0  0.95750  0.07790  0.58940  1.0000 0.1105083099
H   H16       1.0  0.47420  0.21860  0.49240  1.0000 0.1305878841
H   H17       1.0  0.44620  0.26830  0.42430  1.0000 0.1218850894
H   H18       1.0  0.44540  0.41140  0.57880  1.0000 0.1105083099
H   H19       1.0  0.47360  0.36260  0.64820  1.0000 0.1218850894
H   H20       1.0  0.48850  0.36810  0.41060  1.0000 0.1105083099
H   H21       1.0  0.50760  0.72620  0.98180  1.0000 0.1305878841
H   H22       1.0  0.57570  0.84400  0.02190  1.0000 0.1218850894
H   H23       1.0  0.42120  0.83260  0.86660  1.0000 0.1105083099
H   H24       1.0  0.35180  0.71440  0.82540  1.0000 0.1218850894
H   H25       1.0  0.58940  0.95750  0.07790  1.0000 0.1105083099
H   H26       1.0  0.49240  0.47420  0.21860  1.0000 0.1305878841
H   H27       1.0  0.42430  0.44620  0.26830  1.0000 0.1218850894
H   H28       1.0  0.57880  0.44540  0.41140  1.0000 0.1105083099
H   H29       1.0  0.64820  0.47360  0.36260  1.0000 0.1218850894
H   H30       1.0  0.41060  0.48850  0.36810  1.0000 0.1105083099
H   H31       1.0  0.74440  0.52580  0.01820  1.0000 0.1305878841
H   H32       1.0  0.82210  0.55380  0.97810  1.0000 0.1218850894
H   H33       1.0  0.96600  0.55460  0.13340  1.0000 0.1105083099
H   H34       1.0  0.88900  0.52640  0.17460  1.0000 0.1218850894
H   H35       1.0  0.87960  0.51150  0.92210  1.0000 0.1105083099
H   H36       1.0  0.25560  0.27380  0.78140  1.0000 0.1305878841
H   H37       1.0  0.17790  0.15600  0.73170  1.0000 0.1218850894
H   H38       1.0  0.03400  0.16740  0.58860  1.0000 0.1105083099
H   H39       1.0  0.11100  0.28560  0.63740  1.0000 0.1218850894
H   H40       1.0  0.12040  0.04250  0.63190  1.0000 0.1105083099
H   H41       1.0  0.78140  0.25560  0.27380  1.0000 0.1305878841
H   H42       1.0  0.73170  0.17790  0.15600  1.0000 0.1218850894
H   H43       1.0  0.58860  0.03400  0.16740  1.0000 0.1105083099
H   H44       1.0  0.63740  0.11100  0.28560  1.0000 0.1218850894
H   H45       1.0  0.63190  0.12040  0.04250  1.0000 0.1105083099
H   H46       1.0  0.01820  0.74440  0.52580  1.0000 0.1305878841
H   H47       1.0  0.97810  0.82210  0.55380  1.0000 0.1218850894
H   H48       1.0  0.13340  0.96600  0.55460  1.0000 0.1105083099
H   H49       1.0  0.17460  0.88900  0.52640  1.0000 0.1218850894
H   H50       1.0  0.92210  0.87960  0.51150  1.0000 0.1105083099
H   H51       1.0  0.21860  0.49240  0.47420  1.0000 0.1305878841
H   H52       1.0  0.26830  0.42430  0.44620  1.0000 0.1218850894
H   H53       1.0  0.41140  0.57880  0.44540  1.0000 0.1105083099
H   H54       1.0  0.36260  0.64820  0.47360  1.0000 0.1218850894
H   H55       1.0  0.36810  0.41060  0.48850  1.0000 0.1105083099
H   H56       1.0  0.98180  0.50760  0.72620  1.0000 0.1305878841
H   H57       1.0  0.02190  0.57570  0.84400  1.0000 0.1218850894
H   H58       1.0  0.86660  0.42120  0.83260  1.0000 0.1105083099
H   H59       1.0  0.82540  0.35180  0.71440  1.0000 0.1218850894
H   H60       1.0  0.07790  0.58940  0.95750  1.0000 0.1105083099
H   H61       1.0  0.47420  0.98180  0.25560  1.0000 0.1305878841
H   H62       1.0  0.44620  0.02190  0.17790  1.0000 0.1218850894
H   H63       1.0  0.44540  0.86660  0.03400  1.0000 0.1105083099
H   H64       1.0  0.47360  0.82540  0.11100  1.0000 0.1218850894
H   H65       1.0  0.48850  0.07790  0.12040  1.0000 0.1105083099
H   H66       1.0  0.72620  0.21860  0.74440  1.0000 0.1305878841
H   H67       1.0  0.84400  0.26830  0.82210  1.0000 0.1218850894
H   H68       1.0  0.83260  0.41140  0.96600  1.0000 0.1105083099
H   H69       1.0  0.71440  0.36260  0.88900  1.0000 0.1218850894
H   H70       1.0  0.95750  0.36810  0.87960  1.0000 0.1105083099
H   H71       1.0  0.27380  0.01820  0.49240  1.0000 0.1305878841
H   H72       1.0  0.15600  0.97810  0.42430  1.0000 0.1218850894
H   H73       1.0  0.16740  0.13340  0.57880  1.0000 0.1105083099
H   H74       1.0  0.28560  0.17460  0.64820  1.0000 0.1218850894
H   H75       1.0  0.04250  0.92210  0.41060  1.0000 0.1105083099
H   H76       1.0  0.52580  0.78140  0.50760  1.0000 0.1305878841
H   H77       1.0  0.55380  0.73170  0.57570  1.0000 0.1218850894
H   H78       1.0  0.55460  0.58860  0.42120  1.0000 0.1105083099
H   H79       1.0  0.52640  0.63740  0.35180  1.0000 0.1218850894
H   H80       1.0  0.51150  0.63190  0.58940  1.0000 0.1105083099
H   H81       1.0  0.49240  0.27380  0.01820  1.0000 0.1305878841
H   H82       1.0  0.42430  0.15600  0.97810  1.0000 0.1218850894
H   H83       1.0  0.57880  0.16740  0.13340  1.0000 0.1105083099
H   H84       1.0  0.64820  0.28560  0.17460  1.0000 0.1218850894
H   H85       1.0  0.41060  0.04250  0.92210  1.0000 0.1105083099
H   H86       1.0  0.50760  0.52580  0.78140  1.0000 0.1305878841
H   H87       1.0  0.57570  0.55380  0.73170  1.0000 0.1218850894
H   H88       1.0  0.42120  0.55460  0.58860  1.0000 0.1105083099
H   H89       1.0  0.35180  0.52640  0.63740  1.0000 0.1218850894
H   H90       1.0  0.58940  0.51150  0.63190  1.0000 0.1105083099
H   H91       1.0  0.25560  0.47420  0.98180  1.0000 0.1305878841
H   H92       1.0  0.17790  0.44620  0.02190  1.0000 0.1218850894
H   H93       1.0  0.03400  0.44540  0.86660  1.0000 0.1105083099
H   H94       1.0  0.11100  0.47360  0.82540  1.0000 0.1218850894
H   H95       1.0  0.12040  0.48850  0.07790  1.0000 0.1105083099
H   H96       1.0  0.74440  0.72620  0.21860  1.0000 0.1305878841
H   H97       1.0  0.82210  0.84400  0.26830  1.0000 0.1218850894
H   H98       1.0  0.96600  0.83260  0.41140  1.0000 0.1105083099
H   H99       1.0  0.88900  0.71440  0.36260  1.0000 0.1218850894
H   H100      1.0  0.87960  0.95750  0.36810  1.0000 0.1105083099
H   H101      1.0  0.21860  0.74440  0.72620  1.0000 0.1305878841
H   H102      1.0  0.26830  0.82210  0.84400  1.0000 0.1218850894
H   H103      1.0  0.41140  0.96600  0.83260  1.0000 0.1105083099
H   H104      1.0  0.36260  0.88900  0.71440  1.0000 0.1218850894
H   H105      1.0  0.36810  0.87960  0.95750  1.0000 0.1105083099
H   H106      1.0  0.98180  0.25560  0.47420  1.0000 0.1305878841
H   H107      1.0  0.02190  0.17790  0.44620  1.0000 0.1218850894
H   H108      1.0  0.86660  0.03400  0.44540  1.0000 0.1105083099
H   H109      1.0  0.82540  0.11100  0.47360  1.0000 0.1218850894
H   H110      1.0  0.07790  0.12040  0.48850  1.0000 0.1105083099
H   H111      1.0  0.78140  0.50760  0.52580  1.0000 0.1305878841
H   H112      1.0  0.73170  0.57570  0.55380  1.0000 0.1218850894
H   H113      1.0  0.58860  0.42120  0.55460  1.0000 0.1105083099
H   H114      1.0  0.63740  0.35180  0.52640  1.0000 0.1218850894
H   H115      1.0  0.63190  0.58940  0.51150  1.0000 0.1105083099
H   H116      1.0  0.01820  0.49240  0.27380  1.0000 0.1305878841
H   H117      1.0  0.97810  0.42430  0.15600  1.0000 0.1218850894
H   H118      1.0  0.13340  0.57880  0.16740  1.0000 0.1105083099
H   H119      1.0  0.17460  0.64820  0.28560  1.0000 0.1218850894
H   H120      1.0  0.92210  0.41060  0.04250  1.0000 0.1105083099
C   C1        1.0  0.50690  0.12990  0.76180  1.0000 0.5771443119
C   C2        1.0  0.52340  0.10060  0.80900  1.0000 -0.0290156657
C   C3        1.0  0.53180  0.04190  0.78970  1.0000 -0.0964538385
C   C4        1.0  0.54880  0.01850  0.83570  1.0000 -0.1537360709
C   C5        1.0  0.55910  0.05450  0.90420  1.0000 0.0740945881
C   C6        1.0  0.54940  0.11010  0.92090  1.0000 -0.1566247379
C   C7        1.0  0.53220  0.13460  0.87520  1.0000 -0.0940159256
C   C8        1.0  0.57280  0.02560  0.95380  1.0000 0.0859893506
C   C9        1.0  0.54170  0.95390  0.92920  1.0000 -0.2013976255
C   C10       1.0  0.36810  0.74510  0.23820  1.0000 0.5771443119
C   C11       1.0  0.29160  0.71440  0.19100  1.0000 -0.0290156657
C   C12       1.0  0.25220  0.74210  0.21030  1.0000 -0.0964538385
C   C13       1.0  0.18280  0.71310  0.16430  1.0000 -0.1537360709
C   C14       1.0  0.15030  0.65490  0.09580  1.0000 0.0740945881
C   C15       1.0  0.18920  0.62850  0.07910  1.0000 -0.1566247379
C   C16       1.0  0.25940  0.65700  0.12480  1.0000 -0.0940159256
C   C17       1.0  0.07180  0.61900  0.04620  1.0000 0.0859893506
C   C18       1.0  0.02470  0.61250  0.07080  1.0000 -0.2013976255
C   C19       1.0  0.63190  0.87010  0.37700  1.0000 0.5771443119
C   C20       1.0  0.70840  0.89940  0.42280  1.0000 -0.0290156657
C   C21       1.0  0.74780  0.95810  0.48990  1.0000 -0.0964538385
C   C22       1.0  0.81720  0.98150  0.53030  1.0000 -0.1537360709
C   C23       1.0  0.84970  0.94550  0.50460  1.0000 0.0740945881
C   C24       1.0  0.81080  0.88990  0.43930  1.0000 -0.1566247379
C   C25       1.0  0.74060  0.86540  0.39760  1.0000 -0.0940159256
C   C26       1.0  0.92820  0.97440  0.54720  1.0000 0.0859893506
C   C27       1.0  0.97530  0.04610  0.58780  1.0000 -0.2013976255
C   C28       1.0  0.49310  0.25490  0.62300  1.0000 0.5771443119
C   C29       1.0  0.47660  0.28560  0.57720  1.0000 -0.0290156657
C   C30       1.0  0.46820  0.25790  0.51010  1.0000 -0.0964538385
C   C31       1.0  0.45120  0.28690  0.46970  1.0000 -0.1537360709
C   C32       1.0  0.44090  0.34510  0.49540  1.0000 0.0740945881
C   C33       1.0  0.45060  0.37150  0.56070  1.0000 -0.1566247379
C   C34       1.0  0.46780  0.34300  0.60240  1.0000 -0.0940159256
C   C35       1.0  0.42720  0.38100  0.45280  1.0000 0.0859893506
C   C36       1.0  0.45830  0.38750  0.41220  1.0000 -0.2013976255
C   C37       1.0  0.37700  0.63190  0.87010  1.0000 0.5771443119
C   C38       1.0  0.42280  0.70840  0.89940  1.0000 -0.0290156657
C   C39       1.0  0.48990  0.74780  0.95810  1.0000 -0.0964538385
C   C40       1.0  0.53030  0.81720  0.98150  1.0000 -0.1537360709
C   C41       1.0  0.50460  0.84970  0.94550  1.0000 0.0740945881
C   C42       1.0  0.43930  0.81080  0.88990  1.0000 -0.1566247379
C   C43       1.0  0.39760  0.74060  0.86540  1.0000 -0.0940159256
C   C44       1.0  0.54720  0.92820  0.97440  1.0000 0.0859893506
C   C45       1.0  0.58780  0.97530  0.04610  1.0000 -0.2013976255
C   C46       1.0  0.62300  0.49310  0.25490  1.0000 0.5771443119
C   C47       1.0  0.57720  0.47660  0.28560  1.0000 -0.0290156657
C   C48       1.0  0.51010  0.46820  0.25790  1.0000 -0.0964538385
C   C49       1.0  0.46970  0.45120  0.28690  1.0000 -0.1537360709
C   C50       1.0  0.49540  0.44090  0.34510  1.0000 0.0740945881
C   C51       1.0  0.56070  0.45060  0.37150  1.0000 -0.1566247379
C   C52       1.0  0.60240  0.46780  0.34300  1.0000 -0.0940159256
C   C53       1.0  0.45280  0.42720  0.38100  1.0000 0.0859893506
C   C54       1.0  0.41220  0.45830  0.38750  1.0000 -0.2013976255
C   C55       1.0  0.76180  0.50690  0.12990  1.0000 0.5771443119
C   C56       1.0  0.80900  0.52340  0.10060  1.0000 -0.0290156657
C   C57       1.0  0.78970  0.53180  0.04190  1.0000 -0.0964538385
C   C58       1.0  0.83570  0.54880  0.01850  1.0000 -0.1537360709
C   C59       1.0  0.90420  0.55910  0.05450  1.0000 0.0740945881
C   C60       1.0  0.92090  0.54940  0.11010  1.0000 -0.1566247379
C   C61       1.0  0.87520  0.53220  0.13460  1.0000 -0.0940159256
C   C62       1.0  0.95380  0.57280  0.02560  1.0000 0.0859893506
C   C63       1.0  0.92920  0.54170  0.95390  1.0000 -0.2013976255
C   C64       1.0  0.23820  0.36810  0.74510  1.0000 0.5771443119
C   C65       1.0  0.19100  0.29160  0.71440  1.0000 -0.0290156657
C   C66       1.0  0.21030  0.25220  0.74210  1.0000 -0.0964538385
C   C67       1.0  0.16430  0.18280  0.71310  1.0000 -0.1537360709
C   C68       1.0  0.09580  0.15030  0.65490  1.0000 0.0740945881
C   C69       1.0  0.07910  0.18920  0.62850  1.0000 -0.1566247379
C   C70       1.0  0.12480  0.25940  0.65700  1.0000 -0.0940159256
C   C71       1.0  0.04620  0.07180  0.61900  1.0000 0.0859893506
C   C72       1.0  0.07080  0.02470  0.61250  1.0000 -0.2013976255
C   C73       1.0  0.74510  0.23820  0.36810  1.0000 0.5771443119
C   C74       1.0  0.71440  0.19100  0.29160  1.0000 -0.0290156657
C   C75       1.0  0.74210  0.21030  0.25220  1.0000 -0.0964538385
C   C76       1.0  0.71310  0.16430  0.18280  1.0000 -0.1537360709
C   C77       1.0  0.65490  0.09580  0.15030  1.0000 0.0740945881
C   C78       1.0  0.62850  0.07910  0.18920  1.0000 -0.1566247379
C   C79       1.0  0.65700  0.12480  0.25940  1.0000 -0.0940159256
C   C80       1.0  0.61900  0.04620  0.07180  1.0000 0.0859893506
C   C81       1.0  0.61250  0.07080  0.02470  1.0000 -0.2013976255
C   C82       1.0  0.12990  0.76180  0.50690  1.0000 0.5771443119
C   C83       1.0  0.10060  0.80900  0.52340  1.0000 -0.0290156657
C   C84       1.0  0.04190  0.78970  0.53180  1.0000 -0.0964538385
C   C85       1.0  0.01850  0.83570  0.54880  1.0000 -0.1537360709
C   C86       1.0  0.05450  0.90420  0.55910  1.0000 0.0740945881
C   C87       1.0  0.11010  0.92090  0.54940  1.0000 -0.1566247379
C   C88       1.0  0.13460  0.87520  0.53220  1.0000 -0.0940159256
C   C89       1.0  0.02560  0.95380  0.57280  1.0000 0.0859893506
C   C90       1.0  0.95390  0.92920  0.54170  1.0000 -0.2013976255
C   C91       1.0  0.25490  0.62300  0.49310  1.0000 0.5771443119
C   C92       1.0  0.28560  0.57720  0.47660  1.0000 -0.0290156657
C   C93       1.0  0.25790  0.51010  0.46820  1.0000 -0.0964538385
C   C94       1.0  0.28690  0.46970  0.45120  1.0000 -0.1537360709
C   C95       1.0  0.34510  0.49540  0.44090  1.0000 0.0740945881
C   C96       1.0  0.37150  0.56070  0.45060  1.0000 -0.1566247379
C   C97       1.0  0.34300  0.60240  0.46780  1.0000 -0.0940159256
C   C98       1.0  0.38100  0.45280  0.42720  1.0000 0.0859893506
C   C99       1.0  0.38750  0.41220  0.45830  1.0000 -0.2013976255
C   C100      1.0  0.87010  0.37700  0.63190  1.0000 0.5771443119
C   C101      1.0  0.89940  0.42280  0.70840  1.0000 -0.0290156657
C   C102      1.0  0.95810  0.48990  0.74780  1.0000 -0.0964538385
C   C103      1.0  0.98150  0.53030  0.81720  1.0000 -0.1537360709
C   C104      1.0  0.94550  0.50460  0.84970  1.0000 0.0740945881
C   C105      1.0  0.88990  0.43930  0.81080  1.0000 -0.1566247379
C   C106      1.0  0.86540  0.39760  0.74060  1.0000 -0.0940159256
C   C107      1.0  0.97440  0.54720  0.92820  1.0000 0.0859893506
C   C108      1.0  0.04610  0.58780  0.97530  1.0000 -0.2013976255
C   C109      1.0  0.49310  0.87010  0.23820  1.0000 0.5771443119
C   C110      1.0  0.47660  0.89940  0.19100  1.0000 -0.0290156657
C   C111      1.0  0.46820  0.95810  0.21030  1.0000 -0.0964538385
C   C112      1.0  0.45120  0.98150  0.16430  1.0000 -0.1537360709
C   C113      1.0  0.44090  0.94550  0.09580  1.0000 0.0740945881
C   C114      1.0  0.45060  0.88990  0.07910  1.0000 -0.1566247379
C   C115      1.0  0.46780  0.86540  0.12480  1.0000 -0.0940159256
C   C116      1.0  0.42720  0.97440  0.04620  1.0000 0.0859893506
C   C117      1.0  0.45830  0.04610  0.07080  1.0000 -0.2013976255
C   C118      1.0  0.63190  0.25490  0.76180  1.0000 0.5771443119
C   C119      1.0  0.70840  0.28560  0.80900  1.0000 -0.0290156657
C   C120      1.0  0.74780  0.25790  0.78970  1.0000 -0.0964538385
C   C121      1.0  0.81720  0.28690  0.83570  1.0000 -0.1537360709
C   C122      1.0  0.84970  0.34510  0.90420  1.0000 0.0740945881
C   C123      1.0  0.81080  0.37150  0.92090  1.0000 -0.1566247379
C   C124      1.0  0.74060  0.34300  0.87520  1.0000 -0.0940159256
C   C125      1.0  0.92820  0.38100  0.95380  1.0000 0.0859893506
C   C126      1.0  0.97530  0.38750  0.92920  1.0000 -0.2013976255
C   C127      1.0  0.36810  0.12990  0.62300  1.0000 0.5771443119
C   C128      1.0  0.29160  0.10060  0.57720  1.0000 -0.0290156657
C   C129      1.0  0.25220  0.04190  0.51010  1.0000 -0.0964538385
C   C130      1.0  0.18280  0.01850  0.46970  1.0000 -0.1537360709
C   C131      1.0  0.15030  0.05450  0.49540  1.0000 0.0740945881
C   C132      1.0  0.18920  0.11010  0.56070  1.0000 -0.1566247379
C   C133      1.0  0.25940  0.13460  0.60240  1.0000 -0.0940159256
C   C134      1.0  0.07180  0.02560  0.45280  1.0000 0.0859893506
C   C135      1.0  0.02470  0.95390  0.41220  1.0000 -0.2013976255
C   C136      1.0  0.50690  0.74510  0.37700  1.0000 0.5771443119
C   C137      1.0  0.52340  0.71440  0.42280  1.0000 -0.0290156657
C   C138      1.0  0.53180  0.74210  0.48990  1.0000 -0.0964538385
C   C139      1.0  0.54880  0.71310  0.53030  1.0000 -0.1537360709
C   C140      1.0  0.55910  0.65490  0.50460  1.0000 0.0740945881
C   C141      1.0  0.54940  0.62850  0.43930  1.0000 -0.1566247379
C   C142      1.0  0.53220  0.65700  0.39760  1.0000 -0.0940159256
C   C143      1.0  0.57280  0.61900  0.54720  1.0000 0.0859893506
C   C144      1.0  0.54170  0.61250  0.58780  1.0000 -0.2013976255
C   C145      1.0  0.62300  0.36810  0.12990  1.0000 0.5771443119
C   C146      1.0  0.57720  0.29160  0.10060  1.0000 -0.0290156657
C   C147      1.0  0.51010  0.25220  0.04190  1.0000 -0.0964538385
C   C148      1.0  0.46970  0.18280  0.01850  1.0000 -0.1537360709
C   C149      1.0  0.49540  0.15030  0.05450  1.0000 0.0740945881
C   C150      1.0  0.56070  0.18920  0.11010  1.0000 -0.1566247379
C   C151      1.0  0.60240  0.25940  0.13460  1.0000 -0.0940159256
C   C152      1.0  0.45280  0.07180  0.02560  1.0000 0.0859893506
C   C153      1.0  0.41220  0.02470  0.95390  1.0000 -0.2013976255
C   C154      1.0  0.37700  0.50690  0.74510  1.0000 0.5771443119
C   C155      1.0  0.42280  0.52340  0.71440  1.0000 -0.0290156657
C   C156      1.0  0.48990  0.53180  0.74210  1.0000 -0.0964538385
C   C157      1.0  0.53030  0.54880  0.71310  1.0000 -0.1537360709
C   C158      1.0  0.50460  0.55910  0.65490  1.0000 0.0740945881
C   C159      1.0  0.43930  0.54940  0.62850  1.0000 -0.1566247379
C   C160      1.0  0.39760  0.53220  0.65700  1.0000 -0.0940159256
C   C161      1.0  0.54720  0.57280  0.61900  1.0000 0.0859893506
C   C162      1.0  0.58780  0.54170  0.61250  1.0000 -0.2013976255
C   C163      1.0  0.23820  0.49310  0.87010  1.0000 0.5771443119
C   C164      1.0  0.19100  0.47660  0.89940  1.0000 -0.0290156657
C   C165      1.0  0.21030  0.46820  0.95810  1.0000 -0.0964538385
C   C166      1.0  0.16430  0.45120  0.98150  1.0000 -0.1537360709
C   C167      1.0  0.09580  0.44090  0.94550  1.0000 0.0740945881
C   C168      1.0  0.07910  0.45060  0.88990  1.0000 -0.1566247379
C   C169      1.0  0.12480  0.46780  0.86540  1.0000 -0.0940159256
C   C170      1.0  0.04620  0.42720  0.97440  1.0000 0.0859893506
C   C171      1.0  0.07080  0.45830  0.04610  1.0000 -0.2013976255
C   C172      1.0  0.76180  0.63190  0.25490  1.0000 0.5771443119
C   C173      1.0  0.80900  0.70840  0.28560  1.0000 -0.0290156657
C   C174      1.0  0.78970  0.74780  0.25790  1.0000 -0.0964538385
C   C175      1.0  0.83570  0.81720  0.28690  1.0000 -0.1537360709
C   C176      1.0  0.90420  0.84970  0.34510  1.0000 0.0740945881
C   C177      1.0  0.92090  0.81080  0.37150  1.0000 -0.1566247379
C   C178      1.0  0.87520  0.74060  0.34300  1.0000 -0.0940159256
C   C179      1.0  0.95380  0.92820  0.38100  1.0000 0.0859893506
C   C180      1.0  0.92920  0.97530  0.38750  1.0000 -0.2013976255
C   C181      1.0  0.25490  0.76180  0.63190  1.0000 0.5771443119
C   C182      1.0  0.28560  0.80900  0.70840  1.0000 -0.0290156657
C   C183      1.0  0.25790  0.78970  0.74780  1.0000 -0.0964538385
C   C184      1.0  0.28690  0.83570  0.81720  1.0000 -0.1537360709
C   C185      1.0  0.34510  0.90420  0.84970  1.0000 0.0740945881
C   C186      1.0  0.37150  0.92090  0.81080  1.0000 -0.1566247379
C   C187      1.0  0.34300  0.87520  0.74060  1.0000 -0.0940159256
C   C188      1.0  0.38100  0.95380  0.92820  1.0000 0.0859893506
C   C189      1.0  0.38750  0.92920  0.97530  1.0000 -0.2013976255
C   C190      1.0  0.87010  0.23820  0.49310  1.0000 0.5771443119
C   C191      1.0  0.89940  0.19100  0.47660  1.0000 -0.0290156657
C   C192      1.0  0.95810  0.21030  0.46820  1.0000 -0.0964538385
C   C193      1.0  0.98150  0.16430  0.45120  1.0000 -0.1537360709
C   C194      1.0  0.94550  0.09580  0.44090  1.0000 0.0740945881
C   C195      1.0  0.88990  0.07910  0.45060  1.0000 -0.1566247379
C   C196      1.0  0.86540  0.12480  0.46780  1.0000 -0.0940159256
C   C197      1.0  0.97440  0.04620  0.42720  1.0000 0.0859893506
C   C198      1.0  0.04610  0.07080  0.45830  1.0000 -0.2013976255
C   C199      1.0  0.74510  0.37700  0.50690  1.0000 0.5771443119
C   C200      1.0  0.71440  0.42280  0.52340  1.0000 -0.0290156657
C   C201      1.0  0.74210  0.48990  0.53180  1.0000 -0.0964538385
C   C202      1.0  0.71310  0.53030  0.54880  1.0000 -0.1537360709
C   C203      1.0  0.65490  0.50460  0.55910  1.0000 0.0740945881
C   C204      1.0  0.62850  0.43930  0.54940  1.0000 -0.1566247379
C   C205      1.0  0.65700  0.39760  0.53220  1.0000 -0.0940159256
C   C206      1.0  0.61900  0.54720  0.57280  1.0000 0.0859893506
C   C207      1.0  0.61250  0.58780  0.54170  1.0000 -0.2013976255
C   C208      1.0  0.12990  0.62300  0.36810  1.0000 0.5771443119
C   C209      1.0  0.10060  0.57720  0.29160  1.0000 -0.0290156657
C   C210      1.0  0.04190  0.51010  0.25220  1.0000 -0.0964538385
C   C211      1.0  0.01850  0.46970  0.18280  1.0000 -0.1537360709
C   C212      1.0  0.05450  0.49540  0.15030  1.0000 0.0740945881
C   C213      1.0  0.11010  0.56070  0.18920  1.0000 -0.1566247379
C   C214      1.0  0.13460  0.60240  0.25940  1.0000 -0.0940159256
C   C215      1.0  0.02560  0.45280  0.07180  1.0000 0.0859893506
C   C216      1.0  0.95390  0.41220  0.02470  1.0000 -0.2013976255
O   O1        1.0  0.50152  0.09918  0.70236  1.0000 -0.5220702047
O   O2        1.0  0.50112  0.18253  0.78385  1.0000 -0.5069274137
O   O3        1.0  0.39682  0.79916  0.29764  1.0000 -0.5220702047
O   O4        1.0  0.39868  0.71727  0.21615  1.0000 -0.5069274137
O   O5        1.0  0.60318  0.90082  0.40234  1.0000 -0.5220702047
O   O6        1.0  0.60132  0.81747  0.31859  1.0000 -0.5069274137
O   O7        1.0  0.49848  0.20084  0.59766  1.0000 -0.5220702047
O   O8        1.0  0.49888  0.28273  0.68141  1.0000 -0.5069274137
O   O9        1.0  0.40234  0.60318  0.90082  1.0000 -0.5220702047
O   O10       1.0  0.31859  0.60132  0.81747  1.0000 -0.5069274137
O   O11       1.0  0.59766  0.49848  0.20084  1.0000 -0.5220702047
O   O12       1.0  0.68141  0.49888  0.28273  1.0000 -0.5069274137
O   O13       1.0  0.70236  0.50152  0.09918  1.0000 -0.5220702047
O   O14       1.0  0.78385  0.50112  0.18253  1.0000 -0.5069274137
O   O15       1.0  0.29764  0.39682  0.79916  1.0000 -0.5220702047
O   O16       1.0  0.21615  0.39868  0.71727  1.0000 -0.5069274137
O   O17       1.0  0.79916  0.29764  0.39682  1.0000 -0.5220702047
O   O18       1.0  0.71727  0.21615  0.39868  1.0000 -0.5069274137
O   O19       1.0  0.09918  0.70236  0.50152  1.0000 -0.5220702047
O   O20       1.0  0.18253  0.78385  0.50112  1.0000 -0.5069274137
O   O21       1.0  0.20084  0.59766  0.49848  1.0000 -0.5220702047
O   O22       1.0  0.28273  0.68141  0.49888  1.0000 -0.5069274137
O   O23       1.0  0.90082  0.40234  0.60318  1.0000 -0.5220702047
O   O24       1.0  0.81747  0.31859  0.60132  1.0000 -0.5069274137
O   O25       1.0  0.49848  0.90082  0.29764  1.0000 -0.5220702047
O   O26       1.0  0.49888  0.81747  0.21615  1.0000 -0.5069274137
O   O27       1.0  0.60318  0.20084  0.70236  1.0000 -0.5220702047
O   O28       1.0  0.60132  0.28273  0.78385  1.0000 -0.5069274137
O   O29       1.0  0.39682  0.09918  0.59766  1.0000 -0.5220702047
O   O30       1.0  0.39868  0.18253  0.68141  1.0000 -0.5069274137
O   O31       1.0  0.50152  0.79916  0.40234  1.0000 -0.5220702047
O   O32       1.0  0.50112  0.71727  0.31859  1.0000 -0.5069274137
O   O33       1.0  0.59766  0.39682  0.09918  1.0000 -0.5220702047
O   O34       1.0  0.68141  0.39868  0.18253  1.0000 -0.5069274137
O   O35       1.0  0.40234  0.50152  0.79916  1.0000 -0.5220702047
O   O36       1.0  0.31859  0.50112  0.71727  1.0000 -0.5069274137
O   O37       1.0  0.29764  0.49848  0.90082  1.0000 -0.5220702047
O   O38       1.0  0.21615  0.49888  0.81747  1.0000 -0.5069274137
O   O39       1.0  0.70236  0.60318  0.20084  1.0000 -0.5220702047
O   O40       1.0  0.78385  0.60132  0.28273  1.0000 -0.5069274137
O   O41       1.0  0.20084  0.70236  0.60318  1.0000 -0.5220702047
O   O42       1.0  0.28273  0.78385  0.60132  1.0000 -0.5069274137
O   O43       1.0  0.90082  0.29764  0.49848  1.0000 -0.5220702047
O   O44       1.0  0.81747  0.21615  0.49888  1.0000 -0.5069274137
O   O45       1.0  0.79916  0.40234  0.50152  1.0000 -0.5220702047
O   O46       1.0  0.71727  0.31859  0.50112  1.0000 -0.5069274137
O   O47       1.0  0.09918  0.59766  0.39682  1.0000 -0.5220702047
O   O48       1.0  0.18253  0.68141  0.39868  1.0000 -0.5069274137
