# DDEC6 charges by PACMAN v1.1 (https://github.com/mtap-research/PACMAN-charge/)
data_2001[Ni][nan]3[ASR]1
_chemical_formula_sum              "Ni6 H84 C96 N24 O24"
_cell_length_a       13.1698
_cell_length_b       19.1965
_cell_length_c       17.5866
_cell_angle_alpha    90
_cell_angle_beta     116.121
_cell_angle_gamma    90

_symmetry_space_group_name_H-M    "P 1"
_symmetry_Int_Tables_number       1

loop_
  _symmetry_equiv_pos_as_xyz
  'x, y, z'

loop_
  _atom_site_type_symbol
  _atom_site_label
  _atom_site_symmetry_multiplicity
  _atom_site_fract_x
  _atom_site_fract_y
  _atom_site_fract_z
  _atom_site_occupancy
  _atom_site_charge
Ni  Ni1       1.0  0.06540  0.22617  0.52787  1.0000 0.6901312675
Ni  Ni2       1.0  0.93460  0.72617  0.97213  1.0000 0.6901312675
Ni  Ni3       1.0  0.93460  0.77383  0.47213  1.0000 0.6901312675
Ni  Ni4       1.0  0.06540  0.27383  0.02787  1.0000 0.6901312675
Ni  Ni5       1.0  0.50000  0.00000  0.50000  1.0000 0.6901312675
Ni  Ni6       1.0  0.50000  0.50000  0.00000  1.0000 0.6901312675
H   H1        1.0  0.79300  0.11490  0.58710  1.0000 0.1194362271
H   H2        1.0  0.20700  0.61490  0.91290  1.0000 0.1194362271
H   H3        1.0  0.20700  0.88510  0.41290  1.0000 0.1194362271
H   H4        1.0  0.79300  0.38510  0.08710  1.0000 0.1194362271
H   H5        1.0  0.01020  0.24630  0.76480  1.0000 0.1108944571
H   H6        1.0  0.98980  0.74630  0.73520  1.0000 0.1108944571
H   H7        1.0  0.98980  0.75370  0.23520  1.0000 0.1194362271
H   H8        1.0  0.01020  0.25370  0.26480  1.0000 0.1194362271
H   H9        1.0  0.78010  0.13810  0.81210  1.0000 0.1194362271
H   H10       1.0  0.21990  0.63810  0.68790  1.0000 0.1194362271
H   H11       1.0  0.21990  0.86190  0.18790  1.0000 0.1194362271
H   H12       1.0  0.78010  0.36190  0.31210  1.0000 0.1194362271
H   H13       1.0  0.26360  0.05340  0.37510  1.0000 0.1108944571
H   H14       1.0  0.73640  0.55340  0.12490  1.0000 0.1108944571
H   H15       1.0  0.73640  0.94660  0.62490  1.0000 0.1108944571
H   H16       1.0  0.26360  0.44660  0.87510  1.0000 0.1108944571
H   H17       1.0  0.17820  0.14920  0.29560  1.0000 0.1488629427
H   H18       1.0  0.82180  0.64920  0.20440  1.0000 0.1488629427
H   H19       1.0  0.82180  0.85080  0.70440  1.0000 0.1488629427
H   H20       1.0  0.17820  0.35080  0.79560  1.0000 0.1488629427
H   H21       1.0  0.47340  0.25430  0.41650  1.0000 0.1194362271
H   H22       1.0  0.52660  0.75430  0.08350  1.0000 0.1194362271
H   H23       1.0  0.52660  0.74570  0.58350  1.0000 0.1194362271
H   H24       1.0  0.47340  0.24570  0.91650  1.0000 0.1194362271
H   H25       1.0  0.55010  0.15470  0.49260  1.0000 0.1108944571
H   H26       1.0  0.44990  0.65470  0.00740  1.0000 0.1108944571
H   H27       1.0  0.44990  0.84530  0.50740  1.0000 0.1108944571
H   H28       1.0  0.55010  0.34530  0.99260  1.0000 0.1108944571
H   H29       1.0  0.17910  0.35230  0.63850  1.0000 0.1194362271
H   H30       1.0  0.82090  0.85230  0.86150  1.0000 0.1194362271
H   H31       1.0  0.82090  0.64770  0.36150  1.0000 0.1194362271
H   H32       1.0  0.17910  0.14770  0.13850  1.0000 0.1194362271
H   H33       1.0  0.30030  0.44020  0.64680  1.0000 0.1488629427
H   H34       1.0  0.69970  0.94020  0.85320  1.0000 0.1488629427
H   H35       1.0  0.69970  0.55980  0.35320  1.0000 0.1488629427
H   H36       1.0  0.30030  0.05980  0.14680  1.0000 0.1488629427
H   H37       1.0  0.33230  0.35290  0.44860  1.0000 0.1194362271
H   H38       1.0  0.66770  0.85290  0.05140  1.0000 0.1194362271
H   H39       1.0  0.66770  0.64710  0.55140  1.0000 0.1194362271
H   H40       1.0  0.33230  0.14710  0.94860  1.0000 0.1194362271
H   H41       1.0  0.21100  0.26650  0.44690  1.0000 0.1108944571
H   H42       1.0  0.78900  0.76650  0.05310  1.0000 0.1108944571
H   H43       1.0  0.78900  0.73350  0.55310  1.0000 0.1108944571
H   H44       1.0  0.21100  0.23350  0.94690  1.0000 0.1108944571
H   H45       1.0  0.31630  0.20090  0.63790  1.0000 0.1008842473
H   H46       1.0  0.68370  0.70090  0.86210  1.0000 0.1008842473
H   H47       1.0  0.68370  0.79910  0.36210  1.0000 0.1008842473
H   H48       1.0  0.31630  0.29910  0.13790  1.0000 0.1008842473
H   H49       1.0  0.45030  0.11820  0.65290  1.0000 0.1488629427
H   H50       1.0  0.54970  0.61820  0.84710  1.0000 0.1488629427
H   H51       1.0  0.54970  0.88180  0.34710  1.0000 0.1488629427
H   H52       1.0  0.45030  0.38180  0.15290  1.0000 0.1488629427
H   H53       1.0  0.19660  0.98820  0.50750  1.0000 0.1488629427
H   H54       1.0  0.80340  0.48820  0.99250  1.0000 0.1488629427
H   H55       1.0  0.80340  0.01180  0.49250  1.0000 0.1488629427
H   H56       1.0  0.19660  0.51180  0.00750  1.0000 0.1488629427
H   H57       1.0  0.07000  0.07570  0.49490  1.0000 0.1194362271
H   H58       1.0  0.93000  0.57570  0.00510  1.0000 0.1194362271
H   H59       1.0  0.93000  0.92430  0.50510  1.0000 0.1194362271
H   H60       1.0  0.07000  0.42430  0.99490  1.0000 0.1194362271
H   H61       1.0  0.20200  0.26900  0.25300  1.0000 0.3168848163
H   H62       1.0  0.79800  0.76900  0.24700  1.0000 0.3168848163
H   H63       1.0  0.79800  0.73100  0.74700  1.0000 0.3168848163
H   H64       1.0  0.20200  0.23100  0.75300  1.0000 0.3168848163
H   H65       1.0  0.31200  0.30600  0.31000  1.0000 0.2977544522
H   H66       1.0  0.68800  0.80600  0.19000  1.0000 0.2977544522
H   H67       1.0  0.68800  0.69400  0.69000  1.0000 0.2977544522
H   H68       1.0  0.31200  0.19400  0.81000  1.0000 0.2977544522
H   H69       1.0  0.40300  0.49200  0.58100  1.0000 0.2977544522
H   H70       1.0  0.59700  0.99200  0.91900  1.0000 0.2977544522
H   H71       1.0  0.59700  0.50800  0.41900  1.0000 0.2977544522
H   H72       1.0  0.40300  0.00800  0.08100  1.0000 0.2977544522
H   H73       1.0  0.42500  0.45600  0.51000  1.0000 0.2741937196
H   H74       1.0  0.57500  0.95600  0.99000  1.0000 0.2741937196
H   H75       1.0  0.57500  0.54400  0.49000  1.0000 0.2741937196
H   H76       1.0  0.42500  0.04400  0.01000  1.0000 0.2741937196
H   H77       1.0  0.48100  0.99600  0.63800  1.0000 0.3111419982
H   H78       1.0  0.51900  0.49600  0.86200  1.0000 0.3111419982
H   H79       1.0  0.51900  0.00400  0.36200  1.0000 0.3111419982
H   H80       1.0  0.48100  0.50400  0.13800  1.0000 0.3111419982
H   H81       1.0  0.38700  0.95100  0.58500  1.0000 0.2977544522
H   H82       1.0  0.61300  0.45100  0.91500  1.0000 0.2977544522
H   H83       1.0  0.61300  0.04900  0.41500  1.0000 0.2977544522
H   H84       1.0  0.38700  0.54900  0.08500  1.0000 0.2977544522
C   C1        1.0  0.66920  0.07220  0.66190  1.0000 0.5419739714
C   C2        1.0  0.33080  0.57220  0.83810  1.0000 0.5419739714
C   C3        1.0  0.33080  0.92780  0.33810  1.0000 0.5419739714
C   C4        1.0  0.66920  0.42780  0.16190  1.0000 0.5419739714
C   C5        1.0  0.76870  0.12090  0.69410  1.0000 -0.0291072518
C   C6        1.0  0.23130  0.62090  0.80590  1.0000 -0.0291072518
C   C7        1.0  0.23130  0.87910  0.30590  1.0000 -0.0291072518
C   C8        1.0  0.76870  0.37910  0.19410  1.0000 -0.0291072518
C   C9        1.0  0.82020  0.13590  0.64150  1.0000 -0.1270166257
C   C10       1.0  0.17980  0.63590  0.85850  1.0000 -0.1270166257
C   C11       1.0  0.17980  0.86410  0.35850  1.0000 -0.1270166257
C   C12       1.0  0.82020  0.36410  0.14150  1.0000 -0.1270166257
C   C13       1.0  0.91170  0.18170  0.66880  1.0000 -0.0291072518
C   C14       1.0  0.08830  0.68170  0.83120  1.0000 -0.0291072518
C   C15       1.0  0.08830  0.81830  0.33120  1.0000 -0.0291072518
C   C16       1.0  0.91170  0.31830  0.16880  1.0000 -0.0291072518
C   C17       1.0  0.96970  0.19500  0.61440  1.0000 0.5419739714
C   C18       1.0  0.03030  0.69500  0.88560  1.0000 0.5419739714
C   C19       1.0  0.03030  0.80500  0.38560  1.0000 0.5419739714
C   C20       1.0  0.96970  0.30500  0.11440  1.0000 0.5419739714
C   C21       1.0  0.94970  0.21380  0.74710  1.0000 -0.1239083403
C   C22       1.0  0.05030  0.71380  0.75290  1.0000 -0.1239083403
C   C23       1.0  0.05030  0.78620  0.25290  1.0000 -0.1239083403
C   C24       1.0  0.94970  0.28620  0.24710  1.0000 -0.1239083403
C   C25       1.0  0.89910  0.19830  0.79980  1.0000 -0.0141865032
C   C26       1.0  0.10090  0.69830  0.70020  1.0000 -0.0141865032
C   C27       1.0  0.10090  0.80170  0.20020  1.0000 -0.0141865032
C   C28       1.0  0.89910  0.30170  0.29980  1.0000 -0.0141865032
C   C29       1.0  0.94840  0.23110  0.88530  1.0000 0.5323852307
C   C30       1.0  0.05160  0.73110  0.61470  1.0000 0.5323852307
C   C31       1.0  0.05160  0.76890  0.11470  1.0000 0.5323852307
C   C32       1.0  0.94840  0.26890  0.38530  1.0000 0.5323852307
C   C33       1.0  0.81130  0.15060  0.77450  1.0000 -0.1057834023
C   C34       1.0  0.18870  0.65060  0.72550  1.0000 -0.1048630023
C   C35       1.0  0.18870  0.84940  0.22550  1.0000 -0.1048630023
C   C36       1.0  0.81130  0.34940  0.27450  1.0000 -0.1057834023
C   C37       1.0  0.30750  0.09440  0.38280  1.0000 0.0881044796
C   C38       1.0  0.69250  0.59440  0.11720  1.0000 0.0881044796
C   C39       1.0  0.69250  0.90560  0.61720  1.0000 0.0881044796
C   C40       1.0  0.30750  0.40560  0.88280  1.0000 0.0881044796
C   C41       1.0  0.25580  0.15150  0.33500  1.0000 -0.2700408244
C   C42       1.0  0.74420  0.65150  0.16500  1.0000 -0.2700408244
C   C43       1.0  0.74420  0.84850  0.66500  1.0000 -0.2700408244
C   C44       1.0  0.25580  0.34850  0.83500  1.0000 -0.2700408244
C   C45       1.0  0.31590  0.21320  0.34350  1.0000 0.3111419982
C   C46       1.0  0.68410  0.71320  0.15650  1.0000 0.3111419982
C   C47       1.0  0.68410  0.78680  0.65650  1.0000 0.3111419982
C   C48       1.0  0.31590  0.28680  0.84350  1.0000 0.3111419982
C   C49       1.0  0.42870  0.21330  0.40570  1.0000 -0.2830296823
C   C50       1.0  0.57130  0.71330  0.09430  1.0000 -0.2830296823
C   C51       1.0  0.57130  0.78670  0.59430  1.0000 -0.2830296823
C   C52       1.0  0.42870  0.28670  0.90570  1.0000 -0.2830296823
C   C53       1.0  0.47350  0.15330  0.45080  1.0000 0.072119637
C   C54       1.0  0.52650  0.65330  0.04920  1.0000 0.072119637
C   C55       1.0  0.52650  0.84670  0.54920  1.0000 0.072119637
C   C56       1.0  0.47350  0.34670  0.95080  1.0000 0.072119637
C   C57       1.0  0.21060  0.35270  0.59920  1.0000 0.0881044796
C   C58       1.0  0.78940  0.85270  0.90080  1.0000 0.0881044796
C   C59       1.0  0.78940  0.64730  0.40080  1.0000 0.0881044796
C   C60       1.0  0.21060  0.14730  0.09920  1.0000 0.0881044796
C   C61       1.0  0.28270  0.40520  0.60480  1.0000 -0.2502748979
C   C62       1.0  0.71730  0.90520  0.89520  1.0000 -0.2502748979
C   C63       1.0  0.71730  0.59480  0.39520  1.0000 -0.2502748979
C   C64       1.0  0.28270  0.09480  0.10480  1.0000 -0.2502748979
C   C65       1.0  0.33080  0.40710  0.54760  1.0000 0.3252520567
C   C66       1.0  0.66920  0.90710  0.95240  1.0000 0.3252520567
C   C67       1.0  0.66920  0.59290  0.45240  1.0000 0.3252520567
C   C68       1.0  0.33080  0.09290  0.04760  1.0000 0.3252520567
C   C69       1.0  0.30170  0.35380  0.48840  1.0000 -0.2584327279
C   C70       1.0  0.69830  0.85380  0.01160  1.0000 -0.2584327279
C   C71       1.0  0.69830  0.64620  0.51160  1.0000 -0.2584327279
C   C72       1.0  0.30170  0.14620  0.98840  1.0000 -0.2584327279
C   C73       1.0  0.22890  0.30280  0.48760  1.0000 0.0881044796
C   C74       1.0  0.77110  0.80280  0.01240  1.0000 0.0881044796
C   C75       1.0  0.77110  0.69720  0.51240  1.0000 0.0881044796
C   C76       1.0  0.22890  0.19720  0.98760  1.0000 0.0881044796
C   C77       1.0  0.29180  0.15750  0.60990  1.0000 0.0615209794
C   C78       1.0  0.70820  0.65750  0.89010  1.0000 0.0615209794
C   C79       1.0  0.70820  0.84250  0.39010  1.0000 0.0615209794
C   C80       1.0  0.29180  0.34250  0.10990  1.0000 0.0615209794
C   C81       1.0  0.37240  0.10820  0.61980  1.0000 -0.2502748979
C   C82       1.0  0.62760  0.60820  0.88020  1.0000 -0.2502748979
C   C83       1.0  0.62760  0.89180  0.38020  1.0000 -0.2502748979
C   C84       1.0  0.37240  0.39180  0.11980  1.0000 -0.2502748979
C   C85       1.0  0.33930  0.04410  0.58140  1.0000 0.3111419982
C   C86       1.0  0.66070  0.54410  0.91860  1.0000 0.3111419982
C   C87       1.0  0.66070  0.95590  0.41860  1.0000 0.3111419982
C   C88       1.0  0.33930  0.45590  0.08140  1.0000 0.3111419982
C   C89       1.0  0.22330  0.03190  0.53420  1.0000 -0.2584327279
C   C90       1.0  0.77670  0.53190  0.96580  1.0000 -0.2584327279
C   C91       1.0  0.77670  0.96810  0.46580  1.0000 -0.2584327279
C   C92       1.0  0.22330  0.46810  0.03420  1.0000 -0.2584327279
C   C93       1.0  0.14850  0.08460  0.52710  1.0000 0.1008842473
C   C94       1.0  0.85150  0.58460  0.97290  1.0000 0.1008842473
C   C95       1.0  0.85150  0.91540  0.47290  1.0000 0.1008842473
C   C96       1.0  0.14850  0.41540  0.02710  1.0000 0.1008842473
N   N1        1.0  0.41780  0.09260  0.44060  1.0000 -0.2502748979
N   N2        1.0  0.58220  0.59260  0.05940  1.0000 -0.2502748979
N   N3        1.0  0.58220  0.90740  0.55940  1.0000 -0.2502748979
N   N4        1.0  0.41780  0.40740  0.94060  1.0000 -0.2502748979
N   N5        1.0  0.26880  0.27010  0.29570  1.0000 -0.5796415525
N   N6        1.0  0.73120  0.77010  0.20430  1.0000 -0.5796415525
N   N7        1.0  0.73120  0.72990  0.70430  1.0000 -0.5796415525
N   N8        1.0  0.26880  0.22990  0.79570  1.0000 -0.5796415525
N   N9        1.0  0.18100  0.30120  0.54140  1.0000 -0.2502748979
N   N10       1.0  0.81900  0.80120  0.95860  1.0000 -0.2502748979
N   N11       1.0  0.81900  0.69880  0.45860  1.0000 -0.2502748979
N   N12       1.0  0.18100  0.19880  0.04140  1.0000 -0.2502748979
N   N13       1.0  0.40330  0.45770  0.54970  1.0000 -0.5883078768
N   N14       1.0  0.59670  0.95770  0.95030  1.0000 -0.5883078768
N   N15       1.0  0.59670  0.54230  0.45030  1.0000 -0.5883078768
N   N16       1.0  0.40330  0.04230  0.04970  1.0000 -0.5796415525
N   N17       1.0  0.17950  0.14750  0.56260  1.0000 -0.2584327279
N   N18       1.0  0.82050  0.64750  0.93740  1.0000 -0.2584327279
N   N19       1.0  0.82050  0.85250  0.43740  1.0000 -0.2584327279
N   N20       1.0  0.17950  0.35250  0.06260  1.0000 -0.2584327279
N   N21       1.0  0.41840  0.99340  0.58680  1.0000 -0.5796415525
N   N22       1.0  0.58160  0.49340  0.91320  1.0000 -0.5796415525
N   N23       1.0  0.58160  0.00660  0.41320  1.0000 -0.5796415525
N   N24       1.0  0.41840  0.50660  0.08680  1.0000 -0.5796415525
O   O1        1.0  0.62987  0.05709  0.58407  1.0000 -0.5604705805
O   O2        1.0  0.37013  0.55709  0.91593  1.0000 -0.5604705805
O   O3        1.0  0.37013  0.94291  0.41593  1.0000 -0.5604705805
O   O4        1.0  0.62987  0.44291  0.08407  1.0000 -0.5604705805
O   O5        1.0  0.63130  0.04920  0.71150  1.0000 -0.5796415525
O   O6        1.0  0.36870  0.54920  0.78850  1.0000 -0.5796415525
O   O7        1.0  0.36870  0.95080  0.28850  1.0000 -0.5796415525
O   O8        1.0  0.63130  0.45080  0.21150  1.0000 -0.5796415525
O   O9        1.0  0.93776  0.16533  0.54336  1.0000 -0.5153360361
O   O10       1.0  0.06224  0.66533  0.95664  1.0000 -0.5153360361
O   O11       1.0  0.06224  0.83467  0.45664  1.0000 -0.5127661461
O   O12       1.0  0.93776  0.33467  0.04336  1.0000 -0.5153360361
O   O13       1.0  0.05195  0.23778  0.63995  1.0000 -0.5495888585
O   O14       1.0  0.94805  0.73778  0.86005  1.0000 -0.5495888585
O   O15       1.0  0.94805  0.76222  0.36005  1.0000 -0.5495888585
O   O16       1.0  0.05195  0.26222  0.13995  1.0000 -0.5495888585
O   O17       1.0  0.01289  0.28293  0.89939  1.0000 -0.5334878558
O   O18       1.0  0.98711  0.78293  0.60061  1.0000 -0.5334878558
O   O19       1.0  0.98711  0.71707  0.10061  1.0000 -0.5334878558
O   O20       1.0  0.01289  0.21707  0.39939  1.0000 -0.5334878558
O   O21       1.0  0.93078  0.20454  0.94478  1.0000 -0.5127661461
O   O22       1.0  0.06922  0.70454  0.55522  1.0000 -0.5127661461
O   O23       1.0  0.06922  0.79546  0.05522  1.0000 -0.5127661461
O   O24       1.0  0.93078  0.29546  0.44478  1.0000 -0.5127661461
