# DDEC6 charges by PACMAN v1.1 (https://github.com/mtap-research/PACMAN-charge/)
data_2002[Cu][lvt]3[ASR]1
_chemical_formula_sum              "Cu8 H128 C160 N32"
_cell_length_a       22.1055
_cell_length_b       22.1055
_cell_length_c       22.1055
_cell_angle_alpha    99.7774
_cell_angle_beta     99.7774
_cell_angle_gamma    131.327

_symmetry_space_group_name_H-M    "P 1"
_symmetry_Int_Tables_number       1

loop_
  _symmetry_equiv_pos_as_xyz
  'x, y, z'

loop_
  _atom_site_type_symbol
  _atom_site_label
  _atom_site_symmetry_multiplicity
  _atom_site_fract_x
  _atom_site_fract_y
  _atom_site_fract_z
  _atom_site_occupancy
  _atom_site_charge
Cu  Cu1       1.0  0.37500  0.63257  0.75757  1.0000 0.2024565981
Cu  Cu2       1.0  0.87500  0.61743  0.24243  1.0000 0.2024565981
Cu  Cu3       1.0  0.38257  0.62500  0.25757  1.0000 0.2024565981
Cu  Cu4       1.0  0.36743  0.12500  0.74243  1.0000 0.2024565981
Cu  Cu5       1.0  0.86743  0.12500  0.24243  1.0000 0.2024565981
Cu  Cu6       1.0  0.88257  0.62500  0.75757  1.0000 0.2024565981
Cu  Cu7       1.0  0.87500  0.11743  0.74243  1.0000 0.2024565981
Cu  Cu8       1.0  0.37500  0.13257  0.25757  1.0000 0.2024565981
H   H1        1.0  0.41420  0.74040  0.18580  1.0000 0.0905021117
H   H2        1.0  0.55460  0.22840  0.81420  1.0000 0.0905021117
H   H3        1.0  0.33580  0.02160  0.82620  1.0000 0.0905021117
H   H4        1.0  0.19540  0.50960  0.17380  1.0000 0.0905021117
H   H5        1.0  0.49040  0.66420  0.68580  1.0000 0.0905021117
H   H6        1.0  0.97840  0.80460  0.31420  1.0000 0.0905021117
H   H7        1.0  0.77160  0.58580  0.32620  1.0000 0.0905021117
H   H8        1.0  0.25960  0.44540  0.67380  1.0000 0.0905021117
H   H9        1.0  0.26480  0.51090  0.81930  1.0000 0.0905021117
H   H10       1.0  0.69160  0.44550  0.18070  1.0000 0.0905021117
H   H11       1.0  0.48520  0.80450  0.74610  1.0000 0.0905021117
H   H12       1.0  0.05840  0.73910  0.25390  1.0000 0.0905021117
H   H13       1.0  0.26090  0.51480  0.31930  1.0000 0.0905021117
H   H14       1.0  0.19550  0.94160  0.68070  1.0000 0.0905021117
H   H15       1.0  0.55450  0.73520  0.24610  1.0000 0.0905021117
H   H16       1.0  0.48910  0.30840  0.75390  1.0000 0.0905021117
H   H17       1.0  0.34160  0.51850  0.12710  1.0000 0.0905021117
H   H18       1.0  0.39140  0.21450  0.87290  1.0000 0.0905021117
H   H19       1.0  0.40840  0.03550  0.67690  1.0000 0.0905021117
H   H20       1.0  0.35860  0.73150  0.32310  1.0000 0.0905021117
H   H21       1.0  0.26850  0.59160  0.62710  1.0000 0.0905021117
H   H22       1.0  0.96450  0.64140  0.37290  1.0000 0.0905021117
H   H23       1.0  0.78550  0.65840  0.17690  1.0000 0.0905021117
H   H24       1.0  0.48150  0.60860  0.82310  1.0000 0.0905021117
H   H25       1.0  0.47310  0.76120  0.89650  1.0000 0.0905021117
H   H26       1.0  0.86470  0.57660  0.10350  1.0000 0.0905021117
H   H27       1.0  0.27690  0.67340  0.78810  1.0000 0.0905021117
H   H28       1.0  0.88530  0.48880  0.21190  1.0000 0.0905021117
H   H29       1.0  0.51120  0.72310  0.39650  1.0000 0.0905021117
H   H30       1.0  0.32660  0.11470  0.60350  1.0000 0.0905021117
H   H31       1.0  0.42340  0.52690  0.28810  1.0000 0.0905021117
H   H32       1.0  0.23880  0.13530  0.71190  1.0000 0.0905021117
H   H33       1.0  0.33730  0.51920  0.02330  1.0000 0.1226660525
H   H34       1.0  0.49590  0.31400  0.97670  1.0000 0.1226660525
H   H35       1.0  0.41270  0.93600  0.68190  1.0000 0.1226660525
H   H36       1.0  0.25410  0.73080  0.31810  1.0000 0.1226660525
H   H37       1.0  0.26920  0.58730  0.52330  1.0000 0.1226660525
H   H38       1.0  0.06400  0.74590  0.47670  1.0000 0.1226660525
H   H39       1.0  0.68600  0.66270  0.18190  1.0000 0.1226660525
H   H40       1.0  0.48080  0.50410  0.81810  1.0000 0.1226660525
H   H41       1.0  0.26500  0.50670  0.92150  1.0000 0.1226660525
H   H42       1.0  0.58520  0.34350  0.07850  1.0000 0.1226660525
H   H43       1.0  0.48500  0.90650  0.74170  1.0000 0.1226660525
H   H44       1.0  0.16480  0.74330  0.25830  1.0000 0.1226660525
H   H45       1.0  0.25670  0.51500  0.42150  1.0000 0.1226660525
H   H46       1.0  0.09350  0.83520  0.57850  1.0000 0.1226660525
H   H47       1.0  0.65650  0.73500  0.24170  1.0000 0.1226660525
H   H48       1.0  0.49330  0.41480  0.75830  1.0000 0.1226660525
H   H49       1.0  0.47850  0.76440  0.00190  1.0000 0.1226660525
H   H50       1.0  0.76250  0.47660  0.99810  1.0000 0.1226660525
H   H51       1.0  0.27150  0.77340  0.78590  1.0000 0.1226660525
H   H52       1.0  0.98750  0.48560  0.21410  1.0000 0.1226660525
H   H53       1.0  0.51440  0.72850  0.50190  1.0000 0.1226660525
H   H54       1.0  0.22660  0.01250  0.49810  1.0000 0.1226660525
H   H55       1.0  0.52340  0.52150  0.28590  1.0000 0.1226660525
H   H56       1.0  0.23560  0.23750  0.71410  1.0000 0.1226660525
H   H57       1.0  0.41410  0.74850  0.08440  1.0000 0.1251438678
H   H58       1.0  0.66410  0.32970  0.91560  1.0000 0.1226660525
H   H59       1.0  0.33590  0.92030  0.83440  1.0000 0.1226660525
H   H60       1.0  0.08590  0.50150  0.16560  1.0000 0.1251438678
H   H61       1.0  0.49850  0.66410  0.58440  1.0000 0.1251438678
H   H62       1.0  0.07970  0.91410  0.41560  1.0000 0.1226660525
H   H63       1.0  0.67030  0.58590  0.33440  1.0000 0.1226660525
H   H64       1.0  0.25150  0.33590  0.66560  1.0000 0.1226660525
H   H65       1.0  0.75960  0.08580  0.81420  1.0000 0.0905021117
H   H66       1.0  0.27160  0.94540  0.18580  1.0000 0.0905021117
H   H67       1.0  0.47840  0.16420  0.17380  1.0000 0.0905021117
H   H68       1.0  0.99040  0.30460  0.82620  1.0000 0.0905021117
H   H69       1.0  0.83580  0.00960  0.31420  1.0000 0.0905021117
H   H70       1.0  0.69540  0.52160  0.68580  1.0000 0.0905021117
H   H71       1.0  0.91420  0.72840  0.67380  1.0000 0.0905021117
H   H72       1.0  0.05460  0.24040  0.32620  1.0000 0.0905021117
H   H73       1.0  0.98910  0.23520  0.18070  1.0000 0.0905021117
H   H74       1.0  0.05450  0.80840  0.81930  1.0000 0.0905021117
H   H75       1.0  0.69550  0.01480  0.25390  1.0000 0.0905021117
H   H76       1.0  0.76090  0.44160  0.74610  1.0000 0.0905021117
H   H77       1.0  0.98520  0.23910  0.68070  1.0000 0.0905021117
H   H78       1.0  0.55840  0.30450  0.31930  1.0000 0.0905021117
H   H79       1.0  0.76480  0.94550  0.75390  1.0000 0.0905021117
H   H80       1.0  0.19160  0.01090  0.24610  1.0000 0.0905021117
H   H81       1.0  0.98150  0.15840  0.87290  1.0000 0.0905021117
H   H82       1.0  0.28550  0.10860  0.12710  1.0000 0.0905021117
H   H83       1.0  0.46450  0.09160  0.32310  1.0000 0.0905021117
H   H84       1.0  0.76850  0.14140  0.67690  1.0000 0.0905021117
H   H85       1.0  0.90840  0.23150  0.37290  1.0000 0.0905021117
H   H86       1.0  0.85860  0.53550  0.62710  1.0000 0.0905021117
H   H87       1.0  0.84160  0.71450  0.82310  1.0000 0.0905021117
H   H88       1.0  0.89140  0.01850  0.17690  1.0000 0.0905021117
H   H89       1.0  0.73880  0.02690  0.10350  1.0000 0.0905021117
H   H90       1.0  0.92340  0.63530  0.89650  1.0000 0.0905021117
H   H91       1.0  0.82660  0.22310  0.21190  1.0000 0.0905021117
H   H92       1.0  0.01120  0.61470  0.78810  1.0000 0.0905021117
H   H93       1.0  0.77690  0.98880  0.60350  1.0000 0.0905021117
H   H94       1.0  0.38530  0.17340  0.39650  1.0000 0.0905021117
H   H95       1.0  0.97310  0.07660  0.71190  1.0000 0.0905021117
H   H96       1.0  0.36470  0.26120  0.28810  1.0000 0.0905021117
H   H97       1.0  0.98080  0.16270  0.97670  1.0000 0.1226660525
H   H98       1.0  0.18600  0.00410  0.02330  1.0000 0.1226660525
H   H99       1.0  0.56400  0.08730  0.31810  1.0000 0.1226660525
H   H100      1.0  0.76920  0.24590  0.68190  1.0000 0.1226660525
H   H101      1.0  0.91270  0.23080  0.47670  1.0000 0.1226660525
H   H102      1.0  0.75410  0.43600  0.52330  1.0000 0.1226660525
H   H103      1.0  0.83730  0.81400  0.81810  1.0000 0.1226660525
H   H104      1.0  0.99590  0.01920  0.18190  1.0000 0.1226660525
H   H105      1.0  0.99330  0.23500  0.07850  1.0000 0.1226660525
H   H106      1.0  0.15650  0.91480  0.92150  1.0000 0.1226660525
H   H107      1.0  0.59350  0.01500  0.25830  1.0000 0.1226660525
H   H108      1.0  0.75670  0.33520  0.74170  1.0000 0.1226660525
H   H109      1.0  0.98500  0.24330  0.57850  1.0000 0.1226660525
H   H110      1.0  0.66480  0.40650  0.42150  1.0000 0.1226660525
H   H111      1.0  0.76500  0.84350  0.75830  1.0000 0.1226660525
H   H112      1.0  0.08520  0.00670  0.24170  1.0000 0.1226660525
H   H113      1.0  0.73560  0.02150  0.99810  1.0000 0.1226660525
H   H114      1.0  0.02340  0.73750  0.00190  1.0000 0.1226660525
H   H115      1.0  0.72660  0.22850  0.21410  1.0000 0.1226660525
H   H116      1.0  0.01440  0.51250  0.78590  1.0000 0.1226660525
H   H117      1.0  0.77150  0.98560  0.49810  1.0000 0.1226660525
H   H118      1.0  0.48750  0.27340  0.50190  1.0000 0.1226660525
H   H119      1.0  0.97850  0.97660  0.71410  1.0000 0.1226660525
H   H120      1.0  0.26250  0.26440  0.28590  1.0000 0.1226660525
H   H121      1.0  0.75150  0.08590  0.91560  1.0000 0.1251438678
H   H122      1.0  0.17030  0.83590  0.08440  1.0000 0.1226660525
H   H123      1.0  0.57970  0.16410  0.16560  1.0000 0.1251438678
H   H124      1.0  0.99850  0.41410  0.83440  1.0000 0.1251438678
H   H125      1.0  0.83590  0.00150  0.41560  1.0000 0.1251438678
H   H126      1.0  0.58590  0.42030  0.58440  1.0000 0.1251438678
H   H127      1.0  0.91410  0.82970  0.66560  1.0000 0.1251438678
H   H128      1.0  0.16410  0.24850  0.33440  1.0000 0.1251438678
C   C1        1.0  0.39850  0.69530  0.15260  1.0000 0.0134068977
C   C2        1.0  0.54270  0.24590  0.84740  1.0000 0.0134068977
C   C3        1.0  0.35150  0.00410  0.79680  1.0000 0.0212836138
C   C4        1.0  0.20730  0.55470  0.20320  1.0000 0.0134068977
C   C5        1.0  0.44530  0.64850  0.65260  1.0000 0.0134068977
C   C6        1.0  0.99590  0.79270  0.34740  1.0000 0.0134068977
C   C7        1.0  0.75410  0.60150  0.29680  1.0000 0.0134068977
C   C8        1.0  0.30470  0.45730  0.70320  1.0000 0.0134068977
C   C9        1.0  0.37200  0.63523  0.97403  1.0000 0.0905021117
C   C10       1.0  0.66120  0.39797  0.02597  1.0000 0.0905021117
C   C11       1.0  0.37800  0.85203  0.76323  1.0000 0.0905021117
C   C12       1.0  0.08880  0.61477  0.23677  1.0000 0.0905021117
C   C13       1.0  0.38523  0.62200  0.47403  1.0000 0.0905021117
C   C14       1.0  0.14797  0.91120  0.52597  1.0000 0.0905021117
C   C15       1.0  0.60203  0.62800  0.26323  1.0000 0.0905021117
C   C16       1.0  0.36477  0.33880  0.73677  1.0000 0.0905021117
C   C17       1.0  0.37400  0.63390  0.04110  1.0000 0.0808568754
C   C18       1.0  0.59280  0.33290  0.95890  1.0000 0.0808568754
C   C19       1.0  0.37600  0.91710  0.75990  1.0000 0.0808568754
C   C20       1.0  0.15720  0.61610  0.24010  1.0000 0.0808568754
C   C21       1.0  0.38390  0.62400  0.54110  1.0000 0.0808568754
C   C22       1.0  0.08290  0.84280  0.45890  1.0000 0.0808568754
C   C23       1.0  0.66710  0.62600  0.25990  1.0000 0.0808568754
C   C24       1.0  0.36610  0.40720  0.74010  1.0000 0.0808568754
C   C25       1.0  0.30880  0.56220  0.85660  1.0000 0.0212836138
C   C26       1.0  0.70560  0.45220  0.14340  1.0000 0.0212836138
C   C27       1.0  0.44120  0.79780  0.75340  1.0000 0.0212836138
C   C28       1.0  0.04440  0.68780  0.24660  1.0000 0.0212836138
C   C29       1.0  0.31220  0.55880  0.35660  1.0000 0.0212836138
C   C30       1.0  0.20220  0.95560  0.64340  1.0000 0.0212836138
C   C31       1.0  0.54780  0.69120  0.25340  1.0000 0.0212836138
C   C32       1.0  0.43780  0.29440  0.74660  1.0000 0.0212836138
C   C33       1.0  0.35570  0.56510  0.11800  1.0000 0.0212836138
C   C34       1.0  0.44710  0.23770  0.88200  1.0000 0.0212836138
C   C35       1.0  0.39430  0.01230  0.70940  1.0000 0.0212836138
C   C36       1.0  0.30290  0.68490  0.29060  1.0000 0.0212836138
C   C37       1.0  0.31510  0.60570  0.61800  1.0000 0.0212836138
C   C38       1.0  0.98770  0.69710  0.38200  1.0000 0.0212836138
C   C39       1.0  0.76230  0.64430  0.20940  1.0000 0.0212836138
C   C40       1.0  0.43490  0.55290  0.79060  1.0000 0.0212836138
C   C41       1.0  0.43130  0.70950  0.90200  1.0000 0.0369762242
C   C42       1.0  0.80750  0.52930  0.09800  1.0000 0.0369762242
C   C43       1.0  0.31870  0.72070  0.77820  1.0000 0.0369762242
C   C44       1.0  0.94250  0.54050  0.22180  1.0000 0.0369762242
C   C45       1.0  0.45950  0.68130  0.40200  1.0000 0.0369762242
C   C46       1.0  0.27930  0.05750  0.59800  1.0000 0.0369762242
C   C47       1.0  0.47070  0.56870  0.27820  1.0000 0.0369762242
C   C48       1.0  0.29050  0.19250  0.72180  1.0000 0.0369762242
C   C49       1.0  0.35300  0.56510  0.05570  1.0000 -0.2000479867
C   C50       1.0  0.50940  0.29730  0.94430  1.0000 -0.2000479867
C   C51       1.0  0.39700  0.95270  0.71210  1.0000 -0.2000479867
C   C52       1.0  0.24060  0.68490  0.28790  1.0000 -0.2000479867
C   C53       1.0  0.31510  0.60300  0.55570  1.0000 -0.2000479867
C   C54       1.0  0.04730  0.75940  0.44430  1.0000 -0.2000479867
C   C55       1.0  0.70270  0.64700  0.21210  1.0000 -0.2000479867
C   C56       1.0  0.43490  0.49060  0.78790  1.0000 -0.2000479867
C   C57       1.0  0.30820  0.55930  0.91770  1.0000 -0.2000479867
C   C58       1.0  0.64160  0.39050  0.08230  1.0000 -0.2000479867
C   C59       1.0  0.44180  0.85950  0.75110  1.0000 -0.2000479867
C   C60       1.0  0.10840  0.69070  0.24890  1.0000 -0.2000479867
C   C61       1.0  0.30930  0.55820  0.41770  1.0000 -0.2000479867
C   C62       1.0  0.14050  0.89160  0.58230  1.0000 -0.2000479867
C   C63       1.0  0.60950  0.69180  0.25110  1.0000 -0.2000479867
C   C64       1.0  0.44070  0.35840  0.74890  1.0000 -0.2000479867
C   C65       1.0  0.43480  0.71210  0.96550  1.0000 -0.2073864958
C   C66       1.0  0.74660  0.46930  0.03450  1.0000 -0.2073864958
C   C67       1.0  0.31520  0.78070  0.77730  1.0000 -0.2073864958
C   C68       1.0  0.00340  0.53790  0.22270  1.0000 -0.2073864958
C   C69       1.0  0.46210  0.68480  0.46550  1.0000 -0.2073864958
C   C70       1.0  0.21930  0.99660  0.53450  1.0000 -0.2073864958
C   C71       1.0  0.53070  0.56520  0.27730  1.0000 -0.2073864958
C   C72       1.0  0.28790  0.25340  0.72270  1.0000 -0.2073864958
C   C73       1.0  0.39810  0.70030  0.09160  1.0000 -0.2000479867
C   C74       1.0  0.60870  0.30650  0.90840  1.0000 -0.2000479867
C   C75       1.0  0.35190  0.94350  0.80220  1.0000 -0.2000479867
C   C76       1.0  0.14130  0.54970  0.19780  1.0000 -0.2000479867
C   C77       1.0  0.45030  0.64810  0.59160  1.0000 -0.2000479867
C   C78       1.0  0.05650  0.85870  0.40840  1.0000 -0.2000479867
C   C79       1.0  0.69350  0.60190  0.30220  1.0000 -0.2000479867
C   C80       1.0  0.29970  0.39130  0.69780  1.0000 -0.2000479867
C   C81       1.0  0.80470  0.10150  0.84740  1.0000 0.0134068977
C   C82       1.0  0.25410  0.95730  0.15260  1.0000 0.0134068977
C   C83       1.0  0.49590  0.14850  0.20320  1.0000 0.0134068977
C   C84       1.0  0.94530  0.29270  0.79680  1.0000 0.0134068977
C   C85       1.0  0.85150  0.05470  0.34740  1.0000 0.0134068977
C   C86       1.0  0.70730  0.50410  0.65260  1.0000 0.0134068977
C   C87       1.0  0.89850  0.74590  0.70320  1.0000 0.0134068977
C   C88       1.0  0.04270  0.19530  0.29680  1.0000 0.0134068977
C   C89       1.0  0.86477  0.12800  0.02597  1.0000 0.0905021117
C   C90       1.0  0.10203  0.83880  0.97403  1.0000 0.0905021117
C   C91       1.0  0.64797  0.12200  0.23677  1.0000 0.0905021117
C   C92       1.0  0.88523  0.41120  0.76323  1.0000 0.0905021117
C   C93       1.0  0.87800  0.11477  0.52597  1.0000 0.0905021117
C   C94       1.0  0.58880  0.35203  0.47403  1.0000 0.0905021117
C   C95       1.0  0.87200  0.89797  0.73677  1.0000 0.0905021117
C   C96       1.0  0.16120  0.13523  0.26323  1.0000 0.0905021117
C   C97       1.0  0.86610  0.12600  0.95890  1.0000 0.0808568754
C   C98       1.0  0.16710  0.90720  0.04110  1.0000 0.0808568754
C   C99       1.0  0.58290  0.12400  0.24010  1.0000 0.0808568754
C   C100      1.0  0.88390  0.34280  0.75990  1.0000 0.0808568754
C   C101      1.0  0.87600  0.11610  0.45890  1.0000 0.0808568754
C   C102      1.0  0.65720  0.41710  0.54110  1.0000 0.0808568754
C   C103      1.0  0.87400  0.83290  0.74010  1.0000 0.0808568754
C   C104      1.0  0.09280  0.13390  0.25990  1.0000 0.0808568754
C   C105      1.0  0.93780  0.19120  0.14340  1.0000 0.0212836138
C   C106      1.0  0.04780  0.79440  0.85660  1.0000 0.0212836138
C   C107      1.0  0.70220  0.05880  0.24660  1.0000 0.0212836138
C   C108      1.0  0.81220  0.45560  0.75340  1.0000 0.0212836138
C   C109      1.0  0.94120  0.18780  0.64340  1.0000 0.0212836138
C   C110      1.0  0.54440  0.29780  0.35660  1.0000 0.0212836138
C   C111      1.0  0.80880  0.95220  0.74660  1.0000 0.0212836138
C   C112      1.0  0.20560  0.06220  0.25340  1.0000 0.0212836138
C   C113      1.0  0.93490  0.14430  0.88200  1.0000 0.0212836138
C   C114      1.0  0.26230  0.05290  0.11800  1.0000 0.0212836138
C   C115      1.0  0.48770  0.10570  0.29060  1.0000 0.0212836138
C   C116      1.0  0.81510  0.19710  0.70940  1.0000 0.0212836138
C   C117      1.0  0.89430  0.18490  0.38200  1.0000 0.0212836138
C   C118      1.0  0.80290  0.51230  0.61800  1.0000 0.0212836138
C   C119      1.0  0.85570  0.73770  0.79060  1.0000 0.0212836138
C   C120      1.0  0.94710  0.06510  0.20940  1.0000 0.0212836138
C   C121      1.0  0.79050  0.06870  0.09800  1.0000 0.0369762242
C   C122      1.0  0.97070  0.69250  0.90200  1.0000 0.0369762242
C   C123      1.0  0.77930  0.18130  0.22180  1.0000 0.0369762242
C   C124      1.0  0.95950  0.55750  0.77820  1.0000 0.0369762242
C   C125      1.0  0.81870  0.04050  0.59800  1.0000 0.0369762242
C   C126      1.0  0.44250  0.22070  0.40200  1.0000 0.0369762242
C   C127      1.0  0.93130  0.02930  0.72180  1.0000 0.0369762242
C   C128      1.0  0.30750  0.20950  0.27820  1.0000 0.0369762242
C   C129      1.0  0.93490  0.14700  0.94430  1.0000 -0.2000479867
C   C130      1.0  0.20270  0.99060  0.05570  1.0000 -0.2000479867
C   C131      1.0  0.54730  0.10300  0.28790  1.0000 -0.2000479867
C   C132      1.0  0.81510  0.25940  0.71210  1.0000 -0.2000479867
C   C133      1.0  0.89700  0.18490  0.44430  1.0000 -0.2000479867
C   C134      1.0  0.74060  0.45270  0.55570  1.0000 -0.2000479867
C   C135      1.0  0.85300  0.79730  0.78790  1.0000 -0.2000479867
C   C136      1.0  0.00940  0.06510  0.21210  1.0000 -0.2000479867
C   C137      1.0  0.94070  0.19180  0.08230  1.0000 -0.2000479867
C   C138      1.0  0.10950  0.85840  0.91770  1.0000 -0.2000479867
C   C139      1.0  0.64050  0.05820  0.24890  1.0000 -0.2000479867
C   C140      1.0  0.80930  0.39160  0.75110  1.0000 -0.2000479867
C   C141      1.0  0.94180  0.19070  0.58230  1.0000 -0.2000479867
C   C142      1.0  0.60840  0.35950  0.41770  1.0000 -0.2000479867
C   C143      1.0  0.80820  0.89050  0.74890  1.0000 -0.2000479867
C   C144      1.0  0.14160  0.05930  0.25110  1.0000 -0.2000479867
C   C145      1.0  0.78790  0.06520  0.03450  1.0000 -0.2073864958
C   C146      1.0  0.03070  0.75340  0.96550  1.0000 -0.2073864958
C   C147      1.0  0.71930  0.18480  0.22270  1.0000 -0.2073864958
C   C148      1.0  0.96210  0.49660  0.77730  1.0000 -0.2073864958
C   C149      1.0  0.81520  0.03790  0.53450  1.0000 -0.2000479867
C   C150      1.0  0.50340  0.28070  0.46550  1.0000 -0.2073864958
C   C151      1.0  0.93480  0.96930  0.72270  1.0000 -0.2073864958
C   C152      1.0  0.24660  0.21210  0.27730  1.0000 -0.2073864958
C   C153      1.0  0.79970  0.10190  0.90840  1.0000 -0.2000479867
C   C154      1.0  0.19350  0.89130  0.09160  1.0000 -0.2000479867
C   C155      1.0  0.55650  0.14810  0.19780  1.0000 -0.2000479867
C   C156      1.0  0.95030  0.35870  0.80220  1.0000 -0.2000479867
C   C157      1.0  0.85190  0.04970  0.40840  1.0000 -0.2000479867
C   C158      1.0  0.64130  0.44350  0.59160  1.0000 -0.2000479867
C   C159      1.0  0.89810  0.80650  0.69780  1.0000 -0.2000479867
C   C160      1.0  0.10870  0.20030  0.30220  1.0000 -0.2000479867
N   N1        1.0  0.37075  0.63622  0.84817  1.0000 -0.2157427725
N   N2        1.0  0.78805  0.52258  0.15183  1.0000 -0.2073864958
N   N3        1.0  0.37925  0.72742  0.76547  1.0000 -0.2157427725
N   N4        1.0  0.96195  0.61378  0.23453  1.0000 -0.2073864958
N   N5        1.0  0.38622  0.62075  0.34817  1.0000 -0.2073864958
N   N6        1.0  0.27258  0.03805  0.65183  1.0000 -0.2157427725
N   N7        1.0  0.47742  0.62925  0.26547  1.0000 -0.2157427725
N   N8        1.0  0.36378  0.21195  0.73453  1.0000 -0.2157427725
N   N9        1.0  0.37742  0.62854  0.16616  1.0000 -0.2000479867
N   N10       1.0  0.46238  0.21126  0.83384  1.0000 -0.2000479867
N   N11       1.0  0.37258  0.03874  0.75112  1.0000 -0.2000479867
N   N12       1.0  0.28762  0.62146  0.24888  1.0000 -0.2000479867
N   N13       1.0  0.37854  0.62742  0.66616  1.0000 -0.2000479867
N   N14       1.0  0.96126  0.71238  0.33384  1.0000 -0.2000479867
N   N15       1.0  0.78874  0.62258  0.25112  1.0000 -0.2000479867
N   N16       1.0  0.37146  0.53762  0.74888  1.0000 -0.2000479867
N   N17       1.0  0.86378  0.12925  0.15183  1.0000 -0.2073864958
N   N18       1.0  0.97742  0.71195  0.84817  1.0000 -0.2157427725
N   N19       1.0  0.77258  0.12075  0.23453  1.0000 -0.2157427725
N   N20       1.0  0.88622  0.53805  0.76547  1.0000 -0.2157427725
N   N21       1.0  0.87925  0.11378  0.65183  1.0000 -0.2157427725
N   N22       1.0  0.46195  0.22742  0.34817  1.0000 -0.2073864958
N   N23       1.0  0.87075  0.02258  0.73453  1.0000 -0.2157427725
N   N24       1.0  0.28805  0.13622  0.26547  1.0000 -0.2157427725
N   N25       1.0  0.87146  0.12258  0.83384  1.0000 -0.2000479867
N   N26       1.0  0.28874  0.03762  0.16616  1.0000 -0.2000479867
N   N27       1.0  0.46126  0.12742  0.24888  1.0000 -0.2000479867
N   N28       1.0  0.87854  0.21238  0.75112  1.0000 -0.2000479867
N   N29       1.0  0.87258  0.12146  0.33384  1.0000 -0.2000479867
N   N30       1.0  0.78762  0.53874  0.66616  1.0000 -0.2000479867
N   N31       1.0  0.87742  0.71126  0.74888  1.0000 -0.2000479867
N   N32       1.0  0.96238  0.12854  0.25112  1.0000 -0.2000479867
