# DDEC6 charges by PACMAN v1.1 (https://github.com/mtap-research/PACMAN-charge/)
data_2002[Cu][srs]3[ASR]1
_chemical_formula_sum              "Cu4 H36 C28 N12 O16"
_cell_length_a       7.465
_cell_length_b       9.622
_cell_length_c       16.049
_cell_angle_alpha    90
_cell_angle_beta     90
_cell_angle_gamma    90

_symmetry_space_group_name_H-M    "P 1"
_symmetry_Int_Tables_number       1

loop_
  _symmetry_equiv_pos_as_xyz
  'x, y, z'

loop_
  _atom_site_type_symbol
  _atom_site_label
  _atom_site_symmetry_multiplicity
  _atom_site_fract_x
  _atom_site_fract_y
  _atom_site_fract_z
  _atom_site_occupancy
  _atom_site_charge
Cu  Cu1       1.0  0.49020  0.59170  0.58440  1.0000 0.7742983247
Cu  Cu2       1.0  0.00980  0.40830  0.08440  1.0000 0.7742983247
Cu  Cu3       1.0  0.50980  0.09170  0.91560  1.0000 0.7742983247
Cu  Cu4       1.0  0.99020  0.90830  0.41560  1.0000 0.7742983247
H   H1        1.0  0.47630  0.97620  0.59750  1.0000 0.1012897412
H   H2        1.0  0.02370  0.02380  0.09750  1.0000 0.1012897412
H   H3        1.0  0.52370  0.47620  0.90250  1.0000 0.1012897412
H   H4        1.0  0.97630  0.52380  0.40250  1.0000 0.1012897412
H   H5        1.0  0.36570  0.76710  0.68340  1.0000 0.3083404745
H   H6        1.0  0.13430  0.23290  0.18340  1.0000 0.3083404745
H   H7        1.0  0.63430  0.26710  0.81660  1.0000 0.3083404745
H   H8        1.0  0.86570  0.73290  0.31660  1.0000 0.3083404745
H   H9        1.0  0.28890  0.79880  0.59010  1.0000 0.3028983618
H   H10       1.0  0.21110  0.20120  0.09010  1.0000 0.3028983618
H   H11       1.0  0.71110  0.29880  0.90990  1.0000 0.3028983618
H   H12       1.0  0.78890  0.70120  0.40990  1.0000 0.3028983618
H   H13       1.0  0.68890  0.81780  0.70930  1.0000 0.1504482771
H   H14       1.0  0.81110  0.18220  0.20930  1.0000 0.1504482771
H   H15       1.0  0.31110  0.31780  0.79070  1.0000 0.1504482771
H   H16       1.0  0.18890  0.68220  0.29070  1.0000 0.1504482771
H   H17       1.0  0.75170  0.96950  0.67430  1.0000 0.1427434082
H   H18       1.0  0.74830  0.03050  0.17430  1.0000 0.1427434082
H   H19       1.0  0.24830  0.46950  0.82570  1.0000 0.1427434082
H   H20       1.0  0.25170  0.53050  0.32570  1.0000 0.1427434082
H   H21       1.0  0.62070  0.27770  0.62020  1.0000 0.1076918016
H   H22       1.0  0.87930  0.72230  0.12020  1.0000 0.1076918016
H   H23       1.0  0.37930  0.77770  0.87980  1.0000 0.1076918016
H   H24       1.0  0.12070  0.22230  0.37980  1.0000 0.1076918016
H   H25       1.0  0.71680  0.11450  0.50430  1.0000 0.2776037003
H   H26       1.0  0.78320  0.88550  0.00430  1.0000 0.2776037003
H   H27       1.0  0.28320  0.61450  0.99570  1.0000 0.2776037003
H   H28       1.0  0.21680  0.38550  0.49570  1.0000 0.2776037003
H   H29       1.0  0.70640  0.25470  0.37050  1.0000 0.1321307565
H   H30       1.0  0.79360  0.74530  0.87050  1.0000 0.1321307565
H   H31       1.0  0.29360  0.75470  0.12950  1.0000 0.1321307565
H   H32       1.0  0.20640  0.24530  0.62950  1.0000 0.1321307565
H   H33       1.0  0.61050  0.49640  0.40340  1.0000 0.1217187526
H   H34       1.0  0.88950  0.50360  0.90340  1.0000 0.1217187526
H   H35       1.0  0.38950  0.99640  0.09660  1.0000 0.1217187526
H   H36       1.0  0.11050  0.00360  0.59660  1.0000 0.1217187526
C   C1        1.0  0.65190  0.84340  0.53740  1.0000 0.5593371834
C   C2        1.0  0.84810  0.15660  0.03740  1.0000 0.5593371834
C   C3        1.0  0.34810  0.34340  0.96260  1.0000 0.5593371834
C   C4        1.0  0.15190  0.65660  0.46260  1.0000 0.5593371834
C   C5        1.0  0.53890  0.88750  0.61190  1.0000 0.0381531599
C   C6        1.0  0.96110  0.11250  0.11190  1.0000 0.0381531599
C   C7        1.0  0.46110  0.38750  0.88810  1.0000 0.0381531599
C   C8        1.0  0.03890  0.61250  0.38810  1.0000 0.0381531599
C   C9        1.0  0.64640  0.91060  0.68950  1.0000 -0.3937016283
C   C10       1.0  0.85360  0.08940  0.18950  1.0000 -0.3937016283
C   C11       1.0  0.35360  0.41060  0.81050  1.0000 -0.3937016283
C   C12       1.0  0.14640  0.58940  0.31050  1.0000 -0.3937016283
C   C13       1.0  0.55390  0.97900  0.76000  1.0000 0.5989655103
C   C14       1.0  0.94610  0.02100  0.26000  1.0000 0.5989655103
C   C15       1.0  0.44610  0.47900  0.74000  1.0000 0.5989655103
C   C16       1.0  0.05390  0.52100  0.24000  1.0000 0.5989655103
C   C17       1.0  0.62960  0.30260  0.55990  1.0000 0.1217187526
C   C18       1.0  0.87040  0.69740  0.05990  1.0000 0.1217187526
C   C19       1.0  0.37040  0.80260  0.94010  1.0000 0.1217187526
C   C20       1.0  0.12960  0.19740  0.44010  1.0000 0.1217187526
C   C21       1.0  0.67600  0.29030  0.42730  1.0000 -0.042752922
C   C22       1.0  0.82400  0.70970  0.92730  1.0000 -0.042752922
C   C23       1.0  0.32400  0.79030  0.07270  1.0000 -0.042752922
C   C24       1.0  0.17600  0.20970  0.57270  1.0000 -0.042752922
C   C25       1.0  0.62410  0.41880  0.44440  1.0000 -0.0661854078
C   C26       1.0  0.87590  0.58120  0.94440  1.0000 -0.0661854078
C   C27       1.0  0.37590  0.91880  0.05560  1.0000 -0.0661854078
C   C28       1.0  0.12410  0.08120  0.55560  1.0000 -0.0661854078
N   N1        1.0  0.39790  0.77400  0.62310  1.0000 -0.589872912
N   N2        1.0  0.10210  0.22600  0.12310  1.0000 -0.589872912
N   N3        1.0  0.60210  0.27400  0.87690  1.0000 -0.589872912
N   N4        1.0  0.89790  0.72600  0.37690  1.0000 -0.589872912
N   N5        1.0  0.59240  0.42620  0.52840  1.0000 -0.3002253328
N   N6        1.0  0.90760  0.57380  0.02840  1.0000 -0.3002253328
N   N7        1.0  0.40760  0.92620  0.97160  1.0000 -0.3002253328
N   N8        1.0  0.09240  0.07380  0.47160  1.0000 -0.3002253328
N   N9        1.0  0.68170  0.21430  0.49840  1.0000 -0.2090115999
N   N10       1.0  0.81830  0.78570  0.99840  1.0000 -0.2090115999
N   N11       1.0  0.31830  0.71430  0.00160  1.0000 -0.2090115999
N   N12       1.0  0.18170  0.28570  0.50160  1.0000 -0.2090115999
O   O1        1.0  0.74680  0.93430  0.50900  1.0000 -0.5322094043
O   O2        1.0  0.75320  0.06570  0.00900  1.0000 -0.5322094043
O   O3        1.0  0.25320  0.43430  0.99100  1.0000 -0.5322094043
O   O4        1.0  0.24680  0.56570  0.49100  1.0000 -0.5322094043
O   O5        1.0  0.65120  0.71770  0.52030  1.0000 -0.4994095196
O   O6        1.0  0.84880  0.28230  0.02030  1.0000 -0.4994095196
O   O7        1.0  0.34880  0.21770  0.97970  1.0000 -0.4994095196
O   O8        1.0  0.15120  0.78230  0.47970  1.0000 -0.4994095196
O   O9        1.0  0.62540  0.97810  0.83130  1.0000 -0.5322094043
O   O10       1.0  0.87460  0.02190  0.33130  1.0000 -0.5322094043
O   O11       1.0  0.37460  0.47810  0.66870  1.0000 -0.5322094043
O   O12       1.0  0.12540  0.52190  0.16870  1.0000 -0.5322094043
O   O13       1.0  0.41330  0.04350  0.74810  1.0000 -0.5717600738
O   O14       1.0  0.08670  0.95650  0.24810  1.0000 -0.5717600738
O   O15       1.0  0.58670  0.54350  0.75190  1.0000 -0.5717600738
O   O16       1.0  0.91330  0.45650  0.25190  1.0000 -0.5717600738
