# DDEC6 charges by PACMAN v1.1 (https://github.com/mtap-research/PACMAN-charge/)
data_2002[Cu][sxd]3[ASR]1
_chemical_formula_sum              "Cu4 H20 C24 N4 O12"
_cell_length_a       3.534
_cell_length_b       15.768
_cell_length_c       13.0616
_cell_angle_alpha    90
_cell_angle_beta     98.6968
_cell_angle_gamma    90

_symmetry_space_group_name_H-M    "P 1"
_symmetry_Int_Tables_number       1

loop_
  _symmetry_equiv_pos_as_xyz
  'x, y, z'

loop_
  _atom_site_type_symbol
  _atom_site_label
  _atom_site_symmetry_multiplicity
  _atom_site_fract_x
  _atom_site_fract_y
  _atom_site_fract_z
  _atom_site_occupancy
  _atom_site_charge
Cu  Cu1       1.0  0.76750  0.07802  0.50508  1.0000 0.8982856488
Cu  Cu2       1.0  0.23250  0.57802  0.99492  1.0000 0.8982856488
Cu  Cu3       1.0  0.23250  0.92198  0.49492  1.0000 0.8982856488
Cu  Cu4       1.0  0.76750  0.42198  0.00508  1.0000 0.8982856488
H   H1        1.0  0.71412  0.97605  0.36392  1.0000 0.3618140435
H   H2        1.0  0.28588  0.47605  0.13608  1.0000 0.3618140435
H   H3        1.0  0.28588  0.02395  0.63608  1.0000 0.3618140435
H   H4        1.0  0.71412  0.52395  0.86392  1.0000 0.3618140435
H   H5        1.0  0.91750  0.11150  0.72470  1.0000 0.1185649476
H   H6        1.0  0.08250  0.61150  0.77530  1.0000 0.1185649476
H   H7        1.0  0.08250  0.88850  0.27530  1.0000 0.1185649476
H   H8        1.0  0.91750  0.38850  0.22470  1.0000 0.1185649476
H   H9        1.0  0.17400  0.21640  0.83700  1.0000 0.1293781316
H   H10       1.0  0.82600  0.71640  0.66300  1.0000 0.1293781316
H   H11       1.0  0.82600  0.78360  0.16300  1.0000 0.1293781316
H   H12       1.0  0.17400  0.28360  0.33700  1.0000 0.1293781316
H   H13       1.0  0.07630  0.37760  0.59630  1.0000 0.1382848537
H   H14       1.0  0.92370  0.87760  0.90370  1.0000 0.1382848537
H   H15       1.0  0.92370  0.62240  0.40370  1.0000 0.1382848537
H   H16       1.0  0.07630  0.12240  0.09630  1.0000 0.1382848537
H   H17       1.0  0.81920  0.26860  0.49020  1.0000 0.1070526737
H   H18       1.0  0.18080  0.76860  0.00980  1.0000 0.1070526737
H   H19       1.0  0.18080  0.73140  0.50980  1.0000 0.1070526737
H   H20       1.0  0.81920  0.23140  0.99020  1.0000 0.1070526737
C   C1        1.0  0.95370  0.16540  0.69890  1.0000 0.0587019465
C   C2        1.0  0.04630  0.66540  0.80110  1.0000 0.0587019465
C   C3        1.0  0.04630  0.83460  0.30110  1.0000 0.0587019465
C   C4        1.0  0.95370  0.33460  0.19890  1.0000 0.0587019465
C   C5        1.0  0.10820  0.22810  0.76680  1.0000 -0.1564030619
C   C6        1.0  0.89180  0.72810  0.73320  1.0000 -0.1564030619
C   C7        1.0  0.89180  0.77190  0.23320  1.0000 -0.1564030619
C   C8        1.0  0.10820  0.27190  0.26680  1.0000 -0.1564030619
C   C9        1.0  0.16380  0.30860  0.72880  1.0000 0.0366175939
C   C10       1.0  0.83620  0.80860  0.77120  1.0000 0.0366175939
C   C11       1.0  0.83620  0.69140  0.27120  1.0000 0.0366175939
C   C12       1.0  0.16380  0.19140  0.22880  1.0000 0.0366175939
C   C13       1.0  0.04970  0.32380  0.62370  1.0000 -0.1564030619
C   C14       1.0  0.95030  0.82380  0.87630  1.0000 -0.1564030619
C   C15       1.0  0.95030  0.67620  0.37630  1.0000 -0.1564030619
C   C16       1.0  0.04970  0.17620  0.12370  1.0000 -0.1564030619
C   C17       1.0  0.89580  0.25800  0.56030  1.0000 0.0837723772
C   C18       1.0  0.10420  0.75800  0.93970  1.0000 0.0837723772
C   C19       1.0  0.10420  0.74200  0.43970  1.0000 0.0837723772
C   C20       1.0  0.89580  0.24200  0.06030  1.0000 0.0837723772
C   C21       1.0  0.35920  0.37740  0.79900  1.0000 0.5549007273
C   C22       1.0  0.64080  0.87740  0.70100  1.0000 0.5555764055
C   C23       1.0  0.64080  0.62260  0.20100  1.0000 0.5549007273
C   C24       1.0  0.35920  0.12260  0.29900  1.0000 0.5555764055
N   N1        1.0  0.85360  0.17961  0.59650  1.0000 -0.2300406889
N   N2        1.0  0.14640  0.67961  0.90350  1.0000 -0.2300406889
N   N3        1.0  0.14640  0.82039  0.40350  1.0000 -0.2300406889
N   N4        1.0  0.85360  0.32039  0.09650  1.0000 -0.2300406889
O   O1        1.0  0.74259  0.97162  0.42949  1.0000 -0.8381454134
O   O2        1.0  0.25741  0.47162  0.07051  1.0000 -0.8381454134
O   O3        1.0  0.25741  0.02838  0.57051  1.0000 -0.8381454134
O   O4        1.0  0.74259  0.52838  0.92949  1.0000 -0.8381454134
O   O5        1.0  0.43105  0.35786  0.89405  1.0000 -0.5836815619
O   O6        1.0  0.56895  0.85786  0.60595  1.0000 -0.5836815619
O   O7        1.0  0.56895  0.64214  0.10595  1.0000 -0.5836815619
O   O8        1.0  0.43105  0.14214  0.39405  1.0000 -0.5836815619
O   O9        1.0  0.43950  0.44504  0.75840  1.0000 -0.5230369949
O   O10       1.0  0.56050  0.94504  0.74160  1.0000 -0.5230369949
O   O11       1.0  0.56050  0.55496  0.24160  1.0000 -0.5230369949
O   O12       1.0  0.43950  0.05496  0.25840  1.0000 -0.5230369949
