# DDEC6 charges by PACMAN v1.1 (https://github.com/mtap-research/PACMAN-charge/)
data_2002[Cu][kdd]3[ASR]3
_chemical_formula_sum              "Cu2 H16 C24 N4 O8"
_cell_length_a       12.5766
_cell_length_b       12.5766
_cell_length_c       11.3254
_cell_angle_alpha    87.9707
_cell_angle_beta     92.0293
_cell_angle_gamma    23.4831

_symmetry_space_group_name_H-M    "P 1"
_symmetry_Int_Tables_number       1

loop_
  _symmetry_equiv_pos_as_xyz
  'x, y, z'

loop_
  _atom_site_type_symbol
  _atom_site_label
  _atom_site_symmetry_multiplicity
  _atom_site_fract_x
  _atom_site_fract_y
  _atom_site_fract_z
  _atom_site_occupancy
  _atom_site_charge
Cu  Cu1       1.0  0.82970  0.94436  0.21651  1.0000 0.7794879186
Cu  Cu2       1.0  0.05564  0.17030  0.71651  1.0000 0.7794879186
H   H1        1.0  0.20970  0.12750  0.49300  1.0000 0.1090716901
H   H2        1.0  0.87250  0.79030  0.99300  1.0000 0.1090716901
H   H3        1.0  0.14050  0.34730  0.37800  1.0000 0.1385706571
H   H4        1.0  0.65270  0.85950  0.87800  1.0000 0.1385706571
H   H5        1.0  0.63330  0.90750  0.59440  1.0000 0.1385706571
H   H6        1.0  0.09250  0.36670  0.09440  1.0000 0.1385706571
H   H7        1.0  0.71240  0.67580  0.70280  1.0000 0.1186195886
H   H8        1.0  0.32420  0.28760  0.20280  1.0000 0.1186195886
H   H9        1.0  0.52770  0.66510  0.89220  1.0000 0.1186195886
H   H10       1.0  0.33490  0.47230  0.39220  1.0000 0.1186195886
H   H11       1.0  0.66460  0.40300  0.03080  1.0000 0.1385706571
H   H12       1.0  0.59700  0.33540  0.53080  1.0000 0.1385706571
H   H13       1.0  0.92510  0.95150  0.94350  1.0000 0.1312411087
H   H14       1.0  0.04850  0.07490  0.44350  1.0000 0.1312411087
H   H15       1.0  0.81330  0.18970  0.80250  1.0000 0.1090716901
H   H16       1.0  0.81030  0.18670  0.30250  1.0000 0.1090716901
C   C1        1.0  0.09047  0.28827  0.51320  1.0000 0.0812140568
C   C2        1.0  0.71173  0.90953  0.01320  1.0000 0.0812140568
C   C3        1.0  0.05178  0.41758  0.44410  1.0000 -0.1537396801
C   C4        1.0  0.58242  0.94822  0.94410  1.0000 -0.1537396801
C   C5        1.0  0.88019  0.65179  0.47410  1.0000 0.0451472956
C   C6        1.0  0.34821  0.11981  0.97410  1.0000 0.0451472956
C   C7        1.0  0.75198  0.74818  0.57210  1.0000 -0.1573959221
C   C8        1.0  0.25182  0.24802  0.07210  1.0000 -0.1573959221
C   C9        1.0  0.79923  0.60943  0.63650  1.0000 0.0812140568
C   C10       1.0  0.39057  0.20077  0.13650  1.0000 0.0812140568
C   C11       1.0  0.82603  0.80563  0.40190  1.0000 0.5327238547
C   C12       1.0  0.19437  0.17397  0.90190  1.0000 0.5327238547
C   C13       1.0  0.40560  0.72200  0.90190  1.0000 0.1009004819
C   C14       1.0  0.27800  0.59440  0.40190  1.0000 0.1009004819
C   C15       1.0  0.48865  0.56465  0.98590  1.0000 -0.1573959221
C   C16       1.0  0.43535  0.51135  0.48590  1.0000 -0.1573959221
C   C17       1.0  0.30901  0.64801  0.00340  1.0000 0.0249737142
C   C18       1.0  0.35199  0.69099  0.50340  1.0000 0.0254516392
C   C19       1.0  0.05279  0.88739  0.93370  1.0000 -0.1537396801
C   C20       1.0  0.11261  0.94721  0.43370  1.0000 -0.1537396801
C   C21       1.0  0.98634  0.03034  0.85030  1.0000 0.0684327851
C   C22       1.0  0.96966  0.01366  0.35030  1.0000 0.0684327851
C   C23       1.0  0.38895  0.48315  0.09160  1.0000 0.5604522931
C   C24       1.0  0.51685  0.61105  0.59160  1.0000 0.5604522931
N   N1        1.0  0.96787  0.37967  0.60650  1.0000 -0.2157415715
N   N2        1.0  0.62033  0.03213  0.10650  1.0000 -0.2157415715
N   N3        1.0  0.15953  0.95133  0.83390  1.0000 -0.2252875981
N   N4        1.0  0.04867  0.84047  0.33390  1.0000 -0.2252875981
O   O1        1.0  0.95935  0.69715  0.31690  1.0000 -0.5324761165
O   O2        1.0  0.30285  0.04065  0.81690  1.0000 -0.5324761165
O   O3        1.0  0.65595  0.02395  0.42770  1.0000 -0.5512437713
O   O4        1.0  0.97605  0.34405  0.92770  1.0000 -0.5512437713
O   O5        1.0  0.64464  0.23704  0.12610  1.0000 -0.5594456685
O   O6        1.0  0.76296  0.35536  0.62610  1.0000 -0.5594456685
O   O7        1.0  0.21013  0.59033  0.12370  1.0000 -0.5706551266
O   O8        1.0  0.40967  0.78987  0.62370  1.0000 -0.5706551266
