# DDEC6 charges by PACMAN v1.1 (https://github.com/mtap-research/PACMAN-charge/)
data_2003[Co][nan]3[ASR]1
_chemical_formula_sum              "Co4 H72 C72 S4 N12 O16"
_cell_length_a       15.3339
_cell_length_b       15.3339
_cell_length_c       13.644
_cell_angle_alpha    77.6685
_cell_angle_beta     102.332
_cell_angle_gamma    99.1727

_symmetry_space_group_name_H-M    "P 1"
_symmetry_Int_Tables_number       1

loop_
  _symmetry_equiv_pos_as_xyz
  'x, y, z'

loop_
  _atom_site_type_symbol
  _atom_site_label
  _atom_site_symmetry_multiplicity
  _atom_site_fract_x
  _atom_site_fract_y
  _atom_site_fract_z
  _atom_site_occupancy
  _atom_site_charge
Co  Co1       1.0  0.50000  0.00000  0.50000  1.0000 0.7762242518
Co  Co2       1.0  0.00000  0.50000  0.00000  1.0000 0.7762242518
Co  Co3       1.0  0.18793  0.18793  0.25000  1.0000 0.8454484007
Co  Co4       1.0  0.81207  0.81207  0.75000  1.0000 0.8454484007
H   H1        1.0  0.20560  0.39060  0.18120  1.0000 0.1098147406
H   H2        1.0  0.60940  0.79440  0.68120  1.0000 0.1098147406
H   H3        1.0  0.79440  0.60940  0.81880  1.0000 0.1098147406
H   H4        1.0  0.39060  0.20560  0.31880  1.0000 0.1098147406
H   H5        1.0  0.24680  0.52200  0.23650  1.0000 0.1385206914
H   H6        1.0  0.47800  0.75320  0.73650  1.0000 0.1385206914
H   H7        1.0  0.75320  0.47800  0.76350  1.0000 0.1385206914
H   H8        1.0  0.52200  0.24680  0.26350  1.0000 0.1385206914
H   H9        1.0  0.62850  0.01550  0.70390  1.0000 0.1186971918
H   H10       1.0  0.98450  0.37150  0.20390  1.0000 0.1186971918
H   H11       1.0  0.37150  0.98450  0.29610  1.0000 0.1186971918
H   H12       1.0  0.01550  0.62850  0.79610  1.0000 0.1186971918
H   H13       1.0  0.29470  0.70410  0.50120  1.0000 0.1385206914
H   H14       1.0  0.29590  0.70530  0.00120  1.0000 0.1385206914
H   H15       1.0  0.70530  0.29590  0.49880  1.0000 0.1385206914
H   H16       1.0  0.70410  0.29470  0.99880  1.0000 0.1385206914
H   H17       1.0  0.36930  0.95710  0.65550  1.0000 0.1186971918
H   H18       1.0  0.04290  0.63070  0.15550  1.0000 0.1186971918
H   H19       1.0  0.63070  0.04290  0.34450  1.0000 0.1186971918
H   H20       1.0  0.95710  0.36930  0.84450  1.0000 0.1186971918
H   H21       1.0  0.57290  0.83370  0.47870  1.0000 0.1186971918
H   H22       1.0  0.16630  0.42710  0.97870  1.0000 0.1186971918
H   H23       1.0  0.42710  0.16630  0.52130  1.0000 0.1186971918
H   H24       1.0  0.83370  0.57290  0.02130  1.0000 0.1186971918
H   H25       1.0  0.34060  0.84880  0.52720  1.0000 0.1098147406
H   H26       1.0  0.15120  0.65940  0.02720  1.0000 0.1098147406
H   H27       1.0  0.65940  0.15120  0.47280  1.0000 0.1098147406
H   H28       1.0  0.84880  0.34060  0.97280  1.0000 0.1098147406
H   H29       1.0  0.40630  0.54270  0.51730  1.0000 0.1186971918
H   H30       1.0  0.45730  0.59370  0.01730  1.0000 0.1186971918
H   H31       1.0  0.59370  0.45730  0.48270  1.0000 0.1186971918
H   H32       1.0  0.54270  0.40630  0.98270  1.0000 0.1186971918
H   H33       1.0  0.41370  0.57690  0.40250  1.0000 0.1186971918
H   H34       1.0  0.42310  0.58630  0.90250  1.0000 0.1186971918
H   H35       1.0  0.58630  0.42310  0.59750  1.0000 0.1186971918
H   H36       1.0  0.57690  0.41370  0.09750  1.0000 0.1186971918
H   H37       1.0  0.63580  0.99540  0.87090  1.0000 0.1385206914
H   H38       1.0  0.00460  0.36420  0.37090  1.0000 0.1385206914
H   H39       1.0  0.36420  0.00460  0.12910  1.0000 0.1385206914
H   H40       1.0  0.99540  0.63580  0.62910  1.0000 0.1385206914
H   H41       1.0  0.28010  0.38590  0.51980  1.0000 0.1385206914
H   H42       1.0  0.61410  0.71990  0.01980  1.0000 0.1385206914
H   H43       1.0  0.71990  0.61410  0.48020  1.0000 0.1385206914
H   H44       1.0  0.38590  0.28010  0.98020  1.0000 0.1385206914
H   H45       1.0  0.53650  0.68950  0.45290  1.0000 0.1341830901
H   H46       1.0  0.31050  0.46350  0.95290  1.0000 0.1341830901
H   H47       1.0  0.46350  0.31050  0.54710  1.0000 0.1341830901
H   H48       1.0  0.68950  0.53650  0.04710  1.0000 0.1341830901
H   H49       1.0  0.24020  0.25560  0.45460  1.0000 0.1186971918
H   H50       1.0  0.74440  0.75980  0.95460  1.0000 0.1186971918
H   H51       1.0  0.75980  0.74440  0.54540  1.0000 0.1186971918
H   H52       1.0  0.25560  0.24020  0.04540  1.0000 0.1186971918
H   H53       1.0  0.25740  0.54920  0.48330  1.0000 0.1186971918
H   H54       1.0  0.45080  0.74260  0.98330  1.0000 0.1186971918
H   H55       1.0  0.74260  0.45080  0.51670  1.0000 0.1186971918
H   H56       1.0  0.54920  0.25740  0.01670  1.0000 0.1186971918
H   H57       1.0  0.26030  0.60190  0.37210  1.0000 0.1186971918
H   H58       1.0  0.39810  0.73970  0.87210  1.0000 0.1186971918
H   H59       1.0  0.73970  0.39810  0.62790  1.0000 0.1186971918
H   H60       1.0  0.60190  0.26030  0.12790  1.0000 0.1186971918
H   H61       1.0  0.36880  0.93360  0.82640  1.0000 0.1385206914
H   H62       1.0  0.06640  0.63120  0.32640  1.0000 0.1385206914
H   H63       1.0  0.63120  0.06640  0.17360  1.0000 0.1385206914
H   H64       1.0  0.93360  0.36880  0.67360  1.0000 0.1385206914
H   H65       1.0  0.45010  0.91330  0.00020  1.0000 0.1186971918
H   H66       1.0  0.08670  0.54990  0.50020  1.0000 0.1186971918
H   H67       1.0  0.54990  0.08670  0.99980  1.0000 0.1186971918
H   H68       1.0  0.91330  0.45010  0.49980  1.0000 0.1186971918
H   H69       1.0  0.55540  0.92940  0.02400  1.0000 0.1186971918
H   H70       1.0  0.07060  0.44460  0.52400  1.0000 0.1186971918
H   H71       1.0  0.44460  0.07060  0.97600  1.0000 0.1186971918
H   H72       1.0  0.92940  0.55540  0.47600  1.0000 0.1186971918
C   C1        1.0  0.22250  0.38870  0.25120  1.0000 0.0872854943
C   C2        1.0  0.61130  0.77750  0.75120  1.0000 0.0872854943
C   C3        1.0  0.77750  0.61130  0.74880  1.0000 0.0872854943
C   C4        1.0  0.38870  0.22250  0.24880  1.0000 0.0872854943
C   C5        1.0  0.24520  0.46820  0.28330  1.0000 -0.2023347005
C   C6        1.0  0.53180  0.75480  0.78330  1.0000 -0.2023347005
C   C7        1.0  0.75480  0.53180  0.71670  1.0000 -0.2023347005
C   C8        1.0  0.46820  0.24520  0.21670  1.0000 -0.2023347005
C   C9        1.0  0.40840  0.67840  0.47500  1.0000 0.1486877276
C   C10       1.0  0.32160  0.59160  0.97500  1.0000 0.1486877276
C   C11       1.0  0.59160  0.32160  0.52500  1.0000 0.1486877276
C   C12       1.0  0.67840  0.40840  0.02500  1.0000 0.1486877276
C   C13       1.0  0.57550  0.99750  0.72920  1.0000 0.0697532357
C   C14       1.0  0.00250  0.42450  0.22920  1.0000 0.0647940597
C   C15       1.0  0.42450  0.00250  0.27080  1.0000 0.0697532357
C   C16       1.0  0.99750  0.57550  0.77080  1.0000 0.0647940597
C   C17       1.0  0.26600  0.46820  0.38650  1.0000 0.1486877276
C   C18       1.0  0.53180  0.73400  0.88650  1.0000 0.1486877276
C   C19       1.0  0.73400  0.53180  0.61350  1.0000 0.1486877276
C   C20       1.0  0.46820  0.26600  0.11350  1.0000 0.1486877276
C   C21       1.0  0.35320  0.72900  0.49580  1.0000 -0.2068937579
C   C22       1.0  0.27100  0.64680  0.99580  1.0000 -0.2068937579
C   C23       1.0  0.64680  0.27100  0.50420  1.0000 -0.2068937579
C   C24       1.0  0.72900  0.35320  0.00420  1.0000 -0.2068937579
C   C25       1.0  0.42400  0.96320  0.70030  1.0000 0.0872854943
C   C26       1.0  0.03680  0.57600  0.20030  1.0000 0.0872854943
C   C27       1.0  0.57600  0.03680  0.29970  1.0000 0.0872854943
C   C28       1.0  0.96320  0.42400  0.79970  1.0000 0.0872854943
C   C29       1.0  0.51420  0.80760  0.48150  1.0000 0.0872854943
C   C30       1.0  0.19240  0.48580  0.98150  1.0000 0.0872854943
C   C31       1.0  0.48580  0.19240  0.51850  1.0000 0.0872854943
C   C32       1.0  0.80760  0.51420  0.01850  1.0000 0.0872854943
C   C33       1.0  0.38040  0.81760  0.50960  1.0000 0.0872854943
C   C34       1.0  0.18240  0.61960  0.00960  1.0000 0.0872854943
C   C35       1.0  0.61960  0.18240  0.49040  1.0000 0.0872854943
C   C36       1.0  0.81760  0.38040  0.99040  1.0000 0.0872854943
C   C37       1.0  0.38330  0.58350  0.45560  1.0000 -0.223286545
C   C38       1.0  0.41650  0.61670  0.95560  1.0000 -0.223286545
C   C39       1.0  0.61670  0.41650  0.54440  1.0000 -0.223286545
C   C40       1.0  0.58350  0.38330  0.04440  1.0000 -0.223286545
C   C41       1.0  0.57980  0.98740  0.82890  1.0000 -0.2023347005
C   C42       1.0  0.01260  0.42020  0.32890  1.0000 -0.2023347005
C   C43       1.0  0.42020  0.01260  0.17110  1.0000 -0.2068937579
C   C44       1.0  0.98740  0.57980  0.67110  1.0000 -0.2023347005
C   C45       1.0  0.50370  0.96570  0.87270  1.0000 0.1551349423
C   C46       1.0  0.03430  0.49630  0.37270  1.0000 0.1551349423
C   C47       1.0  0.49630  0.03430  0.12730  1.0000 0.1551349423
C   C48       1.0  0.96570  0.50370  0.62730  1.0000 0.1551349423
C   C49       1.0  0.26520  0.38880  0.44950  1.0000 -0.2023347005
C   C50       1.0  0.61120  0.73480  0.94950  1.0000 -0.2023347005
C   C51       1.0  0.73480  0.61120  0.55050  1.0000 -0.2023347005
C   C52       1.0  0.38880  0.26520  0.05050  1.0000 -0.2023347005
C   C53       1.0  0.49400  0.71980  0.46720  1.0000 -0.2377868706
C   C54       1.0  0.28020  0.50600  0.96720  1.0000 -0.2377868706
C   C55       1.0  0.50600  0.28020  0.53280  1.0000 -0.2377868706
C   C56       1.0  0.71980  0.49400  0.03280  1.0000 -0.2377868706
C   C57       1.0  0.24210  0.31050  0.40950  1.0000 0.0697532357
C   C58       1.0  0.68950  0.75790  0.90950  1.0000 0.0697532357
C   C59       1.0  0.75790  0.68950  0.59050  1.0000 0.0697532357
C   C60       1.0  0.31050  0.24210  0.09050  1.0000 0.0697532357
C   C61       1.0  0.28620  0.55520  0.42510  1.0000 -0.2294708436
C   C62       1.0  0.44480  0.71380  0.92510  1.0000 -0.2294708436
C   C63       1.0  0.71380  0.44480  0.57490  1.0000 -0.2294708436
C   C64       1.0  0.55520  0.28620  0.07490  1.0000 -0.2294708436
C   C65       1.0  0.42280  0.95120  0.80300  1.0000 -0.2294708436
C   C66       1.0  0.04880  0.57720  0.30300  1.0000 -0.2294708436
C   C67       1.0  0.57720  0.04880  0.19700  1.0000 -0.2294708436
C   C68       1.0  0.95120  0.42280  0.69700  1.0000 -0.2294708436
C   C69       1.0  0.50200  0.95500  0.98430  1.0000 -0.2377868706
C   C70       1.0  0.04500  0.49800  0.48430  1.0000 -0.2377868706
C   C71       1.0  0.49800  0.04500  0.01570  1.0000 -0.2377868706
C   C72       1.0  0.95500  0.50200  0.51570  1.0000 -0.2377868706
S   S1        1.0  0.26979  0.02649  0.43860  1.0000 1.4156670532
S   S2        1.0  0.97351  0.73021  0.93860  1.0000 1.4156670532
S   S3        1.0  0.73021  0.97351  0.56140  1.0000 1.4156670532
S   S4        1.0  0.02649  0.26979  0.06140  1.0000 1.4156670532
N   N1        1.0  0.46120  0.85800  0.49840  1.0000 -0.223286545
N   N2        1.0  0.14200  0.53880  0.99840  1.0000 -0.223286545
N   N3        1.0  0.53880  0.14200  0.50160  1.0000 -0.223286545
N   N4        1.0  0.85800  0.46120  0.00160  1.0000 -0.223286545
N   N5        1.0  0.49800  0.98280  0.66190  1.0000 -0.2377868706
N   N6        1.0  0.01720  0.50200  0.16190  1.0000 -0.2377868706
N   N7        1.0  0.50200  0.01720  0.33810  1.0000 -0.2377868706
N   N8        1.0  0.98280  0.49800  0.83810  1.0000 -0.2377868706
N   N9        1.0  0.22220  0.31020  0.30980  1.0000 -0.2377868706
N   N10       1.0  0.68980  0.77780  0.80980  1.0000 -0.2377868706
N   N11       1.0  0.77780  0.68980  0.69020  1.0000 -0.2377868706
N   N12       1.0  0.31020  0.22220  0.19020  1.0000 -0.2377868706
O   O1        1.0  0.25221  0.11739  0.38740  1.0000 -0.702957023
O   O2        1.0  0.88261  0.74779  0.88740  1.0000 -0.702957023
O   O3        1.0  0.74779  0.88261  0.61260  1.0000 -0.702957023
O   O4        1.0  0.11739  0.25221  0.11260  1.0000 -0.702957023
O   O5        1.0  0.36664  0.02316  0.46650  1.0000 -0.6922558287
O   O6        1.0  0.97684  0.63336  0.96650  1.0000 -0.6922558287
O   O7        1.0  0.63336  0.97684  0.53350  1.0000 -0.6922558287
O   O8        1.0  0.02316  0.36664  0.03350  1.0000 -0.6922558287
O   O9        1.0  0.23280  0.96540  0.36420  1.0000 -0.6728444138
O   O10       1.0  0.03460  0.76720  0.86420  1.0000 -0.6728444138
O   O11       1.0  0.76720  0.03460  0.63580  1.0000 -0.6728444138
O   O12       1.0  0.96540  0.23280  0.13580  1.0000 -0.6728444138
O   O13       1.0  0.23060  0.99860  0.52910  1.0000 -0.6588134357
O   O14       1.0  0.00140  0.76940  0.02910  1.0000 -0.6588134357
O   O15       1.0  0.76940  0.00140  0.47090  1.0000 -0.6588134357
O   O16       1.0  0.99860  0.23060  0.97090  1.0000 -0.6588134357
