# DDEC6 charges by PACMAN v1.1 (https://github.com/mtap-research/PACMAN-charge/)
data_2003[Bi][dia]3[ASR]1
_chemical_formula_sum              "Bi2 C8 O16"
_cell_length_a       9.46826
_cell_length_b       9.46826
_cell_length_c       9.46826
_cell_angle_alpha    103.761
_cell_angle_beta     103.761
_cell_angle_gamma    121.618

_symmetry_space_group_name_H-M    "P 1"
_symmetry_Int_Tables_number       1

loop_
  _symmetry_equiv_pos_as_xyz
  'x, y, z'

loop_
  _atom_site_type_symbol
  _atom_site_label
  _atom_site_symmetry_multiplicity
  _atom_site_fract_x
  _atom_site_fract_y
  _atom_site_fract_z
  _atom_site_occupancy
  _atom_site_charge
Bi  Bi1       1.0  0.25000  0.75000  0.50000  1.0000 1.5713288417
Bi  Bi2       1.0  0.00000  0.00000  0.00000  1.0000 1.5713288417
C   C1        1.0  0.04800  0.31700  0.26900  1.0000 0.4971452324
C   C2        1.0  0.02900  0.79800  0.23100  1.0000 0.4971452324
C   C3        1.0  0.20200  0.43300  0.23100  1.0000 0.4971452324
C   C4        1.0  0.04800  0.77900  0.73100  1.0000 0.4971452324
C   C5        1.0  0.22100  0.95200  0.26900  1.0000 0.4971452324
C   C6        1.0  0.56700  0.79800  0.76900  1.0000 0.4971452324
C   C7        1.0  0.20200  0.97100  0.76900  1.0000 0.4971452324
C   C8        1.0  0.68300  0.95200  0.73100  1.0000 0.4971452324
O   O1        1.0  0.03400  0.41020  0.37620  1.0000 -0.4331367345
O   O2        1.0  0.90780  0.78400  0.12380  1.0000 -0.4331367345
O   O3        1.0  0.21600  0.33980  0.12380  1.0000 -0.4331367345
O   O4        1.0  0.03400  0.65780  0.62380  1.0000 -0.4331367345
O   O5        1.0  0.34220  0.96600  0.37620  1.0000 -0.4331367345
O   O6        1.0  0.66020  0.78400  0.87620  1.0000 -0.4331367345
O   O7        1.0  0.21600  0.09220  0.87620  1.0000 -0.4331367345
O   O8        1.0  0.58980  0.96600  0.62380  1.0000 -0.4331367345
O   O9        1.0  0.94500  0.14860  0.20360  1.0000 -0.4568407083
O   O10       1.0  0.99140  0.69500  0.29640  1.0000 -0.4568407083
O   O11       1.0  0.30500  0.60140  0.29640  1.0000 -0.4568407083
O   O12       1.0  0.94500  0.74140  0.79640  1.0000 -0.4568407083
O   O13       1.0  0.25860  0.05500  0.20360  1.0000 -0.4568407083
O   O14       1.0  0.39860  0.69500  0.70360  1.0000 -0.4568407083
O   O15       1.0  0.30500  0.00860  0.70360  1.0000 -0.4568407083
O   O16       1.0  0.85140  0.05500  0.79640  1.0000 -0.4568407083
