# DDEC6 charges by PACMAN v1.1 (https://github.com/mtap-research/PACMAN-charge/)
data_2003[Er][tcs]3[ASR]2
_chemical_formula_sum              "Er4 H12 C24 O24"
_cell_length_a       8.457
_cell_length_b       17.225
_cell_length_c       9.69
_cell_angle_alpha    90
_cell_angle_beta     112.22
_cell_angle_gamma    90

_symmetry_space_group_name_H-M    "P 1"
_symmetry_Int_Tables_number       1

loop_
  _symmetry_equiv_pos_as_xyz
  'x, y, z'

loop_
  _atom_site_type_symbol
  _atom_site_label
  _atom_site_symmetry_multiplicity
  _atom_site_fract_x
  _atom_site_fract_y
  _atom_site_fract_z
  _atom_site_occupancy
  _atom_site_charge
Er  Er1       1.0  0.34414  0.25740  0.02392  1.0000 2.0410727663
Er  Er2       1.0  0.65586  0.75740  0.47608  1.0000 2.0410727663
Er  Er3       1.0  0.65586  0.74260  0.97608  1.0000 2.0410727663
Er  Er4       1.0  0.34414  0.24260  0.52392  1.0000 2.0410727663
H   H1        1.0  0.39100  0.98000  0.08300  1.0000 0.1405064951
H   H2        1.0  0.60900  0.48000  0.41700  1.0000 0.1405064951
H   H3        1.0  0.60900  0.02000  0.91700  1.0000 0.1405064951
H   H4        1.0  0.39100  0.52000  0.58300  1.0000 0.1405064951
H   H5        1.0  0.80600  0.31800  0.15600  1.0000 0.1405064951
H   H6        1.0  0.19400  0.81800  0.34400  1.0000 0.1405064951
H   H7        1.0  0.19400  0.68200  0.84400  1.0000 0.1405064951
H   H8        1.0  0.80600  0.18200  0.65600  1.0000 0.1405064951
H   H9        1.0  0.85900  0.27000  0.90400  1.0000 0.1405064951
H   H10       1.0  0.14100  0.77000  0.59600  1.0000 0.1405064951
H   H11       1.0  0.14100  0.73000  0.09600  1.0000 0.1405064951
H   H12       1.0  0.85900  0.23000  0.40400  1.0000 0.1405064951
C   C1        1.0  0.06110  0.28920  0.19860  1.0000 0.7013358874
C   C2        1.0  0.93890  0.78920  0.30140  1.0000 0.7013358874
C   C3        1.0  0.93890  0.71080  0.80140  1.0000 0.7013358874
C   C4        1.0  0.06110  0.21080  0.69860  1.0000 0.7013358874
C   C5        1.0  0.87650  0.30100  0.10270  1.0000 -0.1685170745
C   C6        1.0  0.12350  0.80100  0.39730  1.0000 -0.1685170745
C   C7        1.0  0.12350  0.69900  0.89730  1.0000 -0.1685170745
C   C8        1.0  0.87650  0.19900  0.60270  1.0000 -0.1685170745
C   C9        1.0  0.81290  0.28330  0.96200  1.0000 -0.1685170745
C   C10       1.0  0.18710  0.78330  0.53800  1.0000 -0.1685170745
C   C11       1.0  0.18710  0.71670  0.03800  1.0000 -0.1685170745
C   C12       1.0  0.81290  0.21670  0.46200  1.0000 -0.1685170745
C   C13       1.0  0.62890  0.28620  0.86740  1.0000 0.7013358874
C   C14       1.0  0.37110  0.78620  0.63260  1.0000 0.7013358874
C   C15       1.0  0.37110  0.71380  0.13260  1.0000 0.7013358874
C   C16       1.0  0.62890  0.21380  0.36740  1.0000 0.7013358874
C   C17       1.0  0.40530  0.09850  0.02560  1.0000 0.6009709043
C   C18       1.0  0.59470  0.59850  0.47440  1.0000 0.6009709043
C   C19       1.0  0.59470  0.90150  0.97440  1.0000 0.6009709043
C   C20       1.0  0.40530  0.40150  0.52560  1.0000 0.6009709043
C   C21       1.0  0.44590  0.01450  0.02870  1.0000 -0.1587012531
C   C22       1.0  0.55410  0.51450  0.47130  1.0000 -0.1587012531
C   C23       1.0  0.55410  0.98550  0.97130  1.0000 -0.1587012531
C   C24       1.0  0.44590  0.48550  0.52870  1.0000 -0.1587012531
O   O1        1.0  0.16340  0.27000  0.13900  1.0000 -0.7259117709
O   O2        1.0  0.83660  0.77000  0.36100  1.0000 -0.7259117709
O   O3        1.0  0.83660  0.73000  0.86100  1.0000 -0.7259117709
O   O4        1.0  0.16340  0.23000  0.63900  1.0000 -0.7259117709
O   O5        1.0  0.10320  0.29640  0.33630  1.0000 -0.6460572677
O   O6        1.0  0.89680  0.79640  0.16370  1.0000 -0.6460572677
O   O7        1.0  0.89680  0.70360  0.66370  1.0000 -0.6460572677
O   O8        1.0  0.10320  0.20360  0.83630  1.0000 -0.6460572677
O   O9        1.0  0.52390  0.30540  0.92400  1.0000 -0.6924668895
O   O10       1.0  0.47610  0.80540  0.57600  1.0000 -0.6924668895
O   O11       1.0  0.47610  0.69460  0.07600  1.0000 -0.6924668895
O   O12       1.0  0.52390  0.19460  0.42400  1.0000 -0.6924668895
O   O13       1.0  0.58820  0.26870  0.73160  1.0000 -0.6701935129
O   O14       1.0  0.41180  0.76870  0.76840  1.0000 -0.6701935129
O   O15       1.0  0.41180  0.73130  0.26840  1.0000 -0.6701935129
O   O16       1.0  0.58820  0.23130  0.23160  1.0000 -0.6701935129
O   O17       1.0  0.31420  0.12210  0.09160  1.0000 -0.573832889
O   O18       1.0  0.68580  0.62210  0.40840  1.0000 -0.573832889
O   O19       1.0  0.68580  0.87790  0.90840  1.0000 -0.573832889
O   O20       1.0  0.31420  0.37790  0.59160  1.0000 -0.573832889
O   O21       1.0  0.46440  0.14520  0.95460  1.0000 -0.6620371984
O   O22       1.0  0.53560  0.64520  0.54540  1.0000 -0.6620371984
O   O23       1.0  0.53560  0.85480  0.04540  1.0000 -0.6620371984
O   O24       1.0  0.46440  0.35480  0.45460  1.0000 -0.6620371984
