# DDEC6 charges by PACMAN v1.1 (https://github.com/mtap-research/PACMAN-charge/)
data_2003[Co][neb]3[ASR]1
_chemical_formula_sum              "Co4 H24 C24 N16"
_cell_length_a       16.4211
_cell_length_b       14.5781
_cell_length_c       9.91789
_cell_angle_alpha    81.8023
_cell_angle_beta     61.4853
_cell_angle_gamma    36.7124

_symmetry_space_group_name_H-M    "P 1"
_symmetry_Int_Tables_number       1

loop_
  _symmetry_equiv_pos_as_xyz
  'x, y, z'

loop_
  _atom_site_type_symbol
  _atom_site_label
  _atom_site_symmetry_multiplicity
  _atom_site_fract_x
  _atom_site_fract_y
  _atom_site_fract_z
  _atom_site_occupancy
  _atom_site_charge
Co  Co1       1.0  0.16247  0.96357  0.40761  1.0000 0.6080323768
Co  Co2       1.0  0.46635  0.40761  0.96357  1.0000 0.6080323768
Co  Co3       1.0  0.28643  0.08753  0.78365  1.0000 0.6080323768
Co  Co4       1.0  0.84239  0.78365  0.08753  1.0000 0.6080323768
H   H1        1.0  0.08880  0.14100  0.15360  1.0000 0.0893129104
H   H2        1.0  0.61660  0.15360  0.14100  1.0000 0.0893129104
H   H3        1.0  0.10900  0.16120  0.63340  1.0000 0.0893129104
H   H4        1.0  0.09640  0.63340  0.16120  1.0000 0.0893129104
H   H5        1.0  0.58020  0.78100  0.82900  1.0000 0.1091910473
H   H6        1.0  0.80980  0.82900  0.78100  1.0000 0.1091910473
H   H7        1.0  0.46900  0.66980  0.44020  1.0000 0.1091910473
H   H8        1.0  0.42100  0.44020  0.66980  1.0000 0.1091910473
H   H9        1.0  0.52680  0.73140  0.07720  1.0000 0.1019749281
H   H10       1.0  0.66460  0.07720  0.73140  1.0000 0.1019749281
H   H11       1.0  0.51860  0.72320  0.58540  1.0000 0.1019749281
H   H12       1.0  0.17280  0.58540  0.72320  1.0000 0.1019749281
H   H13       1.0  0.36180  0.68520  0.10140  1.0000 0.0893129104
H   H14       1.0  0.85160  0.10140  0.68520  1.0000 0.0893129104
H   H15       1.0  0.56480  0.88820  0.39840  1.0000 0.0893129104
H   H16       1.0  0.14860  0.39840  0.88820  1.0000 0.0893129104
H   H17       1.0  0.26510  0.53290  0.38570  1.0000 0.1091910473
H   H18       1.0  0.81630  0.38570  0.53290  1.0000 0.1091910473
H   H19       1.0  0.71710  0.98490  0.43370  1.0000 0.1091910473
H   H20       1.0  0.86430  0.43370  0.98490  1.0000 0.1091910473
H   H21       1.0  0.13600  0.76540  0.57260  1.0000 0.1019749281
H   H22       1.0  0.52600  0.57260  0.76540  1.0000 0.1019749281
H   H23       1.0  0.48460  0.11400  0.72400  1.0000 0.1019749281
H   H24       1.0  0.67740  0.72400  0.11400  1.0000 0.1019749281
C   C1        1.0  0.20533  0.04513  0.10407  1.0000 0.1287865129
C   C2        1.0  0.64547  0.10407  0.04513  1.0000 0.1287865129
C   C3        1.0  0.20487  0.04467  0.60453  1.0000 0.1287865129
C   C4        1.0  0.14593  0.60453  0.04467  1.0000 0.1287865129
C   C5        1.0  0.47300  0.84900  0.92600  1.0000 -0.0676177188
C   C6        1.0  0.75200  0.92600  0.84900  1.0000 -0.0676177188
C   C7        1.0  0.40100  0.77700  0.49800  1.0000 -0.0676177188
C   C8        1.0  0.32400  0.49800  0.77700  1.0000 -0.0676177188
C   C9        1.0  0.44350  0.82190  0.06330  1.0000 -0.0801682982
C   C10       1.0  0.67130  0.06330  0.82190  1.0000 -0.0801682982
C   C11       1.0  0.42810  0.80650  0.57870  1.0000 -0.0801682982
C   C12       1.0  0.18670  0.57870  0.80650  1.0000 -0.0801682982
C   C13       1.0  0.32220  0.67520  0.19680  1.0000 0.1377217931
C   C14       1.0  0.80580  0.19680  0.67520  1.0000 0.1377217931
C   C15       1.0  0.57480  0.92780  0.44420  1.0000 0.1377217931
C   C16       1.0  0.05320  0.44420  0.92780  1.0000 0.1377217931
C   C17       1.0  0.26990  0.59170  0.34930  1.0000 -0.0676177188
C   C18       1.0  0.78910  0.34930  0.59170  1.0000 -0.0676177188
C   C19       1.0  0.65830  0.98010  0.46090  1.0000 -0.0676177188
C   C20       1.0  0.90070  0.46090  0.98010  1.0000 -0.0676177188
C   C21       1.0  0.19910  0.71970  0.45330  1.0000 -0.0801682982
C   C22       1.0  0.62790  0.45330  0.71970  1.0000 -0.0801682982
C   C23       1.0  0.53030  0.05090  0.62210  1.0000 -0.0801682982
C   C24       1.0  0.79670  0.62210  0.05090  1.0000 -0.0801682982
N   N1        1.0  0.26986  0.94946  0.18174  1.0000 -0.2984873546
N   N2        1.0  0.59894  0.18174  0.94946  1.0000 -0.2984873546
N   N3        1.0  0.30054  0.98014  0.65106  1.0000 -0.2984873546
N   N4        1.0  0.06826  0.65106  0.98014  1.0000 -0.2984873546
N   N5        1.0  0.32102  0.99222  0.95038  1.0000 -0.28885502
N   N6        1.0  0.73638  0.95038  0.99222  1.0000 -0.2984873546
N   N7        1.0  0.25778  0.92898  0.51362  1.0000 -0.2984873546
N   N8        1.0  0.29962  0.51362  0.92898  1.0000 -0.2984873546
N   N9        1.0  0.23736  0.76976  0.35164  1.0000 -0.2848898607
N   N10       1.0  0.64124  0.35164  0.76976  1.0000 -0.28885502
N   N11       1.0  0.48024  0.01264  0.60876  1.0000 -0.2848898607
N   N12       1.0  0.89836  0.60876  0.01264  1.0000 -0.28885502
N   N13       1.0  0.34824  0.56244  0.18496  1.0000 -0.2984873546
N   N14       1.0  0.90436  0.18496  0.56244  1.0000 -0.2984873546
N   N15       1.0  0.68756  0.90176  0.34564  1.0000 -0.2984873546
N   N16       1.0  0.06504  0.34564  0.90176  1.0000 -0.2984873546
