# DDEC6 charges by PACMAN v1.1 (https://github.com/mtap-research/PACMAN-charge/)
data_2003[Zn][pts]3[ASR]1
_chemical_formula_sum              "Zn4 H8 C40 O32"
_cell_length_a       10.8778
_cell_length_b       15.1518
_cell_length_c       15.0292
_cell_angle_alpha    90
_cell_angle_beta     129.762
_cell_angle_gamma    90

_symmetry_space_group_name_H-M    "P 1"
_symmetry_Int_Tables_number       1

loop_
  _symmetry_equiv_pos_as_xyz
  'x, y, z'

loop_
  _atom_site_type_symbol
  _atom_site_label
  _atom_site_symmetry_multiplicity
  _atom_site_fract_x
  _atom_site_fract_y
  _atom_site_fract_z
  _atom_site_occupancy
  _atom_site_charge
Zn  Zn1       1.0  0.75605  0.01240  0.50122  1.0000 0.9663775622
Zn  Zn2       1.0  0.75605  0.48760  0.00122  1.0000 0.9663775622
Zn  Zn3       1.0  0.24395  0.98760  0.49878  1.0000 0.9663775622
Zn  Zn4       1.0  0.24395  0.51240  0.99878  1.0000 0.9663775622
H   H1        1.0  0.43380  0.21740  0.73190  1.0000 0.1370862222
H   H2        1.0  0.43380  0.28260  0.23190  1.0000 0.1370862222
H   H3        1.0  0.56620  0.78260  0.26810  1.0000 0.1370862222
H   H4        1.0  0.56620  0.71740  0.76810  1.0000 0.1370862222
H   H5        1.0  0.13730  0.23850  0.85120  1.0000 0.1370862222
H   H6        1.0  0.13730  0.26150  0.35120  1.0000 0.1370862222
H   H7        1.0  0.86270  0.76150  0.14880  1.0000 0.1370862222
H   H8        1.0  0.86270  0.73850  0.64880  1.0000 0.1370862222
C   C1        1.0  0.14790  0.17550  0.73770  1.0000 -0.0182877131
C   C2        1.0  0.14790  0.32450  0.23770  1.0000 -0.0182877131
C   C3        1.0  0.85210  0.82450  0.26230  1.0000 -0.0182877131
C   C4        1.0  0.85210  0.67550  0.76230  1.0000 -0.0182877131
C   C5        1.0  0.23820  0.16990  0.70180  1.0000 0.014117975
C   C6        1.0  0.23820  0.33010  0.20180  1.0000 0.014117975
C   C7        1.0  0.76180  0.83010  0.29820  1.0000 0.014117975
C   C8        1.0  0.76180  0.66990  0.79820  1.0000 0.014117975
C   C9        1.0  0.37250  0.22260  0.75490  1.0000 -0.0858143201
C   C10       1.0  0.37250  0.27740  0.25490  1.0000 -0.0843924672
C   C11       1.0  0.62750  0.77740  0.24510  1.0000 -0.0858143201
C   C12       1.0  0.62750  0.72260  0.74510  1.0000 -0.0858143201
C   C13       1.0  0.41950  0.28280  0.84100  1.0000 -0.0182877131
C   C14       1.0  0.41950  0.21720  0.34100  1.0000 -0.0182877131
C   C15       1.0  0.58050  0.71720  0.15900  1.0000 -0.0182877131
C   C16       1.0  0.58050  0.78280  0.65900  1.0000 -0.0182877131
C   C17       1.0  0.32650  0.28930  0.87510  1.0000 0.0047442758
C   C18       1.0  0.32650  0.21070  0.37510  1.0000 0.0047442758
C   C19       1.0  0.67350  0.71070  0.12490  1.0000 0.0047442758
C   C20       1.0  0.67350  0.78930  0.62490  1.0000 0.0047442758
C   C21       1.0  0.19560  0.23520  0.82560  1.0000 -0.0858143201
C   C22       1.0  0.19560  0.26480  0.32560  1.0000 -0.0858143201
C   C23       1.0  0.80440  0.76480  0.17440  1.0000 -0.0858143201
C   C24       1.0  0.80440  0.73520  0.67440  1.0000 -0.0858143201
C   C25       1.0  0.99910  0.12180  0.68410  1.0000 0.5276631771
C   C26       1.0  0.99910  0.37820  0.18410  1.0000 0.5276631771
C   C27       1.0  0.00090  0.87820  0.31590  1.0000 0.5276631771
C   C28       1.0  0.00090  0.62180  0.81590  1.0000 0.5276631771
C   C29       1.0  0.19250  0.11440  0.60050  1.0000 0.5430741965
C   C30       1.0  0.19250  0.38560  0.10050  1.0000 0.5430741965
C   C31       1.0  0.80750  0.88560  0.39950  1.0000 0.5430741965
C   C32       1.0  0.80750  0.61440  0.89950  1.0000 0.5430741965
C   C33       1.0  0.55980  0.34180  0.88810  1.0000 0.5276631771
C   C34       1.0  0.55980  0.15820  0.38810  1.0000 0.5276631771
C   C35       1.0  0.44020  0.65820  0.11190  1.0000 0.5276631771
C   C36       1.0  0.44020  0.84180  0.61190  1.0000 0.5276631771
C   C37       1.0  0.35800  0.35560  0.96270  1.0000 0.5502272903
C   C38       1.0  0.35800  0.14440  0.46270  1.0000 0.5502272903
C   C39       1.0  0.64200  0.64440  0.03730  1.0000 0.5502272903
C   C40       1.0  0.64200  0.85560  0.53730  1.0000 0.5502272903
O   O1        1.0  0.97010  0.06210  0.61240  1.0000 -0.4209238828
O   O2        1.0  0.97010  0.43790  0.11240  1.0000 -0.4209238828
O   O3        1.0  0.02990  0.93790  0.38760  1.0000 -0.4209238828
O   O4        1.0  0.02990  0.56210  0.88760  1.0000 -0.4209238828
O   O5        1.0  0.91370  0.13770  0.70920  1.0000 -0.3589874484
O   O6        1.0  0.91370  0.36230  0.20920  1.0000 -0.3589874484
O   O7        1.0  0.08630  0.86230  0.29080  1.0000 -0.3589874484
O   O8        1.0  0.08630  0.63770  0.79080  1.0000 -0.3589874484
O   O9        1.0  0.26200  0.03970  0.62640  1.0000 -0.4355688434
O   O10       1.0  0.26200  0.46030  0.12640  1.0000 -0.4355688434
O   O11       1.0  0.73800  0.96030  0.37360  1.0000 -0.4336128772
O   O12       1.0  0.73800  0.53970  0.87360  1.0000 -0.4355688434
O   O13       1.0  0.10380  0.14740  0.50290  1.0000 -0.3923171253
O   O14       1.0  0.10380  0.35260  0.00290  1.0000 -0.3923171253
O   O15       1.0  0.89620  0.85260  0.49710  1.0000 -0.3923171253
O   O16       1.0  0.89620  0.64740  0.99710  1.0000 -0.3923171253
O   O17       1.0  0.56760  0.41200  0.93700  1.0000 -0.4054510088
O   O18       1.0  0.56760  0.08800  0.43700  1.0000 -0.4039439798
O   O19       1.0  0.43240  0.58800  0.06300  1.0000 -0.4039439798
O   O20       1.0  0.43240  0.91200  0.56300  1.0000 -0.4054510088
O   O21       1.0  0.65780  0.32100  0.87640  1.0000 -0.3589874484
O   O22       1.0  0.65780  0.17900  0.37640  1.0000 -0.3589874484
O   O23       1.0  0.34220  0.67900  0.12360  1.0000 -0.3589874484
O   O24       1.0  0.34220  0.82100  0.62360  1.0000 -0.3589874484
O   O25       1.0  0.27370  0.42590  0.91620  1.0000 -0.4475422667
O   O26       1.0  0.27370  0.07410  0.41620  1.0000 -0.4475422667
O   O27       1.0  0.72630  0.57410  0.08380  1.0000 -0.4475422667
O   O28       1.0  0.72630  0.92590  0.58380  1.0000 -0.4475422667
O   O29       1.0  0.44780  0.33740  0.06600  1.0000 -0.3816559778
O   O30       1.0  0.44780  0.16260  0.56600  1.0000 -0.3816559778
O   O31       1.0  0.55220  0.66260  0.93400  1.0000 -0.3816559778
O   O32       1.0  0.55220  0.83740  0.43400  1.0000 -0.3816559778
