# DDEC6 charges by PACMAN v1.1 (https://github.com/mtap-research/PACMAN-charge/)
data_2003[Co][nan]3[ASR]3
_chemical_formula_sum              "Co3 H2 C8 O10"
_cell_length_a       7.94599
_cell_length_b       7.94599
_cell_length_c       5.506
_cell_angle_alpha    89.7769
_cell_angle_beta     90.2231
_cell_angle_gamma    71.9004

_symmetry_space_group_name_H-M    "P 1"
_symmetry_Int_Tables_number       1

loop_
  _symmetry_equiv_pos_as_xyz
  'x, y, z'

loop_
  _atom_site_type_symbol
  _atom_site_label
  _atom_site_symmetry_multiplicity
  _atom_site_fract_x
  _atom_site_fract_y
  _atom_site_fract_z
  _atom_site_occupancy
  _atom_site_charge
Co  Co1       1.0  0.00000  0.00000  0.50000  1.0000 0.9733820629
Co  Co2       1.0  0.87945  0.87945  0.00000  1.0000 0.987316407
Co  Co3       1.0  0.12055  0.12055  0.00000  1.0000 0.987316407
H   H1        1.0  0.82130  0.17870  0.16420  1.0000 0.3925470781
H   H2        1.0  0.17870  0.82130  0.83580  1.0000 0.3925470781
C   C1        1.0  0.56710  0.94830  0.34170  1.0000 0.1751517874
C   C2        1.0  0.94830  0.56710  0.65830  1.0000 0.1751517874
C   C3        1.0  0.43290  0.05170  0.65830  1.0000 0.171555413
C   C4        1.0  0.05170  0.43290  0.34170  1.0000 0.1751517874
C   C5        1.0  0.61570  0.00770  0.57500  1.0000 0.171555413
C   C6        1.0  0.00770  0.61570  0.42500  1.0000 0.171555413
C   C7        1.0  0.38430  0.99230  0.42500  1.0000 0.171555413
C   C8        1.0  0.99230  0.38430  0.57500  1.0000 0.171555413
O   O1        1.0  0.64320  0.88240  0.15090  1.0000 -0.4085789848
O   O2        1.0  0.88240  0.64320  0.84910  1.0000 -0.4085789848
O   O3        1.0  0.35680  0.11760  0.84910  1.0000 -0.4085789848
O   O4        1.0  0.11760  0.35680  0.15090  1.0000 -0.4085789848
O   O5        1.0  0.75675  0.01855  0.67140  1.0000 -0.4665126431
O   O6        1.0  0.01855  0.75675  0.32860  1.0000 -0.4665126431
O   O7        1.0  0.24325  0.98145  0.32860  1.0000 -0.4665126431
O   O8        1.0  0.98145  0.24325  0.67140  1.0000 -0.4665126431
O   O9        1.0  0.89860  0.10140  0.17530  1.0000 -0.8079874742
O   O10       1.0  0.10140  0.89860  0.82470  1.0000 -0.8079874742
