# DDEC6 charges by PACMAN v1.1 (https://github.com/mtap-research/PACMAN-charge/)
data_2003[Eu][nan]3[ASR]1
_chemical_formula_sum              "Eu8 H112 C192 N16 O48"
_cell_length_a       20.81
_cell_length_b       11.5989
_cell_length_c       20.979
_cell_angle_alpha    90
_cell_angle_beta     110.391
_cell_angle_gamma    90

_symmetry_space_group_name_H-M    "P 1"
_symmetry_Int_Tables_number       1

loop_
  _symmetry_equiv_pos_as_xyz
  'x, y, z'

loop_
  _atom_site_type_symbol
  _atom_site_label
  _atom_site_symmetry_multiplicity
  _atom_site_fract_x
  _atom_site_fract_y
  _atom_site_fract_z
  _atom_site_occupancy
  _atom_site_charge
Eu  Eu1       1.0  0.55417  0.57826  0.94623  1.0000 1.9543420155
Eu  Eu2       1.0  0.94583  0.07826  0.05377  1.0000 1.9595509449
Eu  Eu3       1.0  0.44583  0.42174  0.05377  1.0000 1.9595509449
Eu  Eu4       1.0  0.05417  0.92174  0.94623  1.0000 1.9543420155
Eu  Eu5       1.0  0.53601  0.17926  0.59909  1.0000 1.9595509449
Eu  Eu6       1.0  0.96399  0.67926  0.40091  1.0000 1.9595509449
Eu  Eu7       1.0  0.46399  0.82074  0.40091  1.0000 1.9595509449
Eu  Eu8       1.0  0.03601  0.32074  0.59909  1.0000 1.9595509449
H   H1        1.0  0.57000  0.87000  0.69240  1.0000 0.102891426
H   H2        1.0  0.93000  0.37000  0.30760  1.0000 0.102891426
H   H3        1.0  0.43000  0.13000  0.30760  1.0000 0.102891426
H   H4        1.0  0.07000  0.63000  0.69240  1.0000 0.102891426
H   H5        1.0  0.61500  0.70490  0.75310  1.0000 0.1114323568
H   H6        1.0  0.88500  0.20490  0.24690  1.0000 0.1114323568
H   H7        1.0  0.38500  0.29510  0.24690  1.0000 0.1114323568
H   H8        1.0  0.11500  0.79510  0.75310  1.0000 0.1114323568
H   H9        1.0  0.58230  0.52630  0.70460  1.0000 0.1114323568
H   H10       1.0  0.91770  0.02630  0.29540  1.0000 0.1114323568
H   H11       1.0  0.41770  0.47370  0.29540  1.0000 0.1114323568
H   H12       1.0  0.08230  0.97370  0.70460  1.0000 0.1114323568
H   H13       1.0  0.45750  0.67650  0.53460  1.0000 0.1201472078
H   H14       1.0  0.04250  0.17650  0.46540  1.0000 0.1201472078
H   H15       1.0  0.54250  0.32350  0.46540  1.0000 0.1201472078
H   H16       1.0  0.95750  0.82350  0.53460  1.0000 0.1201472078
H   H17       1.0  0.72970  0.52800  0.83630  1.0000 0.1201472078
H   H18       1.0  0.77030  0.02800  0.16370  1.0000 0.1201472078
H   H19       1.0  0.27030  0.47200  0.16370  1.0000 0.1201472078
H   H20       1.0  0.22970  0.97200  0.83630  1.0000 0.1201472078
H   H21       1.0  0.83020  0.56530  0.81590  1.0000 0.1114323568
H   H22       1.0  0.66980  0.06530  0.18410  1.0000 0.1114323568
H   H23       1.0  0.16980  0.43470  0.18410  1.0000 0.1114323568
H   H24       1.0  0.33020  0.93470  0.81590  1.0000 0.1114323568
H   H25       1.0  0.90460  0.70540  0.87850  1.0000 0.1114323568
H   H26       1.0  0.59540  0.20540  0.12150  1.0000 0.1114323568
H   H27       1.0  0.09540  0.29460  0.12150  1.0000 0.1114323568
H   H28       1.0  0.40460  0.79460  0.87850  1.0000 0.1114323568
H   H29       1.0  0.77820  0.77360  0.97980  1.0000 0.1318063107
H   H30       1.0  0.72180  0.27360  0.02020  1.0000 0.1318063107
H   H31       1.0  0.22180  0.22640  0.02020  1.0000 0.1318063107
H   H32       1.0  0.27820  0.72640  0.97980  1.0000 0.1318063107
H   H33       1.0  0.28320  0.14400  0.67370  1.0000 0.1201472078
H   H34       1.0  0.21680  0.64400  0.32630  1.0000 0.1201472078
H   H35       1.0  0.71680  0.85600  0.32630  1.0000 0.1201472078
H   H36       1.0  0.78320  0.35600  0.67370  1.0000 0.1201472078
H   H37       1.0  0.25060  0.16050  0.76690  1.0000 0.1114323568
H   H38       1.0  0.24940  0.66050  0.23310  1.0000 0.1114323568
H   H39       1.0  0.74940  0.83950  0.23310  1.0000 0.1114323568
H   H40       1.0  0.75060  0.33950  0.76690  1.0000 0.1114323568
H   H41       1.0  0.32010  0.25280  0.86380  1.0000 0.1114323568
H   H42       1.0  0.17990  0.75280  0.13620  1.0000 0.1114323568
H   H43       1.0  0.67990  0.74720  0.13620  1.0000 0.1114323568
H   H44       1.0  0.82010  0.24720  0.86380  1.0000 0.1114323568
H   H45       1.0  0.45800  0.31090  0.77340  1.0000 0.1114323568
H   H46       1.0  0.04200  0.81090  0.22660  1.0000 0.1201472078
H   H47       1.0  0.54200  0.68910  0.22660  1.0000 0.1201472078
H   H48       1.0  0.95800  0.18910  0.77340  1.0000 0.1114323568
H   H49       1.0  0.44580  0.51450  0.78090  1.0000 0.102891426
H   H50       1.0  0.05420  0.01450  0.21910  1.0000 0.102891426
H   H51       1.0  0.55420  0.48550  0.21910  1.0000 0.102891426
H   H52       1.0  0.94580  0.98550  0.78090  1.0000 0.102891426
H   H53       1.0  0.38260  0.58790  0.67530  1.0000 0.1362139028
H   H54       1.0  0.11740  0.08790  0.32470  1.0000 0.1362139028
H   H55       1.0  0.61740  0.41210  0.32470  1.0000 0.1362139028
H   H56       1.0  0.88260  0.91210  0.67530  1.0000 0.1362139028
H   H57       1.0  0.38260  0.78220  0.65600  1.0000 0.1318063107
H   H58       1.0  0.11740  0.28220  0.34400  1.0000 0.1318063107
H   H59       1.0  0.61740  0.21780  0.34400  1.0000 0.1318063107
H   H60       1.0  0.88260  0.71780  0.65600  1.0000 0.1318063107
H   H61       1.0  0.43120  0.97920  0.69850  1.0000 0.1318063107
H   H62       1.0  0.06880  0.47920  0.30150  1.0000 0.1318063107
H   H63       1.0  0.56880  0.02080  0.30150  1.0000 0.1318063107
H   H64       1.0  0.93120  0.52080  0.69850  1.0000 0.1318063107
H   H65       1.0  0.49730  0.09060  0.78360  1.0000 0.1201472078
H   H66       1.0  0.00270  0.59060  0.21640  1.0000 0.1201472078
H   H67       1.0  0.50270  0.90940  0.21640  1.0000 0.1201472078
H   H68       1.0  0.99730  0.40940  0.78360  1.0000 0.1201472078
H   H69       1.0  0.56850  0.11340  0.90790  1.0000 0.1201472078
H   H70       1.0  0.93150  0.61340  0.09210  1.0000 0.1201472078
H   H71       1.0  0.43150  0.88660  0.09210  1.0000 0.1201472078
H   H72       1.0  0.06850  0.38660  0.90790  1.0000 0.1201472078
H   H73       1.0  0.62090  0.02910  0.01240  1.0000 0.1201472078
H   H74       1.0  0.87910  0.52910  0.98760  1.0000 0.1201472078
H   H75       1.0  0.37910  0.97090  0.98760  1.0000 0.1201472078
H   H76       1.0  0.12090  0.47090  0.01240  1.0000 0.1201472078
H   H77       1.0  0.61360  0.83200  0.02360  1.0000 0.1114323568
H   H78       1.0  0.88640  0.33200  0.97640  1.0000 0.1114323568
H   H79       1.0  0.38640  0.16800  0.97640  1.0000 0.1114323568
H   H80       1.0  0.11360  0.66800  0.02360  1.0000 0.1114323568
H   H81       1.0  0.62980  0.96560  0.55630  1.0000 0.1201472078
H   H82       1.0  0.87020  0.46560  0.44370  1.0000 0.1201472078
H   H83       1.0  0.37020  0.03440  0.44370  1.0000 0.1201472078
H   H84       1.0  0.12980  0.53440  0.55630  1.0000 0.1201472078
H   H85       1.0  0.70970  0.82230  0.59530  1.0000 0.1490780392
H   H86       1.0  0.79030  0.32230  0.40470  1.0000 0.1490780392
H   H87       1.0  0.29030  0.17770  0.40470  1.0000 0.1490780392
H   H88       1.0  0.20970  0.67770  0.59530  1.0000 0.1490780392
H   H89       1.0  0.76800  0.80510  0.71030  1.0000 0.1201472078
H   H90       1.0  0.73200  0.30510  0.28970  1.0000 0.1201472078
H   H91       1.0  0.23200  0.19490  0.28970  1.0000 0.1201472078
H   H92       1.0  0.26800  0.69490  0.71030  1.0000 0.1201472078
H   H93       1.0  0.79190  0.88490  0.82890  1.0000 0.1201472078
H   H94       1.0  0.70810  0.38490  0.17110  1.0000 0.1201472078
H   H95       1.0  0.20810  0.11510  0.17110  1.0000 0.1201472078
H   H96       1.0  0.29190  0.61510  0.82890  1.0000 0.1201472078
H   H97       1.0  0.76940  0.01500  0.89780  1.0000 0.1490780392
H   H98       1.0  0.73060  0.51500  0.10220  1.0000 0.1490780392
H   H99       1.0  0.23060  0.98500  0.10220  1.0000 0.1490780392
H   H100      1.0  0.26940  0.48500  0.89780  1.0000 0.1490780392
H   H101      1.0  0.70730  0.19630  0.91140  1.0000 0.1318063107
H   H102      1.0  0.79270  0.69630  0.08860  1.0000 0.1318063107
H   H103      1.0  0.29270  0.80370  0.08860  1.0000 0.1318063107
H   H104      1.0  0.20730  0.30370  0.91140  1.0000 0.1318063107
H   H105      1.0  0.62800  0.33710  0.86250  1.0000 0.1490780392
H   H106      1.0  0.87200  0.83710  0.13750  1.0000 0.1490780392
H   H107      1.0  0.37200  0.66290  0.13750  1.0000 0.1490780392
H   H108      1.0  0.12800  0.16290  0.86250  1.0000 0.1490780392
H   H109      1.0  0.56810  0.33050  0.74720  1.0000 0.1114323568
H   H110      1.0  0.93190  0.83050  0.25280  1.0000 0.1114323568
H   H111      1.0  0.43190  0.66950  0.25280  1.0000 0.1114323568
H   H112      1.0  0.06810  0.16950  0.74720  1.0000 0.1114323568
C   C1        1.0  0.48220  0.89720  0.56560  1.0000 0.6504780133
C   C2        1.0  0.01780  0.39720  0.43440  1.0000 0.6504780133
C   C3        1.0  0.51780  0.10280  0.43440  1.0000 0.6504780133
C   C4        1.0  0.98220  0.60280  0.56560  1.0000 0.6504780133
C   C5        1.0  0.50950  0.79050  0.60690  1.0000 -0.0554315108
C   C6        1.0  0.99050  0.29050  0.39310  1.0000 -0.0554315108
C   C7        1.0  0.49050  0.20950  0.39310  1.0000 -0.0554315108
C   C8        1.0  0.00950  0.70950  0.60690  1.0000 -0.0554315108
C   C9        1.0  0.55650  0.79800  0.67270  1.0000 -0.108068032
C   C10       1.0  0.94350  0.29800  0.32730  1.0000 -0.108068032
C   C11       1.0  0.44350  0.20200  0.32730  1.0000 -0.108068032
C   C12       1.0  0.05650  0.70200  0.67270  1.0000 -0.108068032
C   C13       1.0  0.58350  0.69930  0.70910  1.0000 -0.108068032
C   C14       1.0  0.91650  0.19930  0.29090  1.0000 -0.108068032
C   C15       1.0  0.41650  0.30070  0.29090  1.0000 -0.108068032
C   C16       1.0  0.08350  0.80070  0.70910  1.0000 -0.108068032
C   C17       1.0  0.56350  0.59250  0.68010  1.0000 -0.0980514631
C   C18       1.0  0.93650  0.09250  0.31990  1.0000 -0.0980514631
C   C19       1.0  0.43650  0.40750  0.31990  1.0000 -0.0980514631
C   C20       1.0  0.06350  0.90750  0.68010  1.0000 -0.0980514631
C   C21       1.0  0.51570  0.58260  0.61480  1.0000 -0.011103124
C   C22       1.0  0.98430  0.08260  0.38520  1.0000 -0.011103124
C   C23       1.0  0.48430  0.41740  0.38520  1.0000 -0.011103124
C   C24       1.0  0.01570  0.91740  0.61480  1.0000 -0.011103124
C   C25       1.0  0.48920  0.68220  0.57850  1.0000 -0.1181443784
C   C26       1.0  0.01080  0.18220  0.42150  1.0000 -0.1181443784
C   C27       1.0  0.51080  0.31780  0.42150  1.0000 -0.1181443784
C   C28       1.0  0.98920  0.81780  0.57850  1.0000 -0.1181443784
C   C29       1.0  0.49250  0.46630  0.58350  1.0000 0.6129877348
C   C30       1.0  0.00750  0.96630  0.41650  1.0000 0.6129877348
C   C31       1.0  0.50750  0.53370  0.41650  1.0000 0.6129877348
C   C32       1.0  0.99250  0.03370  0.58350  1.0000 0.6129877348
C   C33       1.0  0.67880  0.62110  0.92450  1.0000 0.5646900614
C   C34       1.0  0.82120  0.12110  0.07550  1.0000 0.5646900614
C   C35       1.0  0.32120  0.37890  0.07550  1.0000 0.5646900614
C   C36       1.0  0.17880  0.87890  0.92450  1.0000 0.5646900614
C   C37       1.0  0.74360  0.64650  0.91020  1.0000 -0.0166785723
C   C38       1.0  0.75640  0.14650  0.08980  1.0000 -0.0166785723
C   C39       1.0  0.25640  0.35350  0.08980  1.0000 -0.0166785723
C   C40       1.0  0.24360  0.85350  0.91020  1.0000 -0.0166785723
C   C41       1.0  0.75950  0.58470  0.86120  1.0000 -0.108068032
C   C42       1.0  0.74050  0.08470  0.13880  1.0000 -0.108068032
C   C43       1.0  0.24050  0.41530  0.13880  1.0000 -0.108068032
C   C44       1.0  0.25950  0.91530  0.86120  1.0000 -0.108068032
C   C45       1.0  0.81960  0.60700  0.84880  1.0000 -0.1181443784
C   C46       1.0  0.68040  0.10700  0.15120  1.0000 -0.1181443784
C   C47       1.0  0.18040  0.39300  0.15120  1.0000 -0.1181443784
C   C48       1.0  0.31960  0.89300  0.84880  1.0000 -0.1181443784
C   C49       1.0  0.86370  0.69170  0.88590  1.0000 -0.1181443784
C   C50       1.0  0.63630  0.19170  0.11410  1.0000 -0.1181443784
C   C51       1.0  0.13630  0.30830  0.11410  1.0000 -0.1181443784
C   C52       1.0  0.36370  0.80830  0.88590  1.0000 -0.1181443784
C   C53       1.0  0.84775  0.75580  0.93340  1.0000 -0.0386584993
C   C54       1.0  0.65225  0.25580  0.06660  1.0000 -0.0386584993
C   C55       1.0  0.15225  0.24420  0.06660  1.0000 -0.0386584993
C   C56       1.0  0.34775  0.74420  0.93340  1.0000 -0.0386584993
C   C57       1.0  0.78829  0.73210  0.94650  1.0000 -0.1299002986
C   C58       1.0  0.71171  0.23210  0.05350  1.0000 -0.1299002986
C   C59       1.0  0.21171  0.26790  0.05350  1.0000 -0.1299002986
C   C60       1.0  0.28829  0.76790  0.94650  1.0000 -0.1299002986
C   C61       1.0  0.89320  0.85560  0.96880  1.0000 0.6205252488
C   C62       1.0  0.60680  0.35560  0.03120  1.0000 0.6205252488
C   C63       1.0  0.10680  0.14440  0.03120  1.0000 0.6205252488
C   C64       1.0  0.39320  0.64440  0.96880  1.0000 0.6205252488
C   C65       1.0  0.39790  0.20350  0.65380  1.0000 0.584438317
C   C66       1.0  0.10210  0.70350  0.34620  1.0000 0.584438317
C   C67       1.0  0.60210  0.79650  0.34620  1.0000 0.584438317
C   C68       1.0  0.89790  0.29650  0.65380  1.0000 0.584438317
C   C69       1.0  0.37530  0.22380  0.71430  1.0000 -0.0166785723
C   C70       1.0  0.12470  0.72380  0.28570  1.0000 -0.0166785723
C   C71       1.0  0.62470  0.77620  0.28570  1.0000 -0.0166785723
C   C72       1.0  0.87530  0.27620  0.71430  1.0000 -0.0166785723
C   C73       1.0  0.31210  0.18040  0.71270  1.0000 -0.108068032
C   C74       1.0  0.18790  0.68040  0.28730  1.0000 -0.108068032
C   C75       1.0  0.68790  0.81960  0.28730  1.0000 -0.0980514631
C   C76       1.0  0.81210  0.31960  0.71270  1.0000 -0.108068032
C   C77       1.0  0.29240  0.19120  0.76820  1.0000 -0.108068032
C   C78       1.0  0.20760  0.69120  0.23180  1.0000 -0.108068032
C   C79       1.0  0.70760  0.80880  0.23180  1.0000 -0.108068032
C   C80       1.0  0.79240  0.30880  0.76820  1.0000 -0.108068032
C   C81       1.0  0.33380  0.24710  0.82620  1.0000 -0.108068032
C   C82       1.0  0.16620  0.74710  0.17380  1.0000 -0.108068032
C   C83       1.0  0.66620  0.75290  0.17380  1.0000 -0.108068032
C   C84       1.0  0.83380  0.25290  0.82620  1.0000 -0.108068032
C   C85       1.0  0.39570  0.29490  0.82850  1.0000 -0.0386584993
C   C86       1.0  0.10430  0.79490  0.17150  1.0000 -0.0386584993
C   C87       1.0  0.60430  0.70510  0.17150  1.0000 -0.0386584993
C   C88       1.0  0.89570  0.20510  0.82850  1.0000 -0.0386584993
C   C89       1.0  0.41610  0.28100  0.77200  1.0000 -0.1299002986
C   C90       1.0  0.08390  0.78100  0.22800  1.0000 -0.1299002986
C   C91       1.0  0.58390  0.71900  0.22800  1.0000 -0.1299002986
C   C92       1.0  0.91610  0.21900  0.77200  1.0000 -0.1299002986
C   C93       1.0  0.43760  0.36260  0.88980  1.0000 0.633662038
C   C94       1.0  0.06240  0.86260  0.11020  1.0000 0.633662038
C   C95       1.0  0.56240  0.63740  0.11020  1.0000 0.633662038
C   C96       1.0  0.93760  0.13740  0.88980  1.0000 0.633662038
C   C97       1.0  0.44660  0.59360  0.77390  1.0000 0.1114323568
C   C98       1.0  0.05340  0.09360  0.22610  1.0000 0.1114323568
C   C99       1.0  0.55340  0.40640  0.22610  1.0000 0.1114323568
C   C100      1.0  0.94660  0.90640  0.77390  1.0000 0.1114323568
C   C101      1.0  0.40820  0.63730  0.70970  1.0000 -0.1373857256
C   C102      1.0  0.09180  0.13730  0.29030  1.0000 -0.1373857256
C   C103      1.0  0.59180  0.36270  0.29030  1.0000 -0.1373857256
C   C104      1.0  0.90820  0.86270  0.70970  1.0000 -0.1373857256
C   C105      1.0  0.40870  0.75190  0.69810  1.0000 -0.0834053825
C   C106      1.0  0.09130  0.25190  0.30190  1.0000 -0.0834053825
C   C107      1.0  0.59130  0.24810  0.30190  1.0000 -0.0834053825
C   C108      1.0  0.90870  0.74810  0.69810  1.0000 -0.0834053825
C   C109      1.0  0.44850  0.82390  0.74970  1.0000 0.0434481413
C   C110      1.0  0.05150  0.32390  0.25030  1.0000 0.0434481413
C   C111      1.0  0.55150  0.17610  0.25030  1.0000 0.0434481413
C   C112      1.0  0.94850  0.67610  0.74970  1.0000 0.0434481413
C   C113      1.0  0.45460  0.94610  0.74070  1.0000 -0.1181443784
C   C114      1.0  0.04540  0.44610  0.25930  1.0000 -0.1181443784
C   C115      1.0  0.54540  0.05390  0.25930  1.0000 -0.1181443784
C   C116      1.0  0.95460  0.55390  0.74070  1.0000 -0.1181443784
C   C117      1.0  0.49300  0.01250  0.79150  1.0000 -0.1299002986
C   C118      1.0  0.00700  0.51250  0.20850  1.0000 -0.1299002986
C   C119      1.0  0.50700  0.98750  0.20850  1.0000 -0.1299002986
C   C120      1.0  0.99300  0.48750  0.79150  1.0000 -0.1299002986
C   C121      1.0  0.52780  0.96680  0.85780  1.0000 0.0490251225
C   C122      1.0  0.97220  0.46680  0.14220  1.0000 0.0490251225
C   C123      1.0  0.47220  0.03320  0.14220  1.0000 0.0490251225
C   C124      1.0  0.02780  0.53320  0.85780  1.0000 0.0490251225
C   C125      1.0  0.56510  0.03430  0.91310  1.0000 -0.0908846525
C   C126      1.0  0.93490  0.53430  0.08690  1.0000 -0.0908846525
C   C127      1.0  0.43490  0.96570  0.08690  1.0000 -0.0908846525
C   C128      1.0  0.06510  0.46570  0.91310  1.0000 -0.0908846525
C   C129      1.0  0.59650  0.98440  0.97500  1.0000 -0.1299002986
C   C130      1.0  0.90350  0.48440  0.02500  1.0000 -0.1299002986
C   C131      1.0  0.40350  0.01560  0.02500  1.0000 -0.1299002986
C   C132      1.0  0.09650  0.51560  0.97500  1.0000 -0.1299002986
C   C133      1.0  0.59160  0.86550  0.98130  1.0000 0.1201472078
C   C134      1.0  0.90840  0.36550  0.01870  1.0000 0.1201472078
C   C135      1.0  0.40840  0.13450  0.01870  1.0000 0.1201472078
C   C136      1.0  0.09160  0.63450  0.98130  1.0000 0.1201472078
C   C137      1.0  0.52460  0.84690  0.86800  1.0000 0.1201472078
C   C138      1.0  0.97540  0.34690  0.13200  1.0000 0.1201472078
C   C139      1.0  0.47540  0.15310  0.13200  1.0000 0.1201472078
C   C140      1.0  0.02460  0.65310  0.86800  1.0000 0.1201472078
C   C141      1.0  0.48580  0.77400  0.81340  1.0000 0.1201472078
C   C142      1.0  0.01420  0.27400  0.18660  1.0000 0.1201472078
C   C143      1.0  0.51420  0.22600  0.18660  1.0000 0.1201472078
C   C144      1.0  0.98580  0.72600  0.81340  1.0000 0.1201472078
C   C145      1.0  0.65320  0.96020  0.60290  1.0000 0.1201472078
C   C146      1.0  0.84680  0.46020  0.39710  1.0000 0.1201472078
C   C147      1.0  0.34680  0.03980  0.39710  1.0000 0.1201472078
C   C148      1.0  0.15320  0.53980  0.60290  1.0000 0.1201472078
C   C149      1.0  0.70140  0.87330  0.62570  1.0000 -0.1299002986
C   C150      1.0  0.79860  0.37330  0.37430  1.0000 -0.1299002986
C   C151      1.0  0.29860  0.12670  0.37430  1.0000 -0.1299002986
C   C152      1.0  0.20140  0.62670  0.62570  1.0000 -0.1299002986
C   C153      1.0  0.73630  0.86420  0.69350  1.0000 -0.0980514631
C   C154      1.0  0.76370  0.36420  0.30650  1.0000 -0.0980514631
C   C155      1.0  0.26370  0.13580  0.30650  1.0000 -0.0980514631
C   C156      1.0  0.23630  0.63580  0.69350  1.0000 -0.0980514631
C   C157      1.0  0.72430  0.94440  0.73830  1.0000 0.0576396589
C   C158      1.0  0.77570  0.44440  0.26170  1.0000 0.0576396589
C   C159      1.0  0.27570  0.05560  0.26170  1.0000 0.0576396589
C   C160      1.0  0.22430  0.55560  0.73830  1.0000 0.0576396589
C   C161      1.0  0.75920  0.94170  0.81020  1.0000 -0.1373857256
C   C162      1.0  0.74080  0.44170  0.18980  1.0000 -0.1373857256
C   C163      1.0  0.24080  0.05830  0.18980  1.0000 -0.1373857256
C   C164      1.0  0.25920  0.55830  0.81020  1.0000 -0.1373857256
C   C165      1.0  0.74590  0.01910  0.85120  1.0000 -0.1181443784
C   C166      1.0  0.75410  0.51910  0.14880  1.0000 -0.1181443784
C   C167      1.0  0.25410  0.98090  0.14880  1.0000 -0.1181443784
C   C168      1.0  0.24590  0.48090  0.85120  1.0000 -0.1181443784
C   C169      1.0  0.69610  0.10800  0.82470  1.0000 0.0434481413
C   C170      1.0  0.80390  0.60800  0.17530  1.0000 0.0434481413
C   C171      1.0  0.30390  0.89200  0.17530  1.0000 0.0434481413
C   C172      1.0  0.19610  0.39200  0.82470  1.0000 0.0434481413
C   C173      1.0  0.68330  0.19530  0.86480  1.0000 -0.0908846525
C   C174      1.0  0.81670  0.69530  0.13520  1.0000 -0.0908846525
C   C175      1.0  0.31670  0.80470  0.13520  1.0000 -0.0908846525
C   C176      1.0  0.18330  0.30470  0.86480  1.0000 -0.0908846525
C   C177      1.0  0.63630  0.27850  0.83620  1.0000 -0.1299002986
C   C178      1.0  0.86370  0.77850  0.16380  1.0000 -0.1299002986
C   C179      1.0  0.36370  0.72150  0.16380  1.0000 -0.1299002986
C   C180      1.0  0.13630  0.22150  0.83620  1.0000 -0.1299002986
C   C181      1.0  0.60070  0.27390  0.76640  1.0000 0.1114323568
C   C182      1.0  0.89930  0.77390  0.23360  1.0000 0.1114323568
C   C183      1.0  0.39930  0.72610  0.23360  1.0000 0.1114323568
C   C184      1.0  0.10070  0.22610  0.76640  1.0000 0.1114323568
C   C185      1.0  0.65910  0.11230  0.75410  1.0000 0.1201472078
C   C186      1.0  0.84090  0.61230  0.24590  1.0000 0.1201472078
C   C187      1.0  0.34090  0.88770  0.24590  1.0000 0.1201472078
C   C188      1.0  0.15910  0.38770  0.75410  1.0000 0.1201472078
C   C189      1.0  0.67370  0.02990  0.71000  1.0000 0.1114323568
C   C190      1.0  0.82630  0.52990  0.29000  1.0000 0.1114323568
C   C191      1.0  0.32630  0.97010  0.29000  1.0000 0.1114323568
C   C192      1.0  0.17370  0.47010  0.71000  1.0000 0.1114323568
N   N1        1.0  0.48395  0.65870  0.82501  1.0000 -0.3626238401
N   N2        1.0  0.01605  0.15870  0.17499  1.0000 -0.3626238401
N   N3        1.0  0.51605  0.34130  0.17499  1.0000 -0.3626238401
N   N4        1.0  0.98395  0.84130  0.82501  1.0000 -0.3626238401
N   N5        1.0  0.55690  0.79780  0.93000  1.0000 -0.3690586309
N   N6        1.0  0.94310  0.29780  0.07000  1.0000 -0.3690586309
N   N7        1.0  0.44310  0.20220  0.07000  1.0000 -0.3690586309
N   N8        1.0  0.05690  0.70220  0.93000  1.0000 -0.3690586309
N   N9        1.0  0.61061  0.19400  0.72574  1.0000 -0.3784665983
N   N10       1.0  0.88939  0.69400  0.27426  1.0000 -0.3784665983
N   N11       1.0  0.38939  0.80600  0.27426  1.0000 -0.3784665983
N   N12       1.0  0.11061  0.30600  0.72574  1.0000 -0.3784665983
N   N13       1.0  0.63818  0.03520  0.64208  1.0000 -0.3626238401
N   N14       1.0  0.86182  0.53520  0.35792  1.0000 -0.3626238401
N   N15       1.0  0.36182  0.96480  0.35792  1.0000 -0.3626238401
N   N16       1.0  0.13818  0.46480  0.64208  1.0000 -0.3626238401
O   O1        1.0  0.48950  0.99310  0.59646  1.0000 -0.6661322634
O   O2        1.0  0.01050  0.49310  0.40354  1.0000 -0.6661322634
O   O3        1.0  0.51050  0.00690  0.40354  1.0000 -0.6661322634
O   O4        1.0  0.98950  0.50690  0.59646  1.0000 -0.6661322634
O   O5        1.0  0.45350  0.88660  0.50222  1.0000 -0.6940328698
O   O6        1.0  0.04650  0.38660  0.49778  1.0000 -0.6940328698
O   O7        1.0  0.54650  0.11340  0.49778  1.0000 -0.6940328698
O   O8        1.0  0.95350  0.61340  0.50222  1.0000 -0.6940328698
O   O9        1.0  0.43799  0.45840  0.53423  1.0000 -0.535330839
O   O10       1.0  0.06201  0.95840  0.46577  1.0000 -0.535330839
O   O11       1.0  0.56201  0.54160  0.46577  1.0000 -0.535330839
O   O12       1.0  0.93799  0.04160  0.53423  1.0000 -0.535330839
O   O13       1.0  0.53076  0.38130  0.60927  1.0000 -0.7075039367
O   O14       1.0  0.96924  0.88130  0.39073  1.0000 -0.7075039367
O   O15       1.0  0.46924  0.61870  0.39073  1.0000 -0.7075039367
O   O16       1.0  0.03076  0.11870  0.60927  1.0000 -0.7075039367
O   O17       1.0  0.62946  0.57260  0.87904  1.0000 -0.628064863
O   O18       1.0  0.87054  0.07260  0.12096  1.0000 -0.628064863
O   O19       1.0  0.37054  0.42740  0.12096  1.0000 -0.628064863
O   O20       1.0  0.12946  0.92740  0.87904  1.0000 -0.628064863
O   O21       1.0  0.67544  0.64880  0.98108  1.0000 -0.6079670112
O   O22       1.0  0.82456  0.14880  0.01892  1.0000 -0.6079670112
O   O23       1.0  0.32456  0.35120  0.01892  1.0000 -0.6079670112
O   O24       1.0  0.17544  0.85120  0.98108  1.0000 -0.6079670112
O   O25       1.0  0.87402  0.91470  0.00944  1.0000 -0.6186845671
O   O26       1.0  0.62598  0.41470  0.99056  1.0000 -0.6186845671
O   O27       1.0  0.12598  0.08530  0.99056  1.0000 -0.6186845671
O   O28       1.0  0.37402  0.58530  0.00944  1.0000 -0.6186845671
O   O29       1.0  0.94608  0.87880  0.95550  1.0000 -0.6940328698
O   O30       1.0  0.55392  0.37880  0.04450  1.0000 -0.6940328698
O   O31       1.0  0.05392  0.12120  0.04450  1.0000 -0.6940328698
O   O32       1.0  0.44608  0.62120  0.95550  1.0000 -0.6940328698
O   O33       1.0  0.46178  0.20900  0.66492  1.0000 -0.6832695524
O   O34       1.0  0.03822  0.70900  0.33508  1.0000 -0.6832695524
O   O35       1.0  0.53822  0.79100  0.33508  1.0000 -0.6832695524
O   O36       1.0  0.96178  0.29100  0.66492  1.0000 -0.6832695524
O   O37       1.0  0.35337  0.18200  0.59748  1.0000 -0.5531807314
O   O38       1.0  0.14663  0.68200  0.40252  1.0000 -0.5531807314
O   O39       1.0  0.64663  0.81800  0.40252  1.0000 -0.5531807314
O   O40       1.0  0.85337  0.31800  0.59748  1.0000 -0.5531807314
O   O41       1.0  0.48870  0.41830  0.88647  1.0000 -0.6633223217
O   O42       1.0  0.01130  0.91830  0.11353  1.0000 -0.6633223217
O   O43       1.0  0.51130  0.58170  0.11353  1.0000 -0.6633223217
O   O44       1.0  0.98870  0.08170  0.88647  1.0000 -0.6633223217
O   O45       1.0  0.41863  0.36080  0.94034  1.0000 -0.6633223217
O   O46       1.0  0.08137  0.86080  0.05966  1.0000 -0.6633223217
O   O47       1.0  0.58137  0.63920  0.05966  1.0000 -0.6633223217
O   O48       1.0  0.91863  0.13920  0.94034  1.0000 -0.6633223217
