# DDEC6 charges by PACMAN v1.1 (https://github.com/mtap-research/PACMAN-charge/)
data_2004[Zn][pcu]3[ASR]2
_chemical_formula_sum              "Zn8 H80 C88 N8 O32"
_cell_length_a       15.063
_cell_length_b       15.063
_cell_length_c       19.247
_cell_angle_alpha    90
_cell_angle_beta     90
_cell_angle_gamma    90

_symmetry_space_group_name_H-M    "P 1"
_symmetry_Int_Tables_number       1

loop_
  _symmetry_equiv_pos_as_xyz
  'x, y, z'

loop_
  _atom_site_type_symbol
  _atom_site_label
  _atom_site_symmetry_multiplicity
  _atom_site_fract_x
  _atom_site_fract_y
  _atom_site_fract_z
  _atom_site_occupancy
  _atom_site_charge
Zn  Zn1       1.0  0.49995  0.49676  0.07478  1.0000 0.819083748
Zn  Zn2       1.0  0.50005  0.50324  0.92522  1.0000 0.819083748
Zn  Zn3       1.0  0.49987  0.49642  0.42522  1.0000 0.819083748
Zn  Zn4       1.0  0.50013  0.50358  0.57478  1.0000 0.819083748
Zn  Zn5       1.0  0.99642  0.99987  0.57478  1.0000 0.819083748
Zn  Zn6       1.0  0.00358  0.00013  0.42522  1.0000 0.819083748
Zn  Zn7       1.0  0.99676  0.99995  0.92522  1.0000 0.819083748
Zn  Zn8       1.0  0.00324  0.00005  0.07478  1.0000 0.819083748
H   H1        1.0  0.73647  0.64443  0.11231  1.0000 0.1004888268
H   H2        1.0  0.26353  0.35557  0.88769  1.0000 0.1004888268
H   H3        1.0  0.26312  0.35570  0.11159  1.0000 0.1004888268
H   H4        1.0  0.73688  0.64430  0.88841  1.0000 0.1004888268
H   H5        1.0  0.35456  0.73813  0.11289  1.0000 0.1053929339
H   H6        1.0  0.64544  0.26187  0.88711  1.0000 0.1053929339
H   H7        1.0  0.64332  0.26461  0.11098  1.0000 0.1004888268
H   H8        1.0  0.35668  0.73539  0.88902  1.0000 0.1004888268
H   H9        1.0  0.26320  0.64458  0.38786  1.0000 0.1004888268
H   H10       1.0  0.73680  0.35542  0.61214  1.0000 0.1004888268
H   H11       1.0  0.73656  0.35586  0.38823  1.0000 0.1004888268
H   H12       1.0  0.26344  0.64414  0.61177  1.0000 0.1004888268
H   H13       1.0  0.64396  0.73664  0.38599  1.0000 0.1053929339
H   H14       1.0  0.35604  0.26336  0.61401  1.0000 0.1053929339
H   H15       1.0  0.35524  0.26315  0.39009  1.0000 0.1004888268
H   H16       1.0  0.64476  0.73685  0.60991  1.0000 0.1004888268
H   H17       1.0  0.23664  0.14396  0.61401  1.0000 0.1053929339
H   H18       1.0  0.76336  0.85604  0.38599  1.0000 0.1053929339
H   H19       1.0  0.76315  0.85524  0.60991  1.0000 0.1004888268
H   H20       1.0  0.23685  0.14476  0.39009  1.0000 0.1004888268
H   H21       1.0  0.85586  0.23656  0.61177  1.0000 0.1004888268
H   H22       1.0  0.14414  0.76344  0.38823  1.0000 0.1004888268
H   H23       1.0  0.14458  0.76320  0.61214  1.0000 0.1004888268
H   H24       1.0  0.85542  0.23680  0.38786  1.0000 0.1053929339
H   H25       1.0  0.76461  0.14332  0.88902  1.0000 0.1004888268
H   H26       1.0  0.23539  0.85668  0.11098  1.0000 0.1004888268
H   H27       1.0  0.23813  0.85456  0.88711  1.0000 0.1053929339
H   H28       1.0  0.76187  0.14544  0.11289  1.0000 0.1053929339
H   H29       1.0  0.14443  0.23647  0.88769  1.0000 0.1004888268
H   H30       1.0  0.85557  0.76353  0.11231  1.0000 0.1004888268
H   H31       1.0  0.85570  0.76312  0.88841  1.0000 0.1004888268
H   H32       1.0  0.14430  0.23688  0.11159  1.0000 0.1004888268
H   H33       1.0  0.43394  0.34813  0.19131  1.0000 0.1004888268
H   H34       1.0  0.56606  0.65187  0.80869  1.0000 0.1004888268
H   H35       1.0  0.63829  0.47019  0.19269  1.0000 0.1004888268
H   H36       1.0  0.36171  0.52981  0.80731  1.0000 0.1004888268
H   H37       1.0  0.42378  0.58714  0.19090  1.0000 0.1004888268
H   H38       1.0  0.57622  0.41286  0.80910  1.0000 0.1004888268
H   H39       1.0  0.56608  0.34812  0.30868  1.0000 0.1004888268
H   H40       1.0  0.43392  0.65188  0.69132  1.0000 0.1004888268
H   H41       1.0  0.36173  0.47019  0.30732  1.0000 0.1004888268
H   H42       1.0  0.63827  0.52981  0.69268  1.0000 0.1004888268
H   H43       1.0  0.57624  0.58714  0.30911  1.0000 0.1004888268
H   H44       1.0  0.42376  0.41286  0.69089  1.0000 0.1004888268
H   H45       1.0  0.97019  0.86173  0.69268  1.0000 0.1004888268
H   H46       1.0  0.02981  0.13827  0.30732  1.0000 0.1004888268
H   H47       1.0  0.08714  0.07624  0.69089  1.0000 0.1004888268
H   H48       1.0  0.91286  0.92376  0.30911  1.0000 0.1004888268
H   H49       1.0  0.84812  0.06608  0.69132  1.0000 0.1004888268
H   H50       1.0  0.15188  0.93392  0.30868  1.0000 0.1004888268
H   H51       1.0  0.08714  0.92378  0.80910  1.0000 0.1004888268
H   H52       1.0  0.91286  0.07622  0.19090  1.0000 0.1004888268
H   H53       1.0  0.97019  0.13829  0.80731  1.0000 0.1004888268
H   H54       1.0  0.02981  0.86171  0.19269  1.0000 0.1004888268
H   H55       1.0  0.84813  0.93394  0.80869  1.0000 0.1004888268
H   H56       1.0  0.15187  0.06606  0.19131  1.0000 0.1004888268
H   H57       1.0  0.55187  0.33964  0.18568  1.0000 0.0922296695
H   H58       1.0  0.44813  0.66036  0.81432  1.0000 0.0922296695
H   H59       1.0  0.59152  0.57852  0.18647  1.0000 0.1004888268
H   H60       1.0  0.40848  0.42148  0.81353  1.0000 0.1004888268
H   H61       1.0  0.36178  0.48679  0.18559  1.0000 0.1004888268
H   H62       1.0  0.63822  0.51321  0.81441  1.0000 0.1004888268
H   H63       1.0  0.44815  0.33964  0.31433  1.0000 0.0922296695
H   H64       1.0  0.55185  0.66036  0.68567  1.0000 0.0922296695
H   H65       1.0  0.40851  0.57851  0.31354  1.0000 0.1004888268
H   H66       1.0  0.59149  0.42149  0.68646  1.0000 0.1004888268
H   H67       1.0  0.63824  0.48679  0.31441  1.0000 0.1004888268
H   H68       1.0  0.36176  0.51321  0.68559  1.0000 0.1004888268
H   H69       1.0  0.07851  0.90851  0.68646  1.0000 0.1004888268
H   H70       1.0  0.92149  0.09149  0.31354  1.0000 0.1004888268
H   H71       1.0  0.98679  0.13824  0.68559  1.0000 0.1004888268
H   H72       1.0  0.01321  0.86176  0.31441  1.0000 0.1004888268
H   H73       1.0  0.83964  0.94815  0.68567  1.0000 0.0922296695
H   H74       1.0  0.16036  0.05185  0.31433  1.0000 0.0922296695
H   H75       1.0  0.98679  0.86178  0.81441  1.0000 0.1004888268
H   H76       1.0  0.01321  0.13822  0.18559  1.0000 0.1004888268
H   H77       1.0  0.07852  0.09152  0.81353  1.0000 0.1004888268
H   H78       1.0  0.92148  0.90848  0.18647  1.0000 0.1004888268
H   H79       1.0  0.83964  0.05187  0.81432  1.0000 0.0922296695
H   H80       1.0  0.16036  0.94813  0.18568  1.0000 0.0922296695
C   C1        1.0  0.73133  0.63867  0.00044  1.0000 -0.0247141481
C   C2        1.0  0.26867  0.36133  0.99956  1.0000 -0.0247141481
C   C3        1.0  0.36128  0.73140  0.00132  1.0000 -0.0264358702
C   C4        1.0  0.63872  0.26860  0.99868  1.0000 -0.0264358702
C   C5        1.0  0.26867  0.63867  0.49977  1.0000 -0.0247141481
C   C6        1.0  0.73133  0.36133  0.50023  1.0000 -0.0247141481
C   C7        1.0  0.63872  0.73140  0.49762  1.0000 -0.0264358702
C   C8        1.0  0.36128  0.26860  0.50238  1.0000 -0.0264358702
C   C9        1.0  0.23140  0.13872  0.50238  1.0000 -0.0264358702
C   C10       1.0  0.76860  0.86128  0.49762  1.0000 -0.0264358702
C   C11       1.0  0.86133  0.23133  0.49977  1.0000 -0.0247141481
C   C12       1.0  0.13867  0.76867  0.50023  1.0000 -0.0247141481
C   C13       1.0  0.76860  0.13872  0.00132  1.0000 -0.0264358702
C   C14       1.0  0.23140  0.86128  0.99868  1.0000 -0.0264358702
C   C15       1.0  0.13867  0.23133  0.99956  1.0000 -0.0247141481
C   C16       1.0  0.86133  0.76867  0.00044  1.0000 -0.0247141481
C   C17       1.0  0.65398  0.57694  0.00022  1.0000 0.5927031465
C   C18       1.0  0.34602  0.42306  0.99978  1.0000 0.5927031465
C   C19       1.0  0.42273  0.65391  0.00254  1.0000 0.5927031465
C   C20       1.0  0.57727  0.34609  0.99746  1.0000 0.5927031465
C   C21       1.0  0.34602  0.57695  0.49977  1.0000 0.5927031465
C   C22       1.0  0.65398  0.42305  0.50023  1.0000 0.5927031465
C   C23       1.0  0.57727  0.65390  0.49729  1.0000 0.5927031465
C   C24       1.0  0.42273  0.34610  0.50271  1.0000 0.5927031465
C   C25       1.0  0.15390  0.07727  0.50271  1.0000 0.5927031465
C   C26       1.0  0.84610  0.92273  0.49729  1.0000 0.5927031465
C   C27       1.0  0.92305  0.15398  0.49977  1.0000 0.5927031465
C   C28       1.0  0.07695  0.84602  0.50023  1.0000 0.5927031465
C   C29       1.0  0.84609  0.07727  0.00254  1.0000 0.5927031465
C   C30       1.0  0.15391  0.92273  0.99746  1.0000 0.5927031465
C   C31       1.0  0.07694  0.15398  0.99978  1.0000 0.5927031465
C   C32       1.0  0.92306  0.84602  0.00022  1.0000 0.5927031465
C   C33       1.0  0.76488  0.66999  0.06389  1.0000 -0.0992144263
C   C34       1.0  0.23512  0.33001  0.93611  1.0000 -0.0992144263
C   C35       1.0  0.23499  0.33010  0.06308  1.0000 -0.0992144263
C   C36       1.0  0.76501  0.66990  0.93692  1.0000 -0.0992144263
C   C37       1.0  0.32933  0.76588  0.06410  1.0000 -0.0992144263
C   C38       1.0  0.67067  0.23412  0.93590  1.0000 -0.0992144263
C   C39       1.0  0.66910  0.23584  0.06284  1.0000 -0.0992144263
C   C40       1.0  0.33090  0.76416  0.93716  1.0000 -0.0992144263
C   C41       1.0  0.23495  0.67007  0.43636  1.0000 -0.0992144263
C   C42       1.0  0.76505  0.32993  0.56364  1.0000 -0.0992144263
C   C43       1.0  0.76485  0.33018  0.43667  1.0000 -0.0992144263
C   C44       1.0  0.23515  0.66982  0.56333  1.0000 -0.0992144263
C   C45       1.0  0.66980  0.76511  0.43426  1.0000 -0.0992144263
C   C46       1.0  0.33020  0.23489  0.56574  1.0000 -0.0992144263
C   C47       1.0  0.33002  0.23507  0.43876  1.0000 -0.0992144263
C   C48       1.0  0.66998  0.76493  0.56124  1.0000 -0.0992144263
C   C49       1.0  0.26511  0.16980  0.56574  1.0000 -0.0992144263
C   C50       1.0  0.73489  0.83020  0.43426  1.0000 -0.0992144263
C   C51       1.0  0.73507  0.83002  0.56124  1.0000 -0.0992144263
C   C52       1.0  0.26493  0.16998  0.43876  1.0000 -0.0992144263
C   C53       1.0  0.83018  0.26485  0.56333  1.0000 -0.0992144263
C   C54       1.0  0.16982  0.73515  0.43667  1.0000 -0.0992144263
C   C55       1.0  0.17007  0.73495  0.56364  1.0000 -0.0992144263
C   C56       1.0  0.82993  0.26505  0.43636  1.0000 -0.0992144263
C   C57       1.0  0.73584  0.16910  0.93716  1.0000 -0.0992144263
C   C58       1.0  0.26416  0.83090  0.06284  1.0000 -0.0992144263
C   C59       1.0  0.26588  0.82933  0.93590  1.0000 -0.0992144263
C   C60       1.0  0.73412  0.17067  0.06410  1.0000 -0.0992144263
C   C61       1.0  0.16999  0.26488  0.93611  1.0000 -0.0992144263
C   C62       1.0  0.83001  0.73512  0.06389  1.0000 -0.0992144263
C   C63       1.0  0.83010  0.73499  0.93692  1.0000 -0.0992144263
C   C64       1.0  0.16990  0.26501  0.06308  1.0000 -0.0992144263
C   C65       1.0  0.49697  0.37762  0.20952  1.0000 -0.0748150222
C   C66       1.0  0.50303  0.62238  0.79048  1.0000 -0.0748150222
C   C67       1.0  0.58311  0.51248  0.21045  1.0000 -0.0871668951
C   C68       1.0  0.41689  0.48752  0.78955  1.0000 -0.0871668951
C   C69       1.0  0.42029  0.51801  0.20993  1.0000 -0.0871668951
C   C70       1.0  0.57971  0.48199  0.79007  1.0000 -0.0871668951
C   C71       1.0  0.50304  0.37761  0.29047  1.0000 -0.0748150222
C   C72       1.0  0.49696  0.62239  0.70953  1.0000 -0.0748150222
C   C73       1.0  0.41691  0.51247  0.28956  1.0000 -0.0871668951
C   C74       1.0  0.58309  0.48753  0.71044  1.0000 -0.0871668951
C   C75       1.0  0.57972  0.51801  0.29007  1.0000 -0.0871668951
C   C76       1.0  0.42028  0.48199  0.70993  1.0000 -0.0871668951
C   C77       1.0  0.01247  0.91691  0.71044  1.0000 -0.0871668951
C   C78       1.0  0.98753  0.08309  0.28956  1.0000 -0.0871668951
C   C79       1.0  0.01801  0.07972  0.70993  1.0000 -0.0871668951
C   C80       1.0  0.98199  0.92028  0.29007  1.0000 -0.0871668951
C   C81       1.0  0.87761  0.00304  0.70953  1.0000 -0.0748150222
C   C82       1.0  0.12239  0.99696  0.29047  1.0000 -0.0748150222
C   C83       1.0  0.01801  0.92029  0.79007  1.0000 -0.0871668951
C   C84       1.0  0.98199  0.07971  0.20993  1.0000 -0.0871668951
C   C85       1.0  0.01248  0.08311  0.78955  1.0000 -0.0871668951
C   C86       1.0  0.98752  0.91689  0.21045  1.0000 -0.0871668951
C   C87       1.0  0.87762  0.99697  0.79048  1.0000 -0.0748150222
C   C88       1.0  0.12238  0.00303  0.20952  1.0000 -0.0748150222
N   N1        1.0  0.50018  0.47085  0.18284  1.0000 -0.0992144263
N   N2        1.0  0.49982  0.52915  0.81716  1.0000 -0.0992144263
N   N3        1.0  0.49983  0.47083  0.31716  1.0000 -0.0992144263
N   N4        1.0  0.50017  0.52917  0.68284  1.0000 -0.0992144263
N   N5        1.0  0.97083  0.99983  0.68284  1.0000 -0.0992144263
N   N6        1.0  0.02917  0.00017  0.31716  1.0000 -0.0992144263
N   N7        1.0  0.97085  0.00018  0.81716  1.0000 -0.0992144263
N   N8        1.0  0.02915  0.99982  0.18284  1.0000 -0.0992144263
O   O1        1.0  0.62270  0.55373  0.05940  1.0000 -0.5523495757
O   O2        1.0  0.37730  0.44627  0.94060  1.0000 -0.5558176063
O   O3        1.0  0.37640  0.44487  0.05949  1.0000 -0.5523495757
O   O4        1.0  0.62360  0.55513  0.94051  1.0000 -0.5523495757
O   O5        1.0  0.44469  0.62223  0.06196  1.0000 -0.5523495757
O   O6        1.0  0.55531  0.37777  0.93804  1.0000 -0.5523495757
O   O7        1.0  0.55450  0.37620  0.05692  1.0000 -0.5523495757
O   O8        1.0  0.44550  0.62380  0.94308  1.0000 -0.5523495757
O   O9        1.0  0.37717  0.55377  0.44057  1.0000 -0.5523495757
O   O10       1.0  0.62283  0.44623  0.55943  1.0000 -0.5523495757
O   O11       1.0  0.62347  0.44488  0.44054  1.0000 -0.5523495757
O   O12       1.0  0.37653  0.55512  0.55946  1.0000 -0.5523495757
O   O13       1.0  0.55453  0.62196  0.43816  1.0000 -0.5523495757
O   O14       1.0  0.44547  0.37804  0.56184  1.0000 -0.5523495757
O   O15       1.0  0.44469  0.37597  0.44296  1.0000 -0.5523495757
O   O16       1.0  0.55531  0.62403  0.55704  1.0000 -0.5523495757
O   O17       1.0  0.12196  0.05453  0.56184  1.0000 -0.5523495757
O   O18       1.0  0.87804  0.94547  0.43816  1.0000 -0.5523495757
O   O19       1.0  0.87597  0.94469  0.55704  1.0000 -0.5523495757
O   O20       1.0  0.12403  0.05531  0.44296  1.0000 -0.5523495757
O   O21       1.0  0.94488  0.12347  0.55946  1.0000 -0.5523495757
O   O22       1.0  0.05512  0.87653  0.44054  1.0000 -0.5523495757
O   O23       1.0  0.05377  0.87717  0.55943  1.0000 -0.5523495757
O   O24       1.0  0.94623  0.12283  0.44057  1.0000 -0.5523495757
O   O25       1.0  0.87620  0.05450  0.94308  1.0000 -0.5523495757
O   O26       1.0  0.12380  0.94550  0.05692  1.0000 -0.5523495757
O   O27       1.0  0.12223  0.94469  0.93804  1.0000 -0.5523495757
O   O28       1.0  0.87777  0.05531  0.06196  1.0000 -0.5523495757
O   O29       1.0  0.05373  0.12270  0.94060  1.0000 -0.5558176063
O   O30       1.0  0.94627  0.87730  0.05940  1.0000 -0.5523495757
O   O31       1.0  0.94487  0.87640  0.94051  1.0000 -0.5523495757
O   O32       1.0  0.05513  0.12360  0.05949  1.0000 -0.5523495757
