# DDEC6 charges by PACMAN v1.1 (https://github.com/mtap-research/PACMAN-charge/)
data_2004[Co][nbo]3[ASR]1
_chemical_formula_sum              "Co30 H36 C96 O102"
_cell_length_a       20.3035
_cell_length_b       20.3035
_cell_length_c       20.3035
_cell_angle_alpha    60
_cell_angle_beta     60
_cell_angle_gamma    60

_symmetry_space_group_name_H-M    "P 1"
_symmetry_Int_Tables_number       1

loop_
  _symmetry_equiv_pos_as_xyz
  'x, y, z'

loop_
  _atom_site_type_symbol
  _atom_site_label
  _atom_site_symmetry_multiplicity
  _atom_site_fract_x
  _atom_site_fract_y
  _atom_site_fract_z
  _atom_site_occupancy
  _atom_site_charge
Co  Co1       1.0  0.80484  0.19516  0.19516  1.0000 1.0151763568
Co  Co2       1.0  0.19516  0.80484  0.19516  1.0000 1.0151763568
Co  Co3       1.0  0.19516  0.19516  0.80484  1.0000 1.0143087516
Co  Co4       1.0  0.80484  0.19516  0.80484  1.0000 1.0151763568
Co  Co5       1.0  0.19516  0.80484  0.80484  1.0000 1.0151763568
Co  Co6       1.0  0.80484  0.80484  0.19516  1.0000 1.0151763568
Co  Co7       1.0  0.77573  0.30753  0.30753  1.0000 0.7028267294
Co  Co8       1.0  0.30753  0.77573  0.30753  1.0000 0.7028267294
Co  Co9       1.0  0.30753  0.30753  0.77573  1.0000 0.7028267294
Co  Co10      1.0  0.22427  0.69247  0.39079  1.0000 0.7028267294
Co  Co11      1.0  0.69247  0.39079  0.69247  1.0000 0.7028267294
Co  Co12      1.0  0.39079  0.69247  0.22427  1.0000 0.7028267294
Co  Co13      1.0  0.69247  0.22427  0.39079  1.0000 0.7028267294
Co  Co14      1.0  0.39079  0.69247  0.69247  1.0000 0.7028267294
Co  Co15      1.0  0.69247  0.39079  0.22427  1.0000 0.7028267294
Co  Co16      1.0  0.69247  0.69247  0.39079  1.0000 0.7028267294
Co  Co17      1.0  0.22427  0.39079  0.69247  1.0000 0.7028267294
Co  Co18      1.0  0.39079  0.22427  0.69247  1.0000 0.7028267294
Co  Co19      1.0  0.30753  0.77573  0.60921  1.0000 0.7028267294
Co  Co20      1.0  0.30753  0.60921  0.77573  1.0000 0.7028267294
Co  Co21      1.0  0.60921  0.30753  0.30753  1.0000 0.7028267294
Co  Co22      1.0  0.60921  0.30753  0.77573  1.0000 0.7028267294
Co  Co23      1.0  0.77573  0.30753  0.60921  1.0000 0.7028267294
Co  Co24      1.0  0.30753  0.60921  0.30753  1.0000 0.7028267294
Co  Co25      1.0  0.77573  0.60921  0.30753  1.0000 0.7028267294
Co  Co26      1.0  0.60921  0.77573  0.30753  1.0000 0.7028267294
Co  Co27      1.0  0.30753  0.30753  0.60921  1.0000 0.7028267294
Co  Co28      1.0  0.69247  0.22427  0.69247  1.0000 0.7028267294
Co  Co29      1.0  0.22427  0.69247  0.69247  1.0000 0.7028267294
Co  Co30      1.0  0.69247  0.69247  0.22427  1.0000 0.7028267294
H   H1        1.0  0.00000  0.00000  0.27900  1.0000 0.1455862581
H   H2        1.0  0.27900  0.00000  0.00000  1.0000 0.1455862581
H   H3        1.0  0.00000  0.27900  0.00000  1.0000 0.1455862581
H   H4        1.0  0.72100  0.27900  0.00000  1.0000 0.1455862581
H   H5        1.0  0.27900  0.72100  0.00000  1.0000 0.1455862581
H   H6        1.0  0.72100  0.00000  0.27900  1.0000 0.1455862581
H   H7        1.0  0.27900  0.00000  0.72100  1.0000 0.1455862581
H   H8        1.0  0.00000  0.72100  0.27900  1.0000 0.1455862581
H   H9        1.0  0.00000  0.27900  0.72100  1.0000 0.1455862581
H   H10       1.0  0.00000  0.00000  0.72100  1.0000 0.1455862581
H   H11       1.0  0.72100  0.00000  0.00000  1.0000 0.1455862581
H   H12       1.0  0.00000  0.72100  0.00000  1.0000 0.1455862581
H   H13       1.0  0.90160  0.09840  0.45180  1.0000 0.130593872
H   H14       1.0  0.45180  0.90160  0.09840  1.0000 0.130593872
H   H15       1.0  0.09840  0.45180  0.90160  1.0000 0.130593872
H   H16       1.0  0.09840  0.90160  0.45180  1.0000 0.130593872
H   H17       1.0  0.54820  0.45180  0.90160  1.0000 0.130593872
H   H18       1.0  0.45180  0.54820  0.09840  1.0000 0.130593872
H   H19       1.0  0.54820  0.09840  0.45180  1.0000 0.130593872
H   H20       1.0  0.45180  0.90160  0.54820  1.0000 0.130593872
H   H21       1.0  0.90160  0.45180  0.09840  1.0000 0.130593872
H   H22       1.0  0.90160  0.54820  0.45180  1.0000 0.130593872
H   H23       1.0  0.09840  0.45180  0.54820  1.0000 0.130593872
H   H24       1.0  0.45180  0.09840  0.90160  1.0000 0.130593872
H   H25       1.0  0.09840  0.90160  0.54820  1.0000 0.130593872
H   H26       1.0  0.45180  0.54820  0.90160  1.0000 0.130593872
H   H27       1.0  0.54820  0.45180  0.09840  1.0000 0.130593872
H   H28       1.0  0.54820  0.09840  0.90160  1.0000 0.130593872
H   H29       1.0  0.90160  0.45180  0.54820  1.0000 0.130593872
H   H30       1.0  0.09840  0.54820  0.45180  1.0000 0.130593872
H   H31       1.0  0.90160  0.54820  0.09840  1.0000 0.130593872
H   H32       1.0  0.54820  0.90160  0.45180  1.0000 0.130593872
H   H33       1.0  0.45180  0.09840  0.54820  1.0000 0.130593872
H   H34       1.0  0.90160  0.09840  0.54820  1.0000 0.130593872
H   H35       1.0  0.09840  0.54820  0.90160  1.0000 0.130593872
H   H36       1.0  0.54820  0.90160  0.09840  1.0000 0.130593872
C   C1        1.0  0.00000  0.00000  0.32580  1.0000 -0.1048404565
C   C2        1.0  0.32580  0.00000  0.00000  1.0000 -0.1048404565
C   C3        1.0  0.00000  0.32580  0.00000  1.0000 -0.1048404565
C   C4        1.0  0.67420  0.32580  0.00000  1.0000 -0.1056751152
C   C5        1.0  0.32580  0.67420  0.00000  1.0000 -0.1048404565
C   C6        1.0  0.67420  0.00000  0.32580  1.0000 -0.1048404565
C   C7        1.0  0.32580  0.00000  0.67420  1.0000 -0.1048404565
C   C8        1.0  0.00000  0.67420  0.32580  1.0000 -0.1048404565
C   C9        1.0  0.00000  0.32580  0.67420  1.0000 -0.1048404565
C   C10       1.0  0.00000  0.00000  0.67420  1.0000 -0.1048404565
C   C11       1.0  0.67420  0.00000  0.00000  1.0000 -0.1048404565
C   C12       1.0  0.00000  0.67420  0.00000  1.0000 -0.1056751152
C   C13       1.0  0.94130  0.05870  0.36170  1.0000 0.0013235062
C   C14       1.0  0.36170  0.94130  0.05870  1.0000 0.0013235062
C   C15       1.0  0.05870  0.36170  0.94130  1.0000 0.0013235062
C   C16       1.0  0.05870  0.94130  0.36170  1.0000 0.0013235062
C   C17       1.0  0.63830  0.36170  0.94130  1.0000 0.0013235062
C   C18       1.0  0.36170  0.63830  0.05870  1.0000 0.0013235062
C   C19       1.0  0.63830  0.05870  0.36170  1.0000 0.0013235062
C   C20       1.0  0.36170  0.94130  0.63830  1.0000 0.0013235062
C   C21       1.0  0.94130  0.36170  0.05870  1.0000 0.0013235062
C   C22       1.0  0.94130  0.63830  0.36170  1.0000 0.0013235062
C   C23       1.0  0.05870  0.36170  0.63830  1.0000 0.0013235062
C   C24       1.0  0.36170  0.05870  0.94130  1.0000 0.0013235062
C   C25       1.0  0.05870  0.94130  0.63830  1.0000 0.0013235062
C   C26       1.0  0.36170  0.63830  0.94130  1.0000 0.0013235062
C   C27       1.0  0.63830  0.36170  0.05870  1.0000 0.0013235062
C   C28       1.0  0.63830  0.05870  0.94130  1.0000 0.0013235062
C   C29       1.0  0.94130  0.36170  0.63830  1.0000 0.0013235062
C   C30       1.0  0.05870  0.63830  0.36170  1.0000 0.0013235062
C   C31       1.0  0.94130  0.63830  0.05870  1.0000 0.0013235062
C   C32       1.0  0.63830  0.94130  0.36170  1.0000 0.0013235062
C   C33       1.0  0.36170  0.05870  0.63830  1.0000 0.0013235062
C   C34       1.0  0.94130  0.05870  0.63830  1.0000 0.0013235062
C   C35       1.0  0.05870  0.63830  0.94130  1.0000 0.0013235062
C   C36       1.0  0.63830  0.94130  0.05870  1.0000 0.0013235062
C   C37       1.0  0.94200  0.05800  0.42820  1.0000 -0.1546373762
C   C38       1.0  0.42820  0.94200  0.05800  1.0000 -0.1546373762
C   C39       1.0  0.05800  0.42820  0.94200  1.0000 -0.1546373762
C   C40       1.0  0.05800  0.94200  0.42820  1.0000 -0.1546373762
C   C41       1.0  0.57180  0.42820  0.94200  1.0000 -0.1546373762
C   C42       1.0  0.42820  0.57180  0.05800  1.0000 -0.1546373762
C   C43       1.0  0.57180  0.05800  0.42820  1.0000 -0.1546373762
C   C44       1.0  0.42820  0.94200  0.57180  1.0000 -0.1546373762
C   C45       1.0  0.94200  0.42820  0.05800  1.0000 -0.1546373762
C   C46       1.0  0.94200  0.57180  0.42820  1.0000 -0.1546373762
C   C47       1.0  0.05800  0.42820  0.57180  1.0000 -0.1546373762
C   C48       1.0  0.42820  0.05800  0.94200  1.0000 -0.1546373762
C   C49       1.0  0.05800  0.94200  0.57180  1.0000 -0.1546373762
C   C50       1.0  0.42820  0.57180  0.94200  1.0000 -0.1546373762
C   C51       1.0  0.57180  0.42820  0.05800  1.0000 -0.1546373762
C   C52       1.0  0.57180  0.05800  0.94200  1.0000 -0.1546373762
C   C53       1.0  0.94200  0.42820  0.57180  1.0000 -0.1546373762
C   C54       1.0  0.05800  0.57180  0.42820  1.0000 -0.1546373762
C   C55       1.0  0.94200  0.57180  0.05800  1.0000 -0.1546373762
C   C56       1.0  0.57180  0.94200  0.42820  1.0000 -0.1546373762
C   C57       1.0  0.42820  0.05800  0.57180  1.0000 -0.1546373762
C   C58       1.0  0.94200  0.05800  0.57180  1.0000 -0.1546373762
C   C59       1.0  0.05800  0.57180  0.94200  1.0000 -0.1546373762
C   C60       1.0  0.57180  0.94200  0.05800  1.0000 -0.1546373762
C   C61       1.0  0.00000  0.00000  0.46180  1.0000 0.0807770401
C   C62       1.0  0.46180  0.00000  0.00000  1.0000 0.0807770401
C   C63       1.0  0.00000  0.46180  0.00000  1.0000 0.0807770401
C   C64       1.0  0.53820  0.46180  0.00000  1.0000 0.0807770401
C   C65       1.0  0.46180  0.53820  0.00000  1.0000 0.0807770401
C   C66       1.0  0.53820  0.00000  0.46180  1.0000 0.0807770401
C   C67       1.0  0.46180  0.00000  0.53820  1.0000 0.0807770401
C   C68       1.0  0.00000  0.53820  0.46180  1.0000 0.0807770401
C   C69       1.0  0.00000  0.46180  0.53820  1.0000 0.0807770401
C   C70       1.0  0.00000  0.00000  0.53820  1.0000 0.0807770401
C   C71       1.0  0.53820  0.00000  0.00000  1.0000 0.0807770401
C   C72       1.0  0.00000  0.53820  0.00000  1.0000 0.0807770401
C   C73       1.0  0.87590  0.12410  0.32470  1.0000 0.4868267722
C   C74       1.0  0.32470  0.87590  0.12410  1.0000 0.4868267722
C   C75       1.0  0.12410  0.32470  0.87590  1.0000 0.4868267722
C   C76       1.0  0.12410  0.87590  0.32470  1.0000 0.4868267722
C   C77       1.0  0.67530  0.32470  0.87590  1.0000 0.4868267722
C   C78       1.0  0.32470  0.67530  0.12410  1.0000 0.4868267722
C   C79       1.0  0.67530  0.12410  0.32470  1.0000 0.4868267722
C   C80       1.0  0.32470  0.87590  0.67530  1.0000 0.4868267722
C   C81       1.0  0.87590  0.32470  0.12410  1.0000 0.4868267722
C   C82       1.0  0.87590  0.67530  0.32470  1.0000 0.4868267722
C   C83       1.0  0.12410  0.32470  0.67530  1.0000 0.4868267722
C   C84       1.0  0.32470  0.12410  0.87590  1.0000 0.4868267722
C   C85       1.0  0.12410  0.87590  0.67530  1.0000 0.4868267722
C   C86       1.0  0.32470  0.67530  0.87590  1.0000 0.4868267722
C   C87       1.0  0.67530  0.32470  0.12410  1.0000 0.4868267722
C   C88       1.0  0.67530  0.12410  0.87590  1.0000 0.4868267722
C   C89       1.0  0.87590  0.32470  0.67530  1.0000 0.4868267722
C   C90       1.0  0.12410  0.67530  0.32470  1.0000 0.4868267722
C   C91       1.0  0.87590  0.67530  0.12410  1.0000 0.4868267722
C   C92       1.0  0.67530  0.87590  0.32470  1.0000 0.4868267722
C   C93       1.0  0.32470  0.12410  0.67530  1.0000 0.4868267722
C   C94       1.0  0.87590  0.12410  0.67530  1.0000 0.4868267722
C   C95       1.0  0.12410  0.67530  0.87590  1.0000 0.4868267722
C   C96       1.0  0.67530  0.87590  0.12410  1.0000 0.4868267722
O   O1        1.0  0.87840  0.12160  0.26220  1.0000 -0.4577116311
O   O2        1.0  0.26220  0.87840  0.12160  1.0000 -0.4577116311
O   O3        1.0  0.12160  0.26220  0.87840  1.0000 -0.4577116311
O   O4        1.0  0.12160  0.87840  0.26220  1.0000 -0.4577116311
O   O5        1.0  0.73780  0.26220  0.87840  1.0000 -0.4577116311
O   O6        1.0  0.26220  0.73780  0.12160  1.0000 -0.4577116311
O   O7        1.0  0.73780  0.12160  0.26220  1.0000 -0.4577116311
O   O8        1.0  0.26220  0.87840  0.73780  1.0000 -0.4503007545
O   O9        1.0  0.87840  0.26220  0.12160  1.0000 -0.4577116311
O   O10       1.0  0.87840  0.73780  0.26220  1.0000 -0.4577116311
O   O11       1.0  0.12160  0.26220  0.73780  1.0000 -0.4577116311
O   O12       1.0  0.26220  0.12160  0.87840  1.0000 -0.4577116311
O   O13       1.0  0.12160  0.87840  0.73780  1.0000 -0.4577116311
O   O14       1.0  0.26220  0.73780  0.87840  1.0000 -0.4577116311
O   O15       1.0  0.73780  0.26220  0.12160  1.0000 -0.4577116311
O   O16       1.0  0.73780  0.12160  0.87840  1.0000 -0.4503007545
O   O17       1.0  0.87840  0.26220  0.73780  1.0000 -0.4577116311
O   O18       1.0  0.12160  0.73780  0.26220  1.0000 -0.4577116311
O   O19       1.0  0.87840  0.73780  0.12160  1.0000 -0.4503007545
O   O20       1.0  0.73780  0.87840  0.26220  1.0000 -0.4577116311
O   O21       1.0  0.26220  0.12160  0.73780  1.0000 -0.4503007545
O   O22       1.0  0.87840  0.12160  0.73780  1.0000 -0.4503007545
O   O23       1.0  0.12160  0.73780  0.87840  1.0000 -0.4577116311
O   O24       1.0  0.73780  0.87840  0.12160  1.0000 -0.4503007545
O   O25       1.0  0.84470  0.19070  0.33930  1.0000 -0.1837157137
O   O26       1.0  0.33930  0.84470  0.19070  1.0000 -0.1837157137
O   O27       1.0  0.19070  0.33930  0.84470  1.0000 -0.1837157137
O   O28       1.0  0.15530  0.80930  0.37470  1.0000 -0.1837157137
O   O29       1.0  0.66070  0.37470  0.80930  1.0000 -0.1859511426
O   O30       1.0  0.37470  0.66070  0.15530  1.0000 -0.1837157137
O   O31       1.0  0.66070  0.15530  0.37470  1.0000 -0.1837157137
O   O32       1.0  0.37470  0.80930  0.66070  1.0000 -0.1837157137
O   O33       1.0  0.80930  0.37470  0.15530  1.0000 -0.1837157137
O   O34       1.0  0.80930  0.66070  0.37470  1.0000 -0.1837157137
O   O35       1.0  0.15530  0.37470  0.66070  1.0000 -0.1837157137
O   O36       1.0  0.37470  0.15530  0.80930  1.0000 -0.1837157137
O   O37       1.0  0.19070  0.84470  0.62530  1.0000 -0.1837157137
O   O38       1.0  0.33930  0.62530  0.84470  1.0000 -0.1837157137
O   O39       1.0  0.62530  0.33930  0.19070  1.0000 -0.1837157137
O   O40       1.0  0.62530  0.19070  0.84470  1.0000 -0.1837157137
O   O41       1.0  0.84470  0.33930  0.62530  1.0000 -0.1837157137
O   O42       1.0  0.19070  0.62530  0.33930  1.0000 -0.1837157137
O   O43       1.0  0.84470  0.62530  0.19070  1.0000 -0.1837157137
O   O44       1.0  0.62530  0.84470  0.33930  1.0000 -0.1837157137
O   O45       1.0  0.33930  0.19070  0.62530  1.0000 -0.1837157137
O   O46       1.0  0.80930  0.15530  0.66070  1.0000 -0.1837157137
O   O47       1.0  0.15530  0.66070  0.80930  1.0000 -0.1837157137
O   O48       1.0  0.66070  0.80930  0.15530  1.0000 -0.1837157137
O   O49       1.0  0.15530  0.80930  0.66070  1.0000 -0.1837157137
O   O50       1.0  0.66070  0.15530  0.80930  1.0000 -0.1859511426
O   O51       1.0  0.80930  0.66070  0.15530  1.0000 -0.1837157137
O   O52       1.0  0.84470  0.19070  0.62530  1.0000 -0.1859511426
O   O53       1.0  0.33930  0.62530  0.19070  1.0000 -0.1837157137
O   O54       1.0  0.62530  0.33930  0.84470  1.0000 -0.1837157137
O   O55       1.0  0.33930  0.84470  0.62530  1.0000 -0.1837157137
O   O56       1.0  0.62530  0.19070  0.33930  1.0000 -0.1837157137
O   O57       1.0  0.19070  0.62530  0.84470  1.0000 -0.1837157137
O   O58       1.0  0.19070  0.33930  0.62530  1.0000 -0.1837157137
O   O59       1.0  0.84470  0.62530  0.33930  1.0000 -0.1837157137
O   O60       1.0  0.62530  0.84470  0.19070  1.0000 -0.1859511426
O   O61       1.0  0.80930  0.15530  0.37470  1.0000 -0.1837157137
O   O62       1.0  0.66070  0.37470  0.15530  1.0000 -0.1837157137
O   O63       1.0  0.37470  0.66070  0.80930  1.0000 -0.1837157137
O   O64       1.0  0.37470  0.80930  0.15530  1.0000 -0.1837157137
O   O65       1.0  0.15530  0.66070  0.37470  1.0000 -0.1837157137
O   O66       1.0  0.80930  0.37470  0.66070  1.0000 -0.1837157137
O   O67       1.0  0.15530  0.37470  0.80930  1.0000 -0.1837157137
O   O68       1.0  0.37470  0.15530  0.66070  1.0000 -0.1837157137
O   O69       1.0  0.66070  0.80930  0.37470  1.0000 -0.1837157137
O   O70       1.0  0.19070  0.84470  0.33930  1.0000 -0.1837157137
O   O71       1.0  0.84470  0.33930  0.19070  1.0000 -0.1837157137
O   O72       1.0  0.33930  0.19070  0.84470  1.0000 -0.1837157137
O   O73       1.0  0.72880  0.27120  0.27120  1.0000 -0.8330298176
O   O74       1.0  0.27120  0.72880  0.27120  1.0000 -0.8353238096
O   O75       1.0  0.27120  0.27120  0.72880  1.0000 -0.8330298176
O   O76       1.0  0.72880  0.27120  0.72880  1.0000 -0.8330298176
O   O77       1.0  0.27120  0.72880  0.72880  1.0000 -0.8330298176
O   O78       1.0  0.72880  0.72880  0.27120  1.0000 -0.8330298176
O   O79       1.0  0.70970  0.29030  0.41790  1.0000 -0.4503007545
O   O80       1.0  0.41790  0.70970  0.29030  1.0000 -0.4503007545
O   O81       1.0  0.29030  0.41790  0.70970  1.0000 -0.4503007545
O   O82       1.0  0.29030  0.70970  0.41790  1.0000 -0.4503007545
O   O83       1.0  0.58210  0.41790  0.70970  1.0000 -0.4447003892
O   O84       1.0  0.41790  0.58210  0.29030  1.0000 -0.4503007545
O   O85       1.0  0.58210  0.29030  0.41790  1.0000 -0.4447003892
O   O86       1.0  0.41790  0.70970  0.58210  1.0000 -0.4503007545
O   O87       1.0  0.70970  0.41790  0.29030  1.0000 -0.4503007545
O   O88       1.0  0.70970  0.58210  0.41790  1.0000 -0.4447003892
O   O89       1.0  0.29030  0.41790  0.58210  1.0000 -0.4503007545
O   O90       1.0  0.41790  0.29030  0.70970  1.0000 -0.4503007545
O   O91       1.0  0.29030  0.70970  0.58210  1.0000 -0.4503007545
O   O92       1.0  0.41790  0.58210  0.70970  1.0000 -0.4503007545
O   O93       1.0  0.58210  0.41790  0.29030  1.0000 -0.4503007545
O   O94       1.0  0.58210  0.29030  0.70970  1.0000 -0.4503007545
O   O95       1.0  0.70970  0.41790  0.58210  1.0000 -0.4503007545
O   O96       1.0  0.29030  0.58210  0.41790  1.0000 -0.4503007545
O   O97       1.0  0.70970  0.58210  0.29030  1.0000 -0.4503007545
O   O98       1.0  0.58210  0.70970  0.41790  1.0000 -0.4503007545
O   O99       1.0  0.41790  0.29030  0.58210  1.0000 -0.4503007545
O   O100      1.0  0.70970  0.29030  0.58210  1.0000 -0.4447003892
O   O101      1.0  0.29030  0.58210  0.70970  1.0000 -0.4503007545
O   O102      1.0  0.58210  0.70970  0.29030  1.0000 -0.4503007545
