# DDEC6 charges by PACMAN v1.1 (https://github.com/mtap-research/PACMAN-charge/)
data_2004[Pr][nan]3[ASR]1
_chemical_formula_sum              "Pr8 H96 C72 O48"
_cell_length_a       21.941
_cell_length_b       7.7878
_cell_length_c       19.6649
_cell_angle_alpha    90
_cell_angle_beta     90
_cell_angle_gamma    90

_symmetry_space_group_name_H-M    "P 1"
_symmetry_Int_Tables_number       1

loop_
  _symmetry_equiv_pos_as_xyz
  'x, y, z'

loop_
  _atom_site_type_symbol
  _atom_site_label
  _atom_site_symmetry_multiplicity
  _atom_site_fract_x
  _atom_site_fract_y
  _atom_site_fract_z
  _atom_site_occupancy
  _atom_site_charge
Pr  Pr1       1.0  0.27652  0.58943  0.05995  1.0000 2.0954674845
Pr  Pr2       1.0  0.72348  0.41057  0.94005  1.0000 2.0954674845
Pr  Pr3       1.0  0.22348  0.91057  0.55995  1.0000 2.0954674845
Pr  Pr4       1.0  0.77652  0.08943  0.44005  1.0000 2.0954674845
Pr  Pr5       1.0  0.72348  0.58943  0.44005  1.0000 2.0954674845
Pr  Pr6       1.0  0.27652  0.41057  0.55995  1.0000 2.0954674845
Pr  Pr7       1.0  0.77652  0.91057  0.94005  1.0000 2.0954674845
Pr  Pr8       1.0  0.22348  0.08943  0.05995  1.0000 2.0954674845
H   H1        1.0  0.32860  0.04801  0.92356  1.0000 0.1196787706
H   H2        1.0  0.67140  0.95199  0.07644  1.0000 0.1196787706
H   H3        1.0  0.17140  0.45199  0.42356  1.0000 0.1196787706
H   H4        1.0  0.82860  0.54801  0.57644  1.0000 0.1196787706
H   H5        1.0  0.67140  0.04801  0.57644  1.0000 0.1196787706
H   H6        1.0  0.32860  0.95199  0.42356  1.0000 0.1196787706
H   H7        1.0  0.82860  0.45199  0.07644  1.0000 0.1196787706
H   H8        1.0  0.17140  0.54801  0.92356  1.0000 0.1196787706
H   H9        1.0  0.26161  0.01356  0.87542  1.0000 0.1196787706
H   H10       1.0  0.73839  0.98644  0.12458  1.0000 0.1196787706
H   H11       1.0  0.23839  0.48644  0.37542  1.0000 0.1196787706
H   H12       1.0  0.76161  0.51356  0.62458  1.0000 0.1196787706
H   H13       1.0  0.73839  0.01356  0.62458  1.0000 0.1196787706
H   H14       1.0  0.26161  0.98644  0.37542  1.0000 0.1196787706
H   H15       1.0  0.76161  0.48644  0.12458  1.0000 0.1196787706
H   H16       1.0  0.23839  0.51356  0.87542  1.0000 0.1196787706
H   H17       1.0  0.05824  0.62996  0.08859  1.0000 0.1196787706
H   H18       1.0  0.94176  0.37004  0.91141  1.0000 0.1196787706
H   H19       1.0  0.44176  0.87004  0.58859  1.0000 0.1196787706
H   H20       1.0  0.55824  0.12996  0.41141  1.0000 0.1196787706
H   H21       1.0  0.94176  0.62996  0.41141  1.0000 0.1196787706
H   H22       1.0  0.05824  0.37004  0.58859  1.0000 0.1196787706
H   H23       1.0  0.55824  0.87004  0.91141  1.0000 0.1196787706
H   H24       1.0  0.44176  0.12996  0.08859  1.0000 0.1196787706
H   H25       1.0  0.03535  0.41290  0.10884  1.0000 0.1135724857
H   H26       1.0  0.96465  0.58710  0.89116  1.0000 0.1135724857
H   H27       1.0  0.46465  0.08710  0.60884  1.0000 0.1135724857
H   H28       1.0  0.53535  0.91290  0.39116  1.0000 0.1135724857
H   H29       1.0  0.96465  0.41290  0.39116  1.0000 0.1135724857
H   H30       1.0  0.03535  0.58710  0.60884  1.0000 0.1135724857
H   H31       1.0  0.53535  0.08710  0.89116  1.0000 0.1135724857
H   H32       1.0  0.46465  0.91290  0.10884  1.0000 0.1135724857
H   H33       1.0  0.05944  0.55471  0.96452  1.0000 0.0793729585
H   H34       1.0  0.94056  0.44529  0.03548  1.0000 0.0793729585
H   H35       1.0  0.44056  0.94529  0.46452  1.0000 0.0793729585
H   H36       1.0  0.55944  0.05471  0.53548  1.0000 0.0793729585
H   H37       1.0  0.94056  0.55471  0.53548  1.0000 0.0793729585
H   H38       1.0  0.05944  0.44529  0.46452  1.0000 0.0793729585
H   H39       1.0  0.55944  0.94529  0.03548  1.0000 0.0793729585
H   H40       1.0  0.44056  0.05471  0.96452  1.0000 0.0793729585
H   H41       1.0  0.03854  0.33895  0.98396  1.0000 0.0922371667
H   H42       1.0  0.96146  0.66105  0.01604  1.0000 0.0922371667
H   H43       1.0  0.46146  0.16105  0.48396  1.0000 0.0922371667
H   H44       1.0  0.53854  0.83895  0.51604  1.0000 0.0922371667
H   H45       1.0  0.96146  0.33895  0.51604  1.0000 0.0922371667
H   H46       1.0  0.03854  0.66105  0.48396  1.0000 0.0922371667
H   H47       1.0  0.53854  0.16105  0.01604  1.0000 0.0922371667
H   H48       1.0  0.46146  0.83895  0.98396  1.0000 0.0922371667
H   H49       1.0  0.38138  0.81571  0.84935  1.0000 0.0793729585
H   H50       1.0  0.61862  0.18429  0.15065  1.0000 0.0793729585
H   H51       1.0  0.11862  0.68429  0.34935  1.0000 0.0793729585
H   H52       1.0  0.88138  0.31571  0.65065  1.0000 0.0793729585
H   H53       1.0  0.61862  0.81571  0.65065  1.0000 0.0793729585
H   H54       1.0  0.38138  0.18429  0.34935  1.0000 0.0793729585
H   H55       1.0  0.88138  0.68429  0.15065  1.0000 0.0793729585
H   H56       1.0  0.11862  0.31571  0.84935  1.0000 0.0793729585
H   H57       1.0  0.36497  0.01501  0.80935  1.0000 0.0793729585
H   H58       1.0  0.63503  0.98499  0.19065  1.0000 0.0793729585
H   H59       1.0  0.13503  0.48499  0.30935  1.0000 0.0793729585
H   H60       1.0  0.86497  0.51501  0.69065  1.0000 0.0793729585
H   H61       1.0  0.63503  0.01501  0.69065  1.0000 0.0793729585
H   H62       1.0  0.36497  0.98499  0.30935  1.0000 0.0793729585
H   H63       1.0  0.86497  0.48499  0.19065  1.0000 0.0793729585
H   H64       1.0  0.13503  0.51501  0.80935  1.0000 0.0793729585
H   H65       1.0  0.26767  0.11863  0.26091  1.0000 0.0922371667
H   H66       1.0  0.73233  0.88137  0.73909  1.0000 0.0922371667
H   H67       1.0  0.23233  0.38137  0.76091  1.0000 0.0922371667
H   H68       1.0  0.76767  0.61863  0.23909  1.0000 0.0922371667
H   H69       1.0  0.73233  0.11863  0.23909  1.0000 0.0922371667
H   H70       1.0  0.26767  0.88137  0.76091  1.0000 0.0922371667
H   H71       1.0  0.76767  0.38137  0.73909  1.0000 0.0922371667
H   H72       1.0  0.23233  0.61863  0.26091  1.0000 0.0922371667
H   H73       1.0  0.29022  0.31760  0.29751  1.0000 0.0922371667
H   H74       1.0  0.70978  0.68240  0.70249  1.0000 0.0922371667
H   H75       1.0  0.20978  0.18240  0.79751  1.0000 0.0922371667
H   H76       1.0  0.79022  0.81760  0.20249  1.0000 0.0922371667
H   H77       1.0  0.70978  0.31760  0.20249  1.0000 0.0922371667
H   H78       1.0  0.29022  0.68240  0.79751  1.0000 0.0922371667
H   H79       1.0  0.79022  0.18240  0.70249  1.0000 0.0922371667
H   H80       1.0  0.20978  0.81760  0.29751  1.0000 0.0922371667
H   H81       1.0  0.39101  0.29254  0.22937  1.0000 0.1135724857
H   H82       1.0  0.60899  0.70746  0.77063  1.0000 0.1135724857
H   H83       1.0  0.10899  0.20746  0.72937  1.0000 0.1135724857
H   H84       1.0  0.89101  0.79254  0.27063  1.0000 0.1135724857
H   H85       1.0  0.60899  0.29254  0.27063  1.0000 0.1135724857
H   H86       1.0  0.39101  0.70746  0.72937  1.0000 0.1135724857
H   H87       1.0  0.89101  0.20746  0.77063  1.0000 0.1135724857
H   H88       1.0  0.10899  0.79254  0.22937  1.0000 0.1135724857
H   H89       1.0  0.35606  0.11427  0.18563  1.0000 0.1196787706
H   H90       1.0  0.64394  0.88573  0.81437  1.0000 0.1196787706
H   H91       1.0  0.14394  0.38573  0.68563  1.0000 0.1196787706
H   H92       1.0  0.85606  0.61427  0.31437  1.0000 0.1196787706
H   H93       1.0  0.64394  0.11427  0.31437  1.0000 0.1196787706
H   H94       1.0  0.35606  0.88573  0.68563  1.0000 0.1196787706
H   H95       1.0  0.85606  0.38573  0.81437  1.0000 0.1196787706
H   H96       1.0  0.14394  0.61427  0.18563  1.0000 0.1196787706
C   C1        1.0  0.28786  0.80920  0.94060  1.0000 0.6670596441
C   C2        1.0  0.71214  0.19080  0.05940  1.0000 0.6670596441
C   C3        1.0  0.21214  0.69080  0.44060  1.0000 0.6670596441
C   C4        1.0  0.78786  0.30920  0.55940  1.0000 0.6670596441
C   C5        1.0  0.71214  0.80920  0.55940  1.0000 0.6670596441
C   C6        1.0  0.28786  0.19080  0.44060  1.0000 0.6670596441
C   C7        1.0  0.78786  0.69080  0.05940  1.0000 0.6670596441
C   C8        1.0  0.21214  0.30920  0.94060  1.0000 0.6670596441
C   C9        1.0  0.12638  0.43680  0.06970  1.0000 0.6945648556
C   C10       1.0  0.87362  0.56320  0.93030  1.0000 0.6945648556
C   C11       1.0  0.37362  0.06320  0.56970  1.0000 0.6945648556
C   C12       1.0  0.62638  0.93680  0.43030  1.0000 0.6945648556
C   C13       1.0  0.87362  0.43680  0.43030  1.0000 0.6945648556
C   C14       1.0  0.12638  0.56320  0.56970  1.0000 0.6945648556
C   C15       1.0  0.62638  0.06320  0.93030  1.0000 0.6945648556
C   C16       1.0  0.37362  0.93680  0.06970  1.0000 0.6945648556
C   C17       1.0  0.34365  0.89875  0.83147  1.0000 -0.112149781
C   C18       1.0  0.65635  0.10125  0.16853  1.0000 -0.112149781
C   C19       1.0  0.15635  0.60125  0.33147  1.0000 -0.112149781
C   C20       1.0  0.84365  0.39875  0.66853  1.0000 -0.112149781
C   C21       1.0  0.65635  0.89875  0.66853  1.0000 -0.112149781
C   C22       1.0  0.34365  0.10125  0.33147  1.0000 -0.112149781
C   C23       1.0  0.84365  0.60125  0.16853  1.0000 -0.112149781
C   C24       1.0  0.15635  0.39875  0.83147  1.0000 -0.112149781
C   C25       1.0  0.30442  0.95170  0.89184  1.0000 -0.3001844967
C   C26       1.0  0.69558  0.04830  0.10816  1.0000 -0.3001844967
C   C27       1.0  0.19558  0.54830  0.39184  1.0000 -0.3001844967
C   C28       1.0  0.80442  0.45170  0.60816  1.0000 -0.3001844967
C   C29       1.0  0.69558  0.95170  0.60816  1.0000 -0.3001844967
C   C30       1.0  0.30442  0.04830  0.39184  1.0000 -0.3001844967
C   C31       1.0  0.80442  0.54830  0.10816  1.0000 -0.3001844967
C   C32       1.0  0.19558  0.45170  0.89184  1.0000 -0.3001844967
C   C33       1.0  0.06060  0.49418  0.07230  1.0000 -0.2891512635
C   C34       1.0  0.93940  0.50582  0.92770  1.0000 -0.2891512635
C   C35       1.0  0.43940  0.00582  0.57230  1.0000 -0.2891512635
C   C36       1.0  0.56060  0.99418  0.42770  1.0000 -0.2891512635
C   C37       1.0  0.93940  0.49418  0.42770  1.0000 -0.2891512635
C   C38       1.0  0.06060  0.50582  0.57230  1.0000 -0.2891512635
C   C39       1.0  0.56060  0.00582  0.92770  1.0000 -0.2891512635
C   C40       1.0  0.43940  0.99418  0.07230  1.0000 -0.2891512635
C   C41       1.0  0.31602  0.36090  0.16815  1.0000 0.6670596441
C   C42       1.0  0.68398  0.63910  0.83185  1.0000 0.6670596441
C   C43       1.0  0.18398  0.13910  0.66815  1.0000 0.6670596441
C   C44       1.0  0.81602  0.86090  0.33185  1.0000 0.6670596441
C   C45       1.0  0.68398  0.36090  0.33185  1.0000 0.6670596441
C   C46       1.0  0.31602  0.63910  0.66815  1.0000 0.6670596441
C   C47       1.0  0.81602  0.13910  0.83185  1.0000 0.6670596441
C   C48       1.0  0.18398  0.86090  0.16815  1.0000 0.6670596441
C   C49       1.0  0.03345  0.47407  0.00089  1.0000 -0.112149781
C   C50       1.0  0.96655  0.52593  0.99911  1.0000 -0.112149781
C   C51       1.0  0.46655  0.02593  0.50089  1.0000 -0.112149781
C   C52       1.0  0.53345  0.97407  0.49911  1.0000 -0.116437985
C   C53       1.0  0.96655  0.47407  0.49911  1.0000 -0.116437985
C   C54       1.0  0.03345  0.52593  0.50089  1.0000 -0.112149781
C   C55       1.0  0.53345  0.02593  0.99911  1.0000 -0.112149781
C   C56       1.0  0.46655  0.97407  0.00089  1.0000 -0.116437985
C   C57       1.0  0.30776  0.19529  0.27654  1.0000 -0.112149781
C   C58       1.0  0.69224  0.80471  0.72346  1.0000 -0.112149781
C   C59       1.0  0.19224  0.30471  0.77654  1.0000 -0.112149781
C   C60       1.0  0.80776  0.69529  0.22346  1.0000 -0.112149781
C   C61       1.0  0.69224  0.19529  0.22346  1.0000 -0.112149781
C   C62       1.0  0.30776  0.80471  0.77654  1.0000 -0.112149781
C   C63       1.0  0.80776  0.30471  0.72346  1.0000 -0.112149781
C   C64       1.0  0.19224  0.69529  0.27654  1.0000 -0.112149781
C   C65       1.0  0.34712  0.23382  0.21406  1.0000 -0.2836262594
C   C66       1.0  0.65288  0.76618  0.78594  1.0000 -0.2836262594
C   C67       1.0  0.15288  0.26618  0.71406  1.0000 -0.2836262594
C   C68       1.0  0.84712  0.73382  0.28594  1.0000 -0.2836262594
C   C69       1.0  0.65288  0.23382  0.28594  1.0000 -0.2836262594
C   C70       1.0  0.34712  0.76618  0.71406  1.0000 -0.2836262594
C   C71       1.0  0.84712  0.26618  0.78594  1.0000 -0.2836262594
C   C72       1.0  0.15288  0.73382  0.21406  1.0000 -0.2836262594
O   O1        1.0  0.16715  0.55353  0.06097  1.0000 -0.6954510594
O   O2        1.0  0.83285  0.44647  0.93903  1.0000 -0.6954510594
O   O3        1.0  0.33285  0.94647  0.56097  1.0000 -0.6954510594
O   O4        1.0  0.66715  0.05353  0.43903  1.0000 -0.6954510594
O   O5        1.0  0.83285  0.55353  0.43903  1.0000 -0.6954510594
O   O6        1.0  0.16715  0.44647  0.56097  1.0000 -0.6954510594
O   O7        1.0  0.66715  0.94647  0.93903  1.0000 -0.6954510594
O   O8        1.0  0.33285  0.05353  0.06097  1.0000 -0.6954510594
O   O9        1.0  0.24427  0.83871  0.98521  1.0000 -0.7919660444
O   O10       1.0  0.75573  0.16129  0.01479  1.0000 -0.7919660444
O   O11       1.0  0.25573  0.66129  0.48521  1.0000 -0.7919660444
O   O12       1.0  0.74427  0.33871  0.51479  1.0000 -0.7919660444
O   O13       1.0  0.75573  0.83871  0.51479  1.0000 -0.7919660444
O   O14       1.0  0.24427  0.16129  0.48521  1.0000 -0.7919660444
O   O15       1.0  0.74427  0.66129  0.01479  1.0000 -0.7919660444
O   O16       1.0  0.25573  0.33871  0.98521  1.0000 -0.7919660444
O   O17       1.0  0.36312  0.77604  0.07277  1.0000 -0.665652358
O   O18       1.0  0.63688  0.22396  0.92723  1.0000 -0.6648759479
O   O19       1.0  0.13688  0.72396  0.57277  1.0000 -0.665652358
O   O20       1.0  0.86312  0.27604  0.42723  1.0000 -0.665652358
O   O21       1.0  0.63688  0.77604  0.42723  1.0000 -0.6648759479
O   O22       1.0  0.36312  0.22396  0.57277  1.0000 -0.6648759479
O   O23       1.0  0.86312  0.72396  0.92723  1.0000 -0.665652358
O   O24       1.0  0.13688  0.27604  0.07277  1.0000 -0.665652358
O   O25       1.0  0.31596  0.66782  0.94157  1.0000 -0.5921488638
O   O26       1.0  0.68404  0.33218  0.05843  1.0000 -0.5921488638
O   O27       1.0  0.18404  0.83218  0.44157  1.0000 -0.5921488638
O   O28       1.0  0.81596  0.16782  0.55843  1.0000 -0.5921488638
O   O29       1.0  0.68404  0.66782  0.55843  1.0000 -0.5921488638
O   O30       1.0  0.31596  0.33218  0.44157  1.0000 -0.5921488638
O   O31       1.0  0.81596  0.83218  0.05843  1.0000 -0.5921488638
O   O32       1.0  0.18404  0.16782  0.94157  1.0000 -0.5921488638
O   O33       1.0  0.26902  0.31433  0.13140  1.0000 -0.7764239694
O   O34       1.0  0.73098  0.68567  0.86860  1.0000 -0.7764239694
O   O35       1.0  0.23098  0.18567  0.63140  1.0000 -0.7764239694
O   O36       1.0  0.76902  0.81433  0.36860  1.0000 -0.7764239694
O   O37       1.0  0.73098  0.31433  0.36860  1.0000 -0.7764239694
O   O38       1.0  0.26902  0.68567  0.63140  1.0000 -0.7764239694
O   O39       1.0  0.76902  0.18567  0.86860  1.0000 -0.7764239694
O   O40       1.0  0.23098  0.81433  0.13140  1.0000 -0.7764239694
O   O41       1.0  0.33420  0.51583  0.16572  1.0000 -0.6124714772
O   O42       1.0  0.66580  0.48417  0.83428  1.0000 -0.6124714772
O   O43       1.0  0.16580  0.98417  0.66572  1.0000 -0.6124714772
O   O44       1.0  0.83420  0.01583  0.33428  1.0000 -0.6124714772
O   O45       1.0  0.66580  0.51583  0.33428  1.0000 -0.6124714772
O   O46       1.0  0.33420  0.48417  0.66572  1.0000 -0.6124714772
O   O47       1.0  0.83420  0.98417  0.83428  1.0000 -0.6124714772
O   O48       1.0  0.16580  0.01583  0.16572  1.0000 -0.6124714772
