# DDEC6 charges by PACMAN v1.1 (https://github.com/mtap-research/PACMAN-charge/)
data_2004[Cu][nan]3[ASR]2
_chemical_formula_sum              "Cu4 H16 C32 N12 O16"
_cell_length_a       4.70959
_cell_length_b       20.0417
_cell_length_c       11.0947
_cell_angle_alpha    90
_cell_angle_beta     96.8435
_cell_angle_gamma    90

_symmetry_space_group_name_H-M    "P 1"
_symmetry_Int_Tables_number       1

loop_
  _symmetry_equiv_pos_as_xyz
  'x, y, z'

loop_
  _atom_site_type_symbol
  _atom_site_label
  _atom_site_symmetry_multiplicity
  _atom_site_fract_x
  _atom_site_fract_y
  _atom_site_fract_z
  _atom_site_occupancy
  _atom_site_charge
Cu  Cu1       1.0  0.30400  0.83950  0.94210  1.0000 0.7256361221
Cu  Cu2       1.0  0.30400  0.66050  0.44210  1.0000 0.7256361221
Cu  Cu3       1.0  0.69600  0.16050  0.05790  1.0000 0.7256361221
Cu  Cu4       1.0  0.69600  0.33950  0.55790  1.0000 0.7256361221
H   H1        1.0  0.26545  0.59284  0.91284  1.0000 0.1217651864
H   H2        1.0  0.26545  0.90716  0.41284  1.0000 0.1217651864
H   H3        1.0  0.73455  0.40716  0.08716  1.0000 0.1217651864
H   H4        1.0  0.73455  0.09284  0.58716  1.0000 0.1217651864
H   H5        1.0  0.43823  0.69291  0.00444  1.0000 0.1318733295
H   H6        1.0  0.43823  0.80709  0.50444  1.0000 0.1318733295
H   H7        1.0  0.56177  0.30709  0.99556  1.0000 0.1318733295
H   H8        1.0  0.56177  0.19291  0.49556  1.0000 0.1318733295
H   H9        1.0  0.62230  0.95401  0.82690  1.0000 0.1579361757
H   H10       1.0  0.62230  0.54599  0.32690  1.0000 0.1579361757
H   H11       1.0  0.37770  0.04599  0.17310  1.0000 0.1579361757
H   H12       1.0  0.37770  0.45401  0.67310  1.0000 0.1579361757
H   H13       1.0  0.22044  0.94134  0.11468  1.0000 0.1318733295
H   H14       1.0  0.22044  0.55866  0.61468  1.0000 0.1318733295
H   H15       1.0  0.77956  0.05866  0.88532  1.0000 0.1318733295
H   H16       1.0  0.77956  0.44134  0.38532  1.0000 0.1318733295
C   C1        1.0  0.05400  0.75000  0.77300  1.0000 0.0479281911
C   C2        1.0  0.05400  0.75000  0.27300  1.0000 0.0479281911
C   C3        1.0  0.94600  0.25000  0.22700  1.0000 0.0479281911
C   C4        1.0  0.94600  0.25000  0.72700  1.0000 0.0479281911
C   C5        1.0  0.96000  0.69100  0.71400  1.0000 0.0818487903
C   C6        1.0  0.96000  0.80900  0.21400  1.0000 0.0818487903
C   C7        1.0  0.04000  0.30900  0.28600  1.0000 0.0818487903
C   C8        1.0  0.04000  0.19100  0.78600  1.0000 0.0818487903
C   C9        1.0  0.21000  0.62900  0.86800  1.0000 0.0631136124
C   C10       1.0  0.21000  0.87100  0.36800  1.0000 0.0631136124
C   C11       1.0  0.79000  0.37100  0.13200  1.0000 0.0631136124
C   C12       1.0  0.79000  0.12900  0.63200  1.0000 0.0631136124
C   C13       1.0  0.30900  0.68900  0.92300  1.0000 0.0346248385
C   C14       1.0  0.30900  0.81100  0.42300  1.0000 0.0346248385
C   C15       1.0  0.69100  0.31100  0.07700  1.0000 0.0351291832
C   C16       1.0  0.69100  0.18900  0.57700  1.0000 0.0346248385
C   C17       1.0  0.99900  0.82200  0.72200  1.0000 0.5178799157
C   C18       1.0  0.99900  0.67800  0.22200  1.0000 0.5178799157
C   C19       1.0  0.00100  0.17800  0.27800  1.0000 0.5178799157
C   C20       1.0  0.00100  0.32200  0.77800  1.0000 0.5178799157
C   C21       1.0  0.75800  0.68800  0.59800  1.0000 0.5542861794
C   C22       1.0  0.75800  0.81200  0.09800  1.0000 0.5542861794
C   C23       1.0  0.24200  0.31200  0.40200  1.0000 0.5542861794
C   C24       1.0  0.24200  0.18800  0.90200  1.0000 0.5542861794
C   C25       1.0  0.56000  0.96900  0.90500  1.0000 0.0479281911
C   C26       1.0  0.56000  0.53100  0.40500  1.0000 0.0479281911
C   C27       1.0  0.44000  0.03100  0.09500  1.0000 0.0479281911
C   C28       1.0  0.44000  0.46900  0.59500  1.0000 0.0479281911
C   C29       1.0  0.34700  0.96800  0.06900  1.0000 0.0019443626
C   C30       1.0  0.34700  0.53200  0.56900  1.0000 0.0019443626
C   C31       1.0  0.65300  0.03200  0.93100  1.0000 0.0019443626
C   C32       1.0  0.65300  0.46800  0.43100  1.0000 0.0019443626
N   N1        1.0  0.23700  0.75200  0.87900  1.0000 -0.2417850855
N   N2        1.0  0.23700  0.74800  0.37900  1.0000 -0.2417850855
N   N3        1.0  0.76300  0.24800  0.12100  1.0000 -0.2417850855
N   N4        1.0  0.76300  0.25200  0.62100  1.0000 -0.2417850855
N   N5        1.0  0.04800  0.63100  0.76000  1.0000 -0.2522392298
N   N6        1.0  0.04800  0.86900  0.26000  1.0000 -0.2522392298
N   N7        1.0  0.95200  0.36900  0.24000  1.0000 -0.2522392298
N   N8        1.0  0.95200  0.13100  0.74000  1.0000 -0.2522392298
N   N9        1.0  0.41100  0.94000  0.97300  1.0000 -0.1173598791
N   N10       1.0  0.41100  0.56000  0.47300  1.0000 -0.1173598791
N   N11       1.0  0.58900  0.06000  0.02700  1.0000 -0.1173598791
N   N12       1.0  0.58900  0.44000  0.52700  1.0000 -0.1173598791
O   O1        1.0  0.11300  0.87300  0.77100  1.0000 -0.5090140278
O   O2        1.0  0.11300  0.62700  0.27100  1.0000 -0.5090140278
O   O3        1.0  0.88700  0.12700  0.22900  1.0000 -0.5090140278
O   O4        1.0  0.88700  0.37300  0.72900  1.0000 -0.5090140278
O   O5        1.0  0.86900  0.82700  0.61900  1.0000 -0.4790126818
O   O6        1.0  0.86900  0.67300  0.11900  1.0000 -0.4790126818
O   O7        1.0  0.13100  0.17300  0.38100  1.0000 -0.4790126818
O   O8        1.0  0.13100  0.32700  0.88100  1.0000 -0.4790126818
O   O9        1.0  0.49300  0.68900  0.59900  1.0000 -0.4790126818
O   O10       1.0  0.49300  0.81100  0.09900  1.0000 -0.4790126818
O   O11       1.0  0.50700  0.31100  0.40100  1.0000 -0.4790126818
O   O12       1.0  0.50700  0.18900  0.90100  1.0000 -0.4790126818
O   O13       1.0  0.87000  0.66800  0.51000  1.0000 -0.5403407241
O   O14       1.0  0.87000  0.83200  0.01000  1.0000 -0.5403407241
O   O15       1.0  0.13000  0.33200  0.49000  1.0000 -0.5403407241
O   O16       1.0  0.13000  0.16800  0.99000  1.0000 -0.5403407241
