# DDEC6 charges by PACMAN v1.1 (https://github.com/mtap-research/PACMAN-charge/)
data_2004[Ag][gis]3[ASR]2
_chemical_formula_sum              "Ag4 H40 C48 N24"
_cell_length_a       11.2521
_cell_length_b       11.2521
_cell_length_c       16.124
_cell_angle_alpha    72.2345
_cell_angle_beta     107.766
_cell_angle_gamma    84.9993

_symmetry_space_group_name_H-M    "P 1"
_symmetry_Int_Tables_number       1

loop_
  _symmetry_equiv_pos_as_xyz
  'x, y, z'

loop_
  _atom_site_type_symbol
  _atom_site_label
  _atom_site_symmetry_multiplicity
  _atom_site_fract_x
  _atom_site_fract_y
  _atom_site_fract_z
  _atom_site_occupancy
  _atom_site_charge
Ag  Ag1       1.0  0.51867  0.65921  0.60442  1.0000 0.2495127573
Ag  Ag2       1.0  0.65921  0.51867  0.89558  1.0000 0.2495127573
Ag  Ag3       1.0  0.48133  0.34079  0.39558  1.0000 0.2495127573
Ag  Ag4       1.0  0.34079  0.48133  0.10442  1.0000 0.2495127573
H   H1        1.0  0.50550  0.88350  0.39990  1.0000 0.0917915508
H   H2        1.0  0.88350  0.50550  0.10010  1.0000 0.0917915508
H   H3        1.0  0.49450  0.11650  0.60010  1.0000 0.0917915508
H   H4        1.0  0.11650  0.49450  0.89990  1.0000 0.0917915508
H   H5        1.0  0.73260  0.12400  0.46650  1.0000 0.1196611944
H   H6        1.0  0.12400  0.73260  0.03350  1.0000 0.1196611944
H   H7        1.0  0.26740  0.87600  0.53350  1.0000 0.1196611944
H   H8        1.0  0.87600  0.26740  0.96650  1.0000 0.1196611944
H   H9        1.0  0.81660  0.97780  0.62020  1.0000 0.1196611944
H   H10       1.0  0.97780  0.81660  0.87980  1.0000 0.1196611944
H   H11       1.0  0.18340  0.02220  0.37980  1.0000 0.1196611944
H   H12       1.0  0.02220  0.18340  0.12020  1.0000 0.1196611944
H   H13       1.0  0.74380  0.78940  0.65600  1.0000 0.1009345736
H   H14       1.0  0.78940  0.74380  0.84400  1.0000 0.1009345736
H   H15       1.0  0.25620  0.21060  0.34400  1.0000 0.1009345736
H   H16       1.0  0.21060  0.25620  0.15600  1.0000 0.1009345736
H   H17       1.0  0.51430  0.31470  0.83990  1.0000 0.0917915508
H   H18       1.0  0.31470  0.51430  0.66010  1.0000 0.0917915508
H   H19       1.0  0.48570  0.68530  0.16010  1.0000 0.0917915508
H   H20       1.0  0.68530  0.48570  0.33990  1.0000 0.0917915508
H   H21       1.0  0.42010  0.14750  0.89330  1.0000 0.1009345736
H   H22       1.0  0.14750  0.42010  0.60670  1.0000 0.1009345736
H   H23       1.0  0.57990  0.85250  0.10670  1.0000 0.1009345736
H   H24       1.0  0.85250  0.57990  0.39330  1.0000 0.1009345736
H   H25       1.0  0.41940  0.08780  0.04660  1.0000 0.1121148421
H   H26       1.0  0.08780  0.41940  0.45340  1.0000 0.1121148421
H   H27       1.0  0.58060  0.91220  0.95340  1.0000 0.1121148421
H   H28       1.0  0.91220  0.58060  0.54660  1.0000 0.1121148421
H   H29       1.0  0.60050  0.37390  0.07700  1.0000 0.1009345736
H   H30       1.0  0.37390  0.60050  0.42300  1.0000 0.1009345736
H   H31       1.0  0.39950  0.62610  0.92300  1.0000 0.1009345736
H   H32       1.0  0.62610  0.39950  0.57700  1.0000 0.1009345736
H   H33       1.0  0.68630  0.95030  0.27200  1.0000 0.2423458426
H   H34       1.0  0.95030  0.68630  0.22800  1.0000 0.2423458426
H   H35       1.0  0.31370  0.04970  0.72800  1.0000 0.2423458426
H   H36       1.0  0.04970  0.31370  0.77200  1.0000 0.2423458426
H   H37       1.0  0.55500  0.91900  0.25000  1.0000 0.2160518459
H   H38       1.0  0.91900  0.55500  0.25000  1.0000 0.2160518459
H   H39       1.0  0.44500  0.08100  0.75000  1.0000 0.2160518459
H   H40       1.0  0.08100  0.44500  0.75000  1.0000 0.2160518459
C   C1        1.0  0.56965  0.90319  0.44496  1.0000 -0.02086166
C   C2        1.0  0.90319  0.56965  0.05504  1.0000 -0.02086166
C   C3        1.0  0.43035  0.09681  0.55504  1.0000 -0.02086166
C   C4        1.0  0.09681  0.43035  0.94496  1.0000 -0.02086166
C   C5        1.0  0.61028  0.01660  0.41734  1.0000 -0.02086166
C   C6        1.0  0.01660  0.61028  0.08266  1.0000 -0.02086166
C   C7        1.0  0.38972  0.98340  0.58266  1.0000 -0.02086166
C   C8        1.0  0.98340  0.38972  0.91734  1.0000 -0.02086166
C   C9        1.0  0.70349  0.04635  0.48317  1.0000 -0.1205595908
C   C10       1.0  0.04635  0.70349  0.01683  1.0000 -0.1205595908
C   C11       1.0  0.29651  0.95365  0.51683  1.0000 -0.1205595908
C   C12       1.0  0.95365  0.29651  0.98317  1.0000 -0.1205595908
C   C13       1.0  0.75295  0.96035  0.57356  1.0000 -0.152246301
C   C14       1.0  0.96035  0.75295  0.92644  1.0000 -0.152246301
C   C15       1.0  0.24705  0.03965  0.42644  1.0000 -0.152246301
C   C16       1.0  0.03965  0.24705  0.07356  1.0000 -0.152246301
C   C17       1.0  0.70795  0.84889  0.59426  1.0000 0.0309670745
C   C18       1.0  0.84889  0.70795  0.90574  1.0000 0.0309670745
C   C19       1.0  0.29205  0.15111  0.40574  1.0000 0.0309670745
C   C20       1.0  0.15111  0.29205  0.09426  1.0000 0.0309670745
C   C21       1.0  0.51316  0.29236  0.90140  1.0000 0.0157075451
C   C22       1.0  0.29236  0.51316  0.59860  1.0000 0.0157075451
C   C23       1.0  0.48684  0.70764  0.09860  1.0000 0.0157075451
C   C24       1.0  0.70764  0.48684  0.40140  1.0000 0.0157075451
C   C25       1.0  0.45740  0.19220  0.93270  1.0000 -0.1653373361
C   C26       1.0  0.19220  0.45740  0.56730  1.0000 -0.1653373361
C   C27       1.0  0.54260  0.80780  0.06730  1.0000 -0.1653373361
C   C28       1.0  0.80780  0.54260  0.43270  1.0000 -0.1653373361
C   C29       1.0  0.45635  0.15735  0.02290  1.0000 -0.1056174793
C   C30       1.0  0.15735  0.45635  0.47710  1.0000 -0.1056174793
C   C31       1.0  0.54365  0.84265  0.97710  1.0000 -0.1056174793
C   C32       1.0  0.84265  0.54365  0.52290  1.0000 -0.1056174793
C   C33       1.0  0.51051  0.22615  0.07717  1.0000 -0.0122340344
C   C34       1.0  0.22615  0.51051  0.42283  1.0000 -0.0122340344
C   C35       1.0  0.48949  0.77385  0.92283  1.0000 -0.0122340344
C   C36       1.0  0.77385  0.48949  0.57717  1.0000 -0.0122340344
C   C37       1.0  0.56385  0.32653  0.03949  1.0000 -0.0122340344
C   C38       1.0  0.32653  0.56385  0.46051  1.0000 -0.0122340344
C   C39       1.0  0.43615  0.67347  0.96051  1.0000 -0.0122340344
C   C40       1.0  0.67347  0.43615  0.53949  1.0000 -0.0122340344
C   C41       1.0  0.55675  0.10915  0.32155  1.0000 0.1581666797
C   C42       1.0  0.10915  0.55675  0.17845  1.0000 0.1581666797
C   C43       1.0  0.44325  0.89085  0.67845  1.0000 0.1581666797
C   C44       1.0  0.89085  0.44325  0.82155  1.0000 0.1581666797
C   C45       1.0  0.51437  0.20023  0.17300  1.0000 0.1693072944
C   C46       1.0  0.20023  0.51437  0.32700  1.0000 0.1693072944
C   C47       1.0  0.48563  0.79977  0.82700  1.0000 0.1693072944
C   C48       1.0  0.79977  0.48563  0.67300  1.0000 0.1693072944
N   N1        1.0  0.61671  0.81963  0.53259  1.0000 -0.2070593358
N   N2        1.0  0.81963  0.61671  0.96741  1.0000 -0.2070593358
N   N3        1.0  0.38329  0.18037  0.46741  1.0000 -0.2070593358
N   N4        1.0  0.18037  0.38329  0.03259  1.0000 -0.2070593358
N   N5        1.0  0.56609  0.35983  0.95302  1.0000 -0.1955966585
N   N6        1.0  0.35983  0.56609  0.54698  1.0000 -0.1955966585
N   N7        1.0  0.43391  0.64017  0.04698  1.0000 -0.1955966585
N   N8        1.0  0.64017  0.43391  0.45302  1.0000 -0.1955966585
N   N9        1.0  0.48115  0.28759  0.20418  1.0000 -0.2174803902
N   N10       1.0  0.28759  0.48115  0.29582  1.0000 -0.2174803902
N   N11       1.0  0.51885  0.71241  0.79582  1.0000 -0.2174803902
N   N12       1.0  0.71241  0.51885  0.70418  1.0000 -0.2174803902
N   N13       1.0  0.50828  0.22952  0.29880  1.0000 -0.2174803902
N   N14       1.0  0.22952  0.50828  0.20120  1.0000 -0.2174803902
N   N15       1.0  0.49172  0.77048  0.70120  1.0000 -0.2174803902
N   N16       1.0  0.77048  0.49172  0.79880  1.0000 -0.2174803902
N   N17       1.0  0.56007  0.08597  0.24379  1.0000 0.0584570459
N   N18       1.0  0.08597  0.56007  0.25621  1.0000 0.0584570459
N   N19       1.0  0.43993  0.91403  0.75621  1.0000 0.0584570459
N   N20       1.0  0.91403  0.43993  0.74379  1.0000 0.0584570459
N   N21       1.0  0.60819  0.97261  0.23486  1.0000 -0.5307712675
N   N22       1.0  0.97261  0.60819  0.26514  1.0000 -0.5307712675
N   N23       1.0  0.39181  0.02739  0.76514  1.0000 -0.5307712675
N   N24       1.0  0.02739  0.39181  0.73486  1.0000 -0.5307712675
