# DDEC6 charges by PACMAN v1.1 (https://github.com/mtap-research/PACMAN-charge/)
data_2004[Cu][nbo]3[ASR]1
_chemical_formula_sum              "Cu12 H48 C72 N60 O24"
_cell_length_a       18.7158
_cell_length_b       18.7158
_cell_length_c       18.7158
_cell_angle_alpha    113.76
_cell_angle_beta     113.76
_cell_angle_gamma    113.76

_symmetry_space_group_name_H-M    "P 1"
_symmetry_Int_Tables_number       1

loop_
  _symmetry_equiv_pos_as_xyz
  'x, y, z'

loop_
  _atom_site_type_symbol
  _atom_site_label
  _atom_site_symmetry_multiplicity
  _atom_site_fract_x
  _atom_site_fract_y
  _atom_site_fract_z
  _atom_site_occupancy
  _atom_site_charge
Cu  Cu1       1.0  0.59663  0.58920  0.03722  1.0000 0.4391134523
Cu  Cu2       1.0  0.58920  0.03722  0.59663  1.0000 0.4391134523
Cu  Cu3       1.0  0.03722  0.59663  0.58920  1.0000 0.4391134523
Cu  Cu4       1.0  0.40337  0.41080  0.96278  1.0000 0.4391134523
Cu  Cu5       1.0  0.41080  0.96278  0.40337  1.0000 0.4391134523
Cu  Cu6       1.0  0.96278  0.40337  0.41080  1.0000 0.4391134523
Cu  Cu7       1.0  0.53243  0.20124  0.05957  1.0000 0.6704069219
Cu  Cu8       1.0  0.20124  0.05957  0.53243  1.0000 0.6704069219
Cu  Cu9       1.0  0.05957  0.53243  0.20124  1.0000 0.6704069219
Cu  Cu10      1.0  0.46757  0.79876  0.94043  1.0000 0.6704069219
Cu  Cu11      1.0  0.79876  0.94043  0.46757  1.0000 0.6704069219
Cu  Cu12      1.0  0.94043  0.46757  0.79876  1.0000 0.6704069219
H   H1        1.0  0.80100  0.62990  0.11630  1.0000 0.0825199104
H   H2        1.0  0.62990  0.11630  0.80100  1.0000 0.0825199104
H   H3        1.0  0.11630  0.80100  0.62990  1.0000 0.0825199104
H   H4        1.0  0.19900  0.37010  0.88370  1.0000 0.0825199104
H   H5        1.0  0.37010  0.88370  0.19900  1.0000 0.0825199104
H   H6        1.0  0.88370  0.19900  0.37010  1.0000 0.0825199104
H   H7        1.0  0.40720  0.25580  0.98570  1.0000 0.1208632283
H   H8        1.0  0.25580  0.98570  0.40720  1.0000 0.1208632283
H   H9        1.0  0.98570  0.40720  0.25580  1.0000 0.1208632283
H   H10       1.0  0.59280  0.74420  0.01430  1.0000 0.1208632283
H   H11       1.0  0.74420  0.01430  0.59280  1.0000 0.1208632283
H   H12       1.0  0.01430  0.59280  0.74420  1.0000 0.1208632283
H   H13       1.0  0.73160  0.32660  0.10200  1.0000 0.2893186303
H   H14       1.0  0.32660  0.10200  0.73160  1.0000 0.2893186303
H   H15       1.0  0.10200  0.73160  0.32660  1.0000 0.2893186303
H   H16       1.0  0.26840  0.67340  0.89800  1.0000 0.2893186303
H   H17       1.0  0.67340  0.89800  0.26840  1.0000 0.2893186303
H   H18       1.0  0.89800  0.26840  0.67340  1.0000 0.2893186303
H   H19       1.0  0.82940  0.41140  0.13480  1.0000 0.3256140344
H   H20       1.0  0.41140  0.13480  0.82940  1.0000 0.3256140344
H   H21       1.0  0.13480  0.82940  0.41140  1.0000 0.3256140344
H   H22       1.0  0.17060  0.58860  0.86520  1.0000 0.3256140344
H   H23       1.0  0.58860  0.86520  0.17060  1.0000 0.3256140344
H   H24       1.0  0.86520  0.17060  0.58860  1.0000 0.3256140344
H   H25       1.0  0.65490  0.56730  0.91010  1.0000 0.1137125634
H   H26       1.0  0.56730  0.91010  0.65490  1.0000 0.1137125634
H   H27       1.0  0.91010  0.65490  0.56730  1.0000 0.1137125634
H   H28       1.0  0.34510  0.43270  0.08990  1.0000 0.1137125634
H   H29       1.0  0.43270  0.08990  0.34510  1.0000 0.1137125634
H   H30       1.0  0.08990  0.34510  0.43270  1.0000 0.1137125634
H   H31       1.0  0.24140  0.19030  0.73910  1.0000 0.1049854748
H   H32       1.0  0.19030  0.73910  0.24140  1.0000 0.1049854748
H   H33       1.0  0.73910  0.24140  0.19030  1.0000 0.1049854748
H   H34       1.0  0.75860  0.80970  0.26090  1.0000 0.1049854748
H   H35       1.0  0.80970  0.26090  0.75860  1.0000 0.1049854748
H   H36       1.0  0.26090  0.75860  0.80970  1.0000 0.1049854748
H   H37       1.0  0.47280  0.29040  0.58850  1.0000 0.3211430105
H   H38       1.0  0.29040  0.58850  0.47280  1.0000 0.3211430105
H   H39       1.0  0.58850  0.47280  0.29040  1.0000 0.3211430105
H   H40       1.0  0.52720  0.70960  0.41150  1.0000 0.3211430105
H   H41       1.0  0.70960  0.41150  0.52720  1.0000 0.3211430105
H   H42       1.0  0.41150  0.52720  0.70960  1.0000 0.3211430105
H   H43       1.0  0.37120  0.20390  0.54950  1.0000 0.2893186303
H   H44       1.0  0.20390  0.54950  0.37120  1.0000 0.2893186303
H   H45       1.0  0.54950  0.37120  0.20390  1.0000 0.2893186303
H   H46       1.0  0.62880  0.79610  0.45050  1.0000 0.2893186303
H   H47       1.0  0.79610  0.45050  0.62880  1.0000 0.2893186303
H   H48       1.0  0.45050  0.62880  0.79610  1.0000 0.2893186303
C   C1        1.0  0.33060  0.01060  0.89890  1.0000 0.4710446042
C   C2        1.0  0.01060  0.89890  0.33060  1.0000 0.4710446042
C   C3        1.0  0.89890  0.33060  0.01060  1.0000 0.4710446042
C   C4        1.0  0.66940  0.98940  0.10110  1.0000 0.4710446042
C   C5        1.0  0.98940  0.10110  0.66940  1.0000 0.4710446042
C   C6        1.0  0.10110  0.66940  0.98940  1.0000 0.4710446042
C   C7        1.0  0.38760  0.00410  0.98040  1.0000 0.4710446042
C   C8        1.0  0.00410  0.98040  0.38760  1.0000 0.4710446042
C   C9        1.0  0.98040  0.38760  0.00410  1.0000 0.4710446042
C   C10       1.0  0.61240  0.99590  0.01960  1.0000 0.4710446042
C   C11       1.0  0.99590  0.01960  0.61240  1.0000 0.4710446042
C   C12       1.0  0.01960  0.61240  0.99590  1.0000 0.4710446042
C   C13       1.0  0.75820  0.56610  0.11370  1.0000 0.2735986255
C   C14       1.0  0.56610  0.11370  0.75820  1.0000 0.2735986255
C   C15       1.0  0.11370  0.75820  0.56610  1.0000 0.2735986255
C   C16       1.0  0.24180  0.43390  0.88630  1.0000 0.2735986255
C   C17       1.0  0.43390  0.88630  0.24180  1.0000 0.2735986255
C   C18       1.0  0.88630  0.24180  0.43390  1.0000 0.2735986255
C   C19       1.0  0.60290  0.44700  0.06020  1.0000 0.3067888064
C   C20       1.0  0.44700  0.06020  0.60290  1.0000 0.3067888064
C   C21       1.0  0.06020  0.60290  0.44700  1.0000 0.3067888064
C   C22       1.0  0.39710  0.55300  0.93980  1.0000 0.3067888064
C   C23       1.0  0.55300  0.93980  0.39710  1.0000 0.3067888064
C   C24       1.0  0.93980  0.39710  0.55300  1.0000 0.3067888064
C   C25       1.0  0.63560  0.39480  0.07610  1.0000 -0.0311308585
C   C26       1.0  0.39480  0.07610  0.63560  1.0000 -0.0311308585
C   C27       1.0  0.07610  0.63560  0.39480  1.0000 -0.0311308585
C   C28       1.0  0.36440  0.60520  0.92390  1.0000 -0.0311308585
C   C29       1.0  0.60520  0.92390  0.36440  1.0000 -0.0311308585
C   C30       1.0  0.92390  0.36440  0.60520  1.0000 -0.0311308585
C   C31       1.0  0.73250  0.43080  0.10640  1.0000 0.3476118239
C   C32       1.0  0.43080  0.10640  0.73250  1.0000 0.3476118239
C   C33       1.0  0.10640  0.73250  0.43080  1.0000 0.3476118239
C   C34       1.0  0.26750  0.56920  0.89360  1.0000 0.3476118239
C   C35       1.0  0.56920  0.89360  0.26750  1.0000 0.3476118239
C   C36       1.0  0.89360  0.26750  0.56920  1.0000 0.3476118239
C   C37       1.0  0.47900  0.31120  0.01510  1.0000 0.1607731325
C   C38       1.0  0.31120  0.01510  0.47900  1.0000 0.1607731325
C   C39       1.0  0.01510  0.47900  0.31120  1.0000 0.1607731325
C   C40       1.0  0.52100  0.68880  0.98490  1.0000 0.1607731325
C   C41       1.0  0.68880  0.98490  0.52100  1.0000 0.1607731325
C   C42       1.0  0.98490  0.52100  0.68880  1.0000 0.1607731325
C   C43       1.0  0.58710  0.49990  0.85990  1.0000 0.2152128153
C   C44       1.0  0.49990  0.85990  0.58710  1.0000 0.2152128153
C   C45       1.0  0.85990  0.58710  0.49990  1.0000 0.2152128153
C   C46       1.0  0.41290  0.50010  0.14010  1.0000 0.2152128153
C   C47       1.0  0.50010  0.14010  0.41290  1.0000 0.2143448733
C   C48       1.0  0.14010  0.41290  0.50010  1.0000 0.2152128153
C   C49       1.0  0.44390  0.38210  0.81970  1.0000 0.3005821697
C   C50       1.0  0.38210  0.81970  0.44390  1.0000 0.3005821697
C   C51       1.0  0.81970  0.44390  0.38210  1.0000 0.3005821697
C   C52       1.0  0.55610  0.61790  0.18030  1.0000 0.3005821697
C   C53       1.0  0.61790  0.18030  0.55610  1.0000 0.3005821697
C   C54       1.0  0.18030  0.55610  0.61790  1.0000 0.3005821697
C   C55       1.0  0.40020  0.30220  0.71680  1.0000 -0.0311308585
C   C56       1.0  0.30220  0.71680  0.40020  1.0000 -0.0311308585
C   C57       1.0  0.71680  0.40020  0.30220  1.0000 -0.0311308585
C   C58       1.0  0.59980  0.69780  0.28320  1.0000 -0.0311308585
C   C59       1.0  0.69780  0.28320  0.59980  1.0000 -0.0311308585
C   C60       1.0  0.28320  0.59980  0.69780  1.0000 -0.0311308585
C   C61       1.0  0.46300  0.33290  0.69350  1.0000 0.3688390893
C   C62       1.0  0.33290  0.69350  0.46300  1.0000 0.3688390893
C   C63       1.0  0.69350  0.46300  0.33290  1.0000 0.3688390893
C   C64       1.0  0.53700  0.66710  0.30650  1.0000 0.3688390893
C   C65       1.0  0.66710  0.30650  0.53700  1.0000 0.3688390893
C   C66       1.0  0.30650  0.53700  0.66710  1.0000 0.3688390893
C   C67       1.0  0.29570  0.23880  0.73620  1.0000 0.2019679613
C   C68       1.0  0.23880  0.73620  0.29570  1.0000 0.2019679613
C   C69       1.0  0.73620  0.29570  0.23880  1.0000 0.2019679613
C   C70       1.0  0.70430  0.76120  0.26380  1.0000 0.2019679613
C   C71       1.0  0.76120  0.26380  0.70430  1.0000 0.2019679613
C   C72       1.0  0.26380  0.70430  0.76120  1.0000 0.2019679613
N   N1        1.0  0.79330  0.52180  0.12710  1.0000 -0.3923051216
N   N2        1.0  0.52180  0.12710  0.79330  1.0000 -0.3923051216
N   N3        1.0  0.12710  0.79330  0.52180  1.0000 -0.3923051216
N   N4        1.0  0.20670  0.47820  0.87290  1.0000 -0.3923051216
N   N5        1.0  0.47820  0.87290  0.20670  1.0000 -0.3923051216
N   N6        1.0  0.87290  0.20670  0.47820  1.0000 -0.3923051216
N   N7        1.0  0.66310  0.53580  0.07860  1.0000 -0.3700638123
N   N8        1.0  0.53580  0.07860  0.66310  1.0000 -0.3700638123
N   N9        1.0  0.07860  0.66310  0.53580  1.0000 -0.3700638123
N   N10       1.0  0.33690  0.46420  0.92140  1.0000 -0.3700638123
N   N11       1.0  0.46420  0.92140  0.33690  1.0000 -0.3700638123
N   N12       1.0  0.92140  0.33690  0.46420  1.0000 -0.3700638123
N   N13       1.0  0.55560  0.30900  0.04990  1.0000 -0.3462854184
N   N14       1.0  0.30900  0.04990  0.55560  1.0000 -0.3462854184
N   N15       1.0  0.04990  0.55560  0.30900  1.0000 -0.3462854184
N   N16       1.0  0.44440  0.69100  0.95010  1.0000 -0.3462854184
N   N17       1.0  0.69100  0.95010  0.44440  1.0000 -0.3462854184
N   N18       1.0  0.95010  0.44440  0.69100  1.0000 -0.3462854184
N   N19       1.0  0.50520  0.39370  0.02280  1.0000 -0.3320791592
N   N20       1.0  0.39370  0.02280  0.50520  1.0000 -0.3320791592
N   N21       1.0  0.02280  0.50520  0.39370  1.0000 -0.3320791592
N   N22       1.0  0.49480  0.60630  0.97720  1.0000 -0.3320791592
N   N23       1.0  0.60630  0.97720  0.49480  1.0000 -0.3320791592
N   N24       1.0  0.97720  0.49480  0.60630  1.0000 -0.3320791592
N   N25       1.0  0.76740  0.38320  0.11520  1.0000 -0.4908632271
N   N26       1.0  0.38320  0.11520  0.76740  1.0000 -0.4908632271
N   N27       1.0  0.11520  0.76740  0.38320  1.0000 -0.4908632271
N   N28       1.0  0.23260  0.61680  0.88480  1.0000 -0.4908632271
N   N29       1.0  0.61680  0.88480  0.23260  1.0000 -0.4908632271
N   N30       1.0  0.88480  0.23260  0.61680  1.0000 -0.4908632271
N   N31       1.0  0.56040  0.43200  0.76790  1.0000 -0.4254247107
N   N32       1.0  0.43200  0.76790  0.56040  1.0000 -0.4254247107
N   N33       1.0  0.76790  0.56040  0.43200  1.0000 -0.4246620916
N   N34       1.0  0.43960  0.56800  0.23210  1.0000 -0.4246620916
N   N35       1.0  0.56800  0.23210  0.43960  1.0000 -0.4246620916
N   N36       1.0  0.23210  0.43960  0.56800  1.0000 -0.4246620916
N   N37       1.0  0.53750  0.48440  0.89080  1.0000 -0.3320791592
N   N38       1.0  0.48440  0.89080  0.53750  1.0000 -0.3320791592
N   N39       1.0  0.89080  0.53750  0.48440  1.0000 -0.3320791592
N   N40       1.0  0.46250  0.51560  0.10920  1.0000 -0.3320791592
N   N41       1.0  0.51560  0.10920  0.46250  1.0000 -0.3320791592
N   N42       1.0  0.10920  0.46250  0.51560  1.0000 -0.3320791592
N   N43       1.0  0.30450  0.21080  0.66570  1.0000 -0.3320791592
N   N44       1.0  0.21080  0.66570  0.30450  1.0000 -0.3320791592
N   N45       1.0  0.66570  0.30450  0.21080  1.0000 -0.3320791592
N   N46       1.0  0.69550  0.78920  0.33430  1.0000 -0.3320791592
N   N47       1.0  0.78920  0.33430  0.69550  1.0000 -0.3320791592
N   N48       1.0  0.33430  0.69550  0.78920  1.0000 -0.3320791592
N   N49       1.0  0.37710  0.34090  0.82990  1.0000 -0.3320791592
N   N50       1.0  0.34090  0.82990  0.37710  1.0000 -0.3320791592
N   N51       1.0  0.82990  0.37710  0.34090  1.0000 -0.3320791592
N   N52       1.0  0.62290  0.65910  0.17010  1.0000 -0.3320791592
N   N53       1.0  0.65910  0.17010  0.62290  1.0000 -0.3320791592
N   N54       1.0  0.17010  0.62290  0.65910  1.0000 -0.3320791592
N   N55       1.0  0.43150  0.26840  0.59870  1.0000 -0.5368174173
N   N56       1.0  0.26840  0.59870  0.43150  1.0000 -0.5368174173
N   N57       1.0  0.59870  0.43150  0.26840  1.0000 -0.5368174173
N   N58       1.0  0.56850  0.73160  0.40130  1.0000 -0.5368174173
N   N59       1.0  0.73160  0.40130  0.56850  1.0000 -0.5368174173
N   N60       1.0  0.40130  0.56850  0.73160  1.0000 -0.5368174173
O   O1        1.0  0.38800  0.09650  0.92270  1.0000 -0.5133411445
O   O2        1.0  0.09650  0.92270  0.38800  1.0000 -0.5133411445
O   O3        1.0  0.92270  0.38800  0.09650  1.0000 -0.5133411445
O   O4        1.0  0.61200  0.90350  0.07730  1.0000 -0.5133411445
O   O5        1.0  0.90350  0.07730  0.61200  1.0000 -0.5133411445
O   O6        1.0  0.07730  0.61200  0.90350  1.0000 -0.5133411445
O   O7        1.0  0.48690  0.08900  0.06020  1.0000 -0.4908632271
O   O8        1.0  0.08900  0.06020  0.48690  1.0000 -0.4958828248
O   O9        1.0  0.06020  0.48690  0.08900  1.0000 -0.4908632271
O   O10       1.0  0.51310  0.91100  0.93980  1.0000 -0.4958828248
O   O11       1.0  0.91100  0.93980  0.51310  1.0000 -0.4958828248
O   O12       1.0  0.93980  0.51310  0.91100  1.0000 -0.4958828248
O   O13       1.0  0.23660  0.93580  0.81960  1.0000 -0.4643837569
O   O14       1.0  0.93580  0.81960  0.23660  1.0000 -0.4643837569
O   O15       1.0  0.81960  0.23660  0.93580  1.0000 -0.4643837569
O   O16       1.0  0.76340  0.06420  0.18040  1.0000 -0.4643837569
O   O17       1.0  0.06420  0.18040  0.76340  1.0000 -0.4643837569
O   O18       1.0  0.18040  0.76340  0.06420  1.0000 -0.4643837569
O   O19       1.0  0.33660  0.92480  0.96490  1.0000 -0.4505506563
O   O20       1.0  0.92480  0.96490  0.33660  1.0000 -0.4505506563
O   O21       1.0  0.96490  0.33660  0.92480  1.0000 -0.4505506563
O   O22       1.0  0.66340  0.07520  0.03510  1.0000 -0.4505506563
O   O23       1.0  0.07520  0.03510  0.66340  1.0000 -0.4505506563
O   O24       1.0  0.03510  0.66340  0.07520  1.0000 -0.4505506563
