# DDEC6 charges by PACMAN v1.1 (https://github.com/mtap-research/PACMAN-charge/)
data_2004[Fe][dia]3[ASR]3
_chemical_formula_sum              "Fe4 C8 Cl4 O18"
_cell_length_a       13.9881
_cell_length_b       12.7321
_cell_length_c       8.69761
_cell_angle_alpha    79.0454
_cell_angle_beta     63.3321
_cell_angle_gamma    37.6224

_symmetry_space_group_name_H-M    "P 1"
_symmetry_Int_Tables_number       1

loop_
  _symmetry_equiv_pos_as_xyz
  'x, y, z'

loop_
  _atom_site_type_symbol
  _atom_site_label
  _atom_site_symmetry_multiplicity
  _atom_site_fract_x
  _atom_site_fract_y
  _atom_site_fract_z
  _atom_site_occupancy
  _atom_site_charge
Fe  Fe1       1.0  0.00005  0.60847  0.64655  1.0000 1.1514324616
Fe  Fe2       1.0  0.74493  0.64655  0.60847  1.0000 1.1514324616
Fe  Fe3       1.0  0.64153  0.24995  0.50507  1.0000 1.1514324616
Fe  Fe4       1.0  0.60345  0.50507  0.24995  1.0000 1.1514324616
C   C1        1.0  0.89464  0.88082  0.48158  1.0000 0.520365722
C   C2        1.0  0.74296  0.48158  0.88082  1.0000 0.520365722
C   C3        1.0  0.36918  0.35536  0.50704  1.0000 0.520365722
C   C4        1.0  0.76842  0.50704  0.35536  1.0000 0.520365722
C   C5        1.0  0.26890  0.51276  0.64364  1.0000 0.5113988291
C   C6        1.0  0.57470  0.64364  0.51276  1.0000 0.5113988291
C   C7        1.0  0.73724  0.98110  0.67530  1.0000 0.5113988291
C   C8        1.0  0.60636  0.67530  0.98110  1.0000 0.5113988291
Cl  Cl1       1.0  0.71395  0.29397  0.65449  1.0000 -0.30323912
Cl  Cl2       1.0  0.33759  0.65449  0.29397  1.0000 -0.30323912
Cl  Cl3       1.0  0.95603  0.53605  0.91241  1.0000 -0.3071303297
Cl  Cl4       1.0  0.59551  0.91241  0.53605  1.0000 -0.30323912
O   O1        1.0  0.69460  0.30540  0.30540  1.0000 -0.5768735935
O   O2        1.0  0.94460  0.55540  0.55540  1.0000 -0.5768735935
O   O3        1.0  0.02739  0.71089  0.43511  1.0000 -0.4016787985
O   O4        1.0  0.82661  0.43511  0.71089  1.0000 -0.4070677389
O   O5        1.0  0.53911  0.22261  0.42339  1.0000 -0.4016787985
O   O6        1.0  0.81489  0.42339  0.22261  1.0000 -0.4070677389
O   O7        1.0  0.36905  0.48911  0.66529  1.0000 -0.4016787985
O   O8        1.0  0.47655  0.66529  0.48911  1.0000 -0.4016787985
O   O9        1.0  0.76089  0.88095  0.77345  1.0000 -0.4016787985
O   O10       1.0  0.58471  0.77345  0.88095  1.0000 -0.4016787985
O   O11       1.0  0.10364  0.64598  0.72262  1.0000 -0.4070677389
O   O12       1.0  0.52776  0.72262  0.64598  1.0000 -0.4070677389
O   O13       1.0  0.60402  0.14636  0.72224  1.0000 -0.4070677389
O   O14       1.0  0.52738  0.72224  0.14636  1.0000 -0.4070677389
O   O15       1.0  0.87810  0.97586  0.38694  1.0000 -0.3774284873
O   O16       1.0  0.75910  0.38694  0.97586  1.0000 -0.3774284873
O   O17       1.0  0.27414  0.37190  0.49090  1.0000 -0.3774284873
O   O18       1.0  0.86306  0.49090  0.37190  1.0000 -0.3774284873
