# DDEC6 charges by PACMAN v1.1 (https://github.com/mtap-research/PACMAN-charge/)
data_2004[Cu][mog]3[ASR]1
_chemical_formula_sum              "Cu6 H60 C108 S12 N24 O24"
_cell_length_a       15.5911
_cell_length_b       15.5911
_cell_length_c       14.6524
_cell_angle_alpha    85.4155
_cell_angle_beta     94.5845
_cell_angle_gamma    106.104

_symmetry_space_group_name_H-M    "P 1"
_symmetry_Int_Tables_number       1

loop_
  _symmetry_equiv_pos_as_xyz
  'x, y, z'

loop_
  _atom_site_type_symbol
  _atom_site_label
  _atom_site_symmetry_multiplicity
  _atom_site_fract_x
  _atom_site_fract_y
  _atom_site_fract_z
  _atom_site_occupancy
  _atom_site_charge
Cu  Cu1       1.0  0.75183  0.35557  0.02188  1.0000 0.7024355726
Cu  Cu2       1.0  0.35557  0.75183  0.47812  1.0000 0.7024355726
Cu  Cu3       1.0  0.24817  0.64443  0.97812  1.0000 0.7024355726
Cu  Cu4       1.0  0.64443  0.24817  0.52188  1.0000 0.7024355726
Cu  Cu5       1.0  0.85897  0.85897  0.75000  1.0000 0.6937357681
Cu  Cu6       1.0  0.14103  0.14103  0.25000  1.0000 0.6937357681
H   H1        1.0  0.50710  0.44110  0.18950  1.0000 0.1695088157
H   H2        1.0  0.44110  0.50710  0.31050  1.0000 0.1695088157
H   H3        1.0  0.49290  0.55890  0.81050  1.0000 0.1695088157
H   H4        1.0  0.55890  0.49290  0.68950  1.0000 0.1695088157
H   H5        1.0  0.69000  0.72680  0.03190  1.0000 0.127907847
H   H6        1.0  0.72680  0.69000  0.46810  1.0000 0.127907847
H   H7        1.0  0.31000  0.27320  0.96810  1.0000 0.127907847
H   H8        1.0  0.27320  0.31000  0.53190  1.0000 0.127907847
H   H9        1.0  0.77370  0.83470  0.93340  1.0000 0.1102177726
H   H10       1.0  0.83470  0.77370  0.56660  1.0000 0.1102177726
H   H11       1.0  0.22630  0.16530  0.06660  1.0000 0.1102177726
H   H12       1.0  0.16530  0.22630  0.43340  1.0000 0.1102177726
H   H13       1.0  0.80640  0.65200  0.78060  1.0000 0.127907847
H   H14       1.0  0.65200  0.80640  0.71940  1.0000 0.127907847
H   H15       1.0  0.19360  0.34800  0.21940  1.0000 0.127907847
H   H16       1.0  0.34800  0.19360  0.28060  1.0000 0.127907847
H   H17       1.0  0.72210  0.53830  0.87350  1.0000 0.1479041836
H   H18       1.0  0.53830  0.72210  0.62650  1.0000 0.1479041836
H   H19       1.0  0.27790  0.46170  0.12650  1.0000 0.1479041836
H   H20       1.0  0.46170  0.27790  0.37350  1.0000 0.1479041836
H   H21       1.0  0.96430  0.64550  0.06020  1.0000 0.1695088157
H   H22       1.0  0.64550  0.96430  0.43980  1.0000 0.1695088157
H   H23       1.0  0.03570  0.35450  0.93980  1.0000 0.1695088157
H   H24       1.0  0.35450  0.03570  0.56020  1.0000 0.1695088157
H   H25       1.0  0.80370  0.30490  0.23660  1.0000 0.1578690009
H   H26       1.0  0.30490  0.80370  0.26340  1.0000 0.1578690009
H   H27       1.0  0.19630  0.69510  0.76340  1.0000 0.1578690009
H   H28       1.0  0.69510  0.19630  0.73660  1.0000 0.1578690009
H   H29       1.0  0.73610  0.22570  0.36260  1.0000 0.1218965554
H   H30       1.0  0.22570  0.73610  0.13740  1.0000 0.1218965554
H   H31       1.0  0.26390  0.77430  0.63740  1.0000 0.1218965554
H   H32       1.0  0.77430  0.26390  0.86260  1.0000 0.1218965554
H   H33       1.0  0.69110  0.44130  0.44710  1.0000 0.1002489612
H   H34       1.0  0.44130  0.69110  0.05290  1.0000 0.1002489612
H   H35       1.0  0.30890  0.55870  0.55290  1.0000 0.1002489612
H   H36       1.0  0.55870  0.30890  0.94710  1.0000 0.1002489612
H   H37       1.0  0.75630  0.52650  0.32180  1.0000 0.1218965554
H   H38       1.0  0.52650  0.75630  0.17820  1.0000 0.1218965554
H   H39       1.0  0.24370  0.47350  0.67820  1.0000 0.1218965554
H   H40       1.0  0.47350  0.24370  0.82180  1.0000 0.1218965554
H   H41       1.0  0.15180  0.98900  0.61980  1.0000 0.1695088157
H   H42       1.0  0.98900  0.15180  0.88020  1.0000 0.1695088157
H   H43       1.0  0.84820  0.01100  0.38020  1.0000 0.1695088157
H   H44       1.0  0.01100  0.84820  0.11980  1.0000 0.1695088157
H   H45       1.0  0.97000  0.21800  0.58130  1.0000 0.127907847
H   H46       1.0  0.21800  0.97000  0.91870  1.0000 0.127907847
H   H47       1.0  0.03000  0.78200  0.41870  1.0000 0.127907847
H   H48       1.0  0.78200  0.03000  0.08130  1.0000 0.127907847
H   H49       1.0  0.85680  0.28840  0.55340  1.0000 0.1102177726
H   H50       1.0  0.28840  0.85680  0.94660  1.0000 0.1102177726
H   H51       1.0  0.14320  0.71160  0.44660  1.0000 0.1102177726
H   H52       1.0  0.71160  0.14320  0.05340  1.0000 0.1102177726
H   H53       1.0  0.67310  0.05890  0.56690  1.0000 0.1102177726
H   H54       1.0  0.05890  0.67310  0.93310  1.0000 0.1102177726
H   H55       1.0  0.32690  0.94110  0.43310  1.0000 0.1102177726
H   H56       1.0  0.94110  0.32690  0.06690  1.0000 0.1102177726
H   H57       1.0  0.78010  0.98130  0.59790  1.0000 0.1386978623
H   H58       1.0  0.98130  0.78010  0.90210  1.0000 0.1386978623
H   H59       1.0  0.21990  0.01870  0.40210  1.0000 0.1386978623
H   H60       1.0  0.01870  0.21990  0.09790  1.0000 0.1386978623
C   C1        1.0  0.59993  0.32707  0.13660  1.0000 0.5287447171
C   C2        1.0  0.32707  0.59993  0.36340  1.0000 0.5287447171
C   C3        1.0  0.40007  0.67293  0.86340  1.0000 0.5287447171
C   C4        1.0  0.67293  0.40007  0.63660  1.0000 0.5287447171
C   C5        1.0  0.59868  0.42112  0.10670  1.0000 0.0622314708
C   C6        1.0  0.42112  0.59868  0.39330  1.0000 0.0622314708
C   C7        1.0  0.40132  0.57888  0.89330  1.0000 0.0622314708
C   C8        1.0  0.57888  0.40132  0.60670  1.0000 0.0622314708
C   C9        1.0  0.54872  0.46588  0.14410  1.0000 -0.2560825748
C   C10       1.0  0.46588  0.54872  0.35590  1.0000 -0.2560825748
C   C11       1.0  0.45128  0.53412  0.85590  1.0000 -0.2478628665
C   C12       1.0  0.53412  0.45128  0.64410  1.0000 -0.2560825748
C   C13       1.0  0.64597  0.55023  0.02850  1.0000 0.127907847
C   C14       1.0  0.55023  0.64597  0.47150  1.0000 0.127907847
C   C15       1.0  0.35403  0.44977  0.97150  1.0000 0.127907847
C   C16       1.0  0.44977  0.35403  0.52850  1.0000 0.127907847
C   C17       1.0  0.69680  0.62000  0.96510  1.0000 0.0868135943
C   C18       1.0  0.62000  0.69680  0.53490  1.0000 0.0868135943
C   C19       1.0  0.30320  0.38000  0.03490  1.0000 0.0868135943
C   C20       1.0  0.38000  0.30320  0.46510  1.0000 0.0868135943
C   C21       1.0  0.71317  0.70943  0.98060  1.0000 -0.2021972429
C   C22       1.0  0.70943  0.71317  0.51940  1.0000 -0.2021972429
C   C23       1.0  0.28683  0.29057  0.01940  1.0000 -0.2021972429
C   C24       1.0  0.29057  0.28683  0.48060  1.0000 -0.2021972429
C   C25       1.0  0.76330  0.77350  0.92140  1.0000 0.0868135943
C   C26       1.0  0.77350  0.76330  0.57860  1.0000 0.0808286618
C   C27       1.0  0.23670  0.22650  0.07860  1.0000 0.0808286618
C   C28       1.0  0.22650  0.23670  0.42140  1.0000 0.0808286618
C   C29       1.0  0.78203  0.66717  0.83250  1.0000 0.1002489612
C   C30       1.0  0.66717  0.78203  0.66750  1.0000 0.1002489612
C   C31       1.0  0.21797  0.33283  0.16750  1.0000 0.1002489612
C   C32       1.0  0.33283  0.21797  0.33250  1.0000 0.1002489612
C   C33       1.0  0.73229  0.59891  0.88770  1.0000 -0.1515269084
C   C34       1.0  0.59891  0.73229  0.61230  1.0000 -0.1515269084
C   C35       1.0  0.26771  0.40109  0.11230  1.0000 -0.1515269084
C   C36       1.0  0.40109  0.26771  0.38770  1.0000 -0.1515269084
C   C37       1.0  0.88922  0.49598  0.95160  1.0000 0.522928481
C   C38       1.0  0.49598  0.88922  0.54840  1.0000 0.522928481
C   C39       1.0  0.11078  0.50402  0.04840  1.0000 0.522928481
C   C40       1.0  0.50402  0.11078  0.45160  1.0000 0.522928481
C   C41       1.0  0.88504  0.51750  0.04820  1.0000 0.0808286618
C   C42       1.0  0.51750  0.88504  0.45180  1.0000 0.0808286618
C   C43       1.0  0.11496  0.48250  0.95180  1.0000 0.0808286618
C   C44       1.0  0.48250  0.11496  0.54820  1.0000 0.0808286618
C   C45       1.0  0.92613  0.59407  0.08940  1.0000 -0.2213843642
C   C46       1.0  0.59407  0.92613  0.41060  1.0000 -0.2213843642
C   C47       1.0  0.07387  0.40593  0.91060  1.0000 -0.2213843642
C   C48       1.0  0.40593  0.07387  0.58940  1.0000 -0.2213843642
C   C49       1.0  0.83415  0.47829  0.18750  1.0000 0.127907847
C   C50       1.0  0.47829  0.83415  0.31250  1.0000 0.127907847
C   C51       1.0  0.16585  0.52171  0.81250  1.0000 0.127907847
C   C52       1.0  0.52171  0.16585  0.68750  1.0000 0.127907847
C   C53       1.0  0.78842  0.42472  0.26530  1.0000 0.1002489612
C   C54       1.0  0.42472  0.78842  0.23470  1.0000 0.1002489612
C   C55       1.0  0.21158  0.57528  0.73470  1.0000 0.1002489612
C   C56       1.0  0.57528  0.21158  0.76530  1.0000 0.1002489612
C   C57       1.0  0.78081  0.33455  0.27920  1.0000 -0.1331993146
C   C58       1.0  0.33455  0.78081  0.22080  1.0000 -0.1331993146
C   C59       1.0  0.21919  0.66545  0.72080  1.0000 -0.1331993146
C   C60       1.0  0.66545  0.21919  0.77920  1.0000 -0.1331993146
C   C61       1.0  0.74042  0.28774  0.35420  1.0000 0.1102177726
C   C62       1.0  0.28774  0.74042  0.14580  1.0000 0.1102177726
C   C63       1.0  0.25958  0.71226  0.64580  1.0000 0.1102177726
C   C64       1.0  0.71226  0.25958  0.85420  1.0000 0.1102177726
C   C65       1.0  0.71407  0.41333  0.40310  1.0000 0.0808286618
C   C66       1.0  0.41333  0.71407  0.09690  1.0000 0.0808286618
C   C67       1.0  0.28593  0.58667  0.59690  1.0000 0.0808286618
C   C68       1.0  0.58667  0.28593  0.90310  1.0000 0.0808286618
C   C69       1.0  0.75328  0.46472  0.32920  1.0000 -0.2021972429
C   C70       1.0  0.46472  0.75328  0.17080  1.0000 -0.2021972429
C   C71       1.0  0.24672  0.53528  0.67080  1.0000 -0.2021972429
C   C72       1.0  0.53528  0.24672  0.82920  1.0000 -0.2021972429
C   C73       1.0  0.01656  0.84024  0.68710  1.0000 0.5287447171
C   C74       1.0  0.84024  0.01656  0.81290  1.0000 0.5287447171
C   C75       1.0  0.98344  0.15976  0.31290  1.0000 0.5287447171
C   C76       1.0  0.15976  0.98344  0.18710  1.0000 0.5287447171
C   C77       1.0  0.02123  0.93437  0.65090  1.0000 0.0670897188
C   C78       1.0  0.93437  0.02123  0.84910  1.0000 0.0670897188
C   C79       1.0  0.97877  0.06563  0.34910  1.0000 0.0670897188
C   C80       1.0  0.06563  0.97877  0.15090  1.0000 0.0670897188
C   C81       1.0  0.09382  0.99738  0.62100  1.0000 -0.2478628665
C   C82       1.0  0.99738  0.09382  0.87900  1.0000 -0.2446677936
C   C83       1.0  0.90618  0.00262  0.37900  1.0000 -0.2446677936
C   C84       1.0  0.00262  0.90618  0.12100  1.0000 -0.2478628665
C   C85       1.0  0.95681  0.04379  0.61260  1.0000 0.1218965554
C   C86       1.0  0.04379  0.95681  0.88740  1.0000 0.1218965554
C   C87       1.0  0.04319  0.95621  0.38740  1.0000 0.1218965554
C   C88       1.0  0.95621  0.04319  0.11260  1.0000 0.1218965554
C   C89       1.0  0.88750  0.09130  0.59370  1.0000 0.0868135943
C   C90       1.0  0.09130  0.88750  0.90630  1.0000 0.0868135943
C   C91       1.0  0.11250  0.90870  0.40630  1.0000 0.0868135943
C   C92       1.0  0.90870  0.11250  0.09370  1.0000 0.0868135943
C   C93       1.0  0.90923  0.18357  0.57940  1.0000 -0.1847270383
C   C94       1.0  0.18357  0.90923  0.92060  1.0000 -0.1847270383
C   C95       1.0  0.09077  0.81643  0.42060  1.0000 -0.1847270383
C   C96       1.0  0.81643  0.09077  0.07940  1.0000 -0.1847270383
C   C97       1.0  0.84102  0.22498  0.56220  1.0000 0.1002489612
C   C98       1.0  0.22498  0.84102  0.93780  1.0000 0.1002489612
C   C99       1.0  0.15898  0.77502  0.43780  1.0000 0.1002489612
C   C100      1.0  0.77502  0.15898  0.06220  1.0000 0.1002489612
C   C101      1.0  0.73433  0.09171  0.57040  1.0000 0.0868135943
C   C102      1.0  0.09171  0.73433  0.92960  1.0000 0.0868135943
C   C103      1.0  0.26567  0.90829  0.42960  1.0000 0.0868135943
C   C104      1.0  0.90829  0.26567  0.07040  1.0000 0.0868135943
C   C105      1.0  0.79778  0.04462  0.58880  1.0000 -0.1394593073
C   C106      1.0  0.04462  0.79778  0.91120  1.0000 -0.1394593073
C   C107      1.0  0.20222  0.95538  0.41120  1.0000 -0.1394593073
C   C108      1.0  0.95538  0.20222  0.08880  1.0000 -0.1394593073
S   S1        1.0  0.57088  0.57274  0.09842  1.0000 0.1102177726
S   S2        1.0  0.57274  0.57088  0.40158  1.0000 0.1102177726
S   S3        1.0  0.42912  0.42726  0.90158  1.0000 0.1102177726
S   S4        1.0  0.42726  0.42912  0.59842  1.0000 0.1102177726
S   S5        1.0  0.89997  0.58565  0.20063  1.0000 0.1479041836
S   S6        1.0  0.58565  0.89997  0.29937  1.0000 0.1479041836
S   S7        1.0  0.10003  0.41435  0.79937  1.0000 0.1386978623
S   S8        1.0  0.41435  0.10003  0.70063  1.0000 0.1479041836
S   S9        1.0  0.06616  0.09348  0.58597  1.0000 0.1386978623
S   S10       1.0  0.09348  0.06616  0.91403  1.0000 0.1386978623
S   S11       1.0  0.93384  0.90652  0.41403  1.0000 0.1386978623
S   S12       1.0  0.90652  0.93384  0.08597  1.0000 0.1386978623
N   N1        1.0  0.65269  0.46909  0.03950  1.0000 -0.334879349
N   N2        1.0  0.46909  0.65269  0.46050  1.0000 -0.334879349
N   N3        1.0  0.34731  0.53091  0.96050  1.0000 -0.334879349
N   N4        1.0  0.53091  0.34731  0.53950  1.0000 -0.3379718049
N   N5        1.0  0.79794  0.75392  0.84800  1.0000 -0.2334666951
N   N6        1.0  0.75392  0.79794  0.65200  1.0000 -0.2334666951
N   N7        1.0  0.20206  0.24608  0.15200  1.0000 -0.2334666951
N   N8        1.0  0.24608  0.20206  0.34800  1.0000 -0.2334666951
N   N9        1.0  0.83251  0.45149  0.10390  1.0000 -0.2994929282
N   N10       1.0  0.45149  0.83251  0.39610  1.0000 -0.2994929282
N   N11       1.0  0.16749  0.54851  0.89610  1.0000 -0.2994929282
N   N12       1.0  0.54851  0.16749  0.60390  1.0000 -0.2994929282
N   N13       1.0  0.70685  0.32531  0.41610  1.0000 -0.2021972429
N   N14       1.0  0.32531  0.70685  0.08390  1.0000 -0.2021972429
N   N15       1.0  0.29315  0.67469  0.58390  1.0000 -0.2021972429
N   N16       1.0  0.67469  0.29315  0.91610  1.0000 -0.2021972429
N   N17       1.0  0.94370  0.96074  0.64600  1.0000 -0.3379718049
N   N18       1.0  0.96074  0.94370  0.85400  1.0000 -0.3379718049
N   N19       1.0  0.05630  0.03926  0.35400  1.0000 -0.3379718049
N   N20       1.0  0.03926  0.05630  0.14600  1.0000 -0.3379718049
N   N21       1.0  0.75448  0.18064  0.55727  1.0000 -0.2478628665
N   N22       1.0  0.18064  0.75448  0.94273  1.0000 -0.2478628665
N   N23       1.0  0.24552  0.81936  0.44273  1.0000 -0.2478628665
N   N24       1.0  0.81936  0.24552  0.05727  1.0000 -0.2478628665
O   O1        1.0  0.65831  0.29671  0.10610  1.0000 -0.5290488703
O   O2        1.0  0.29671  0.65831  0.39390  1.0000 -0.5290488703
O   O3        1.0  0.34169  0.70329  0.89390  1.0000 -0.5290488703
O   O4        1.0  0.70329  0.34169  0.60610  1.0000 -0.5290488703
O   O5        1.0  0.54457  0.28557  0.19096  1.0000 -0.5014906032
O   O6        1.0  0.28557  0.54457  0.30904  1.0000 -0.5014906032
O   O7        1.0  0.45543  0.71443  0.80904  1.0000 -0.5014906032
O   O8        1.0  0.71443  0.45543  0.69096  1.0000 -0.5014906032
O   O9        1.0  0.83663  0.42061  0.93042  1.0000 -0.5164447132
O   O10       1.0  0.42061  0.83663  0.56958  1.0000 -0.5164447132
O   O11       1.0  0.16337  0.57939  0.06958  1.0000 -0.5164447132
O   O12       1.0  0.57939  0.16337  0.43042  1.0000 -0.5164447132
O   O13       1.0  0.93974  0.54902  0.89991  1.0000 -0.4876915617
O   O14       1.0  0.54902  0.93974  0.60009  1.0000 -0.4876915617
O   O15       1.0  0.06026  0.45098  0.10009  1.0000 -0.4876915617
O   O16       1.0  0.45098  0.06026  0.39991  1.0000 -0.4876915617
O   O17       1.0  0.94199  0.79551  0.71830  1.0000 -0.5164447132
O   O18       1.0  0.79551  0.94199  0.78170  1.0000 -0.5164447132
O   O19       1.0  0.05801  0.20449  0.28170  1.0000 -0.5164447132
O   O20       1.0  0.20449  0.05801  0.21830  1.0000 -0.5164447132
O   O21       1.0  0.08243  0.81073  0.68473  1.0000 -0.5149561269
O   O22       1.0  0.81073  0.08243  0.81527  1.0000 -0.5164447132
O   O23       1.0  0.91757  0.18927  0.31527  1.0000 -0.5149561269
O   O24       1.0  0.18927  0.91757  0.18473  1.0000 -0.5149561269
