# DDEC6 charges by PACMAN v1.1 (https://github.com/mtap-research/PACMAN-charge/)
data_2004[Ag][pts]3[ASR]2
_chemical_formula_sum              "Ag8 H128 C192 S8 N32"
_cell_length_a       23.8613
_cell_length_b       23.8613
_cell_length_c       23.8613
_cell_angle_alpha    123.369
_cell_angle_beta     123.369
_cell_angle_gamma    84.2572

_symmetry_space_group_name_H-M    "P 1"
_symmetry_Int_Tables_number       1

loop_
  _symmetry_equiv_pos_as_xyz
  'x, y, z'

loop_
  _atom_site_type_symbol
  _atom_site_label
  _atom_site_symmetry_multiplicity
  _atom_site_fract_x
  _atom_site_fract_y
  _atom_site_fract_z
  _atom_site_occupancy
  _atom_site_charge
Ag  Ag1       1.0  0.58671  0.08671  0.17342  1.0000 0.1980775593
Ag  Ag2       1.0  0.16329  0.83671  0.00000  1.0000 0.1980775593
Ag  Ag3       1.0  0.83671  0.16329  0.00000  1.0000 0.1980775593
Ag  Ag4       1.0  0.91329  0.41329  0.82658  1.0000 0.1980775593
Ag  Ag5       1.0  0.16329  0.16329  0.32658  1.0000 0.1980775593
Ag  Ag6       1.0  0.58671  0.41329  0.50000  1.0000 0.1980775593
Ag  Ag7       1.0  0.91329  0.08671  0.50000  1.0000 0.1980775593
Ag  Ag8       1.0  0.83671  0.83671  0.67342  1.0000 0.1980775593
H   H1        1.0  0.70450  0.05270  0.14280  1.0000 0.0928235061
H   H2        1.0  0.43830  0.09010  0.14280  1.0000 0.0928235061
H   H3        1.0  0.31170  0.95450  0.15180  1.0000 0.0928235061
H   H4        1.0  0.80270  0.15990  0.84820  1.0000 0.0928235061
H   H5        1.0  0.90990  0.56170  0.85720  1.0000 0.0928235061
H   H6        1.0  0.04550  0.68830  0.84820  1.0000 0.0928235061
H   H7        1.0  0.84010  0.19730  0.15180  1.0000 0.0928235061
H   H8        1.0  0.94730  0.29550  0.85720  1.0000 0.0928235061
H   H9        1.0  0.04550  0.19730  0.35720  1.0000 0.0928235061
H   H10       1.0  0.31170  0.15990  0.35720  1.0000 0.0928235061
H   H11       1.0  0.43830  0.29550  0.34820  1.0000 0.0928235061
H   H12       1.0  0.94730  0.09010  0.65180  1.0000 0.0928235061
H   H13       1.0  0.84010  0.68830  0.64280  1.0000 0.0928235061
H   H14       1.0  0.70450  0.56170  0.65180  1.0000 0.0928235061
H   H15       1.0  0.90990  0.05270  0.34820  1.0000 0.0928235061
H   H16       1.0  0.80270  0.95450  0.64280  1.0000 0.0928235061
H   H17       1.0  0.72900  0.97780  0.05220  1.0000 0.1210542914
H   H18       1.0  0.32320  0.07440  0.05220  1.0000 0.1210542914
H   H19       1.0  0.42680  0.97900  0.25120  1.0000 0.1210542914
H   H20       1.0  0.72780  0.17560  0.74880  1.0000 0.1210542914
H   H21       1.0  0.92560  0.67680  0.94780  1.0000 0.1210542914
H   H22       1.0  0.02100  0.57320  0.74880  1.0000 0.1210542914
H   H23       1.0  0.82440  0.27220  0.25120  1.0000 0.1210542914
H   H24       1.0  0.02220  0.27100  0.94780  1.0000 0.1210542914
H   H25       1.0  0.02100  0.27220  0.44780  1.0000 0.1210542914
H   H26       1.0  0.42680  0.17560  0.44780  1.0000 0.1210542914
H   H27       1.0  0.32320  0.27100  0.24880  1.0000 0.1210542914
H   H28       1.0  0.02220  0.07440  0.75120  1.0000 0.1210542914
H   H29       1.0  0.82440  0.57320  0.55220  1.0000 0.1210542914
H   H30       1.0  0.72900  0.67680  0.75120  1.0000 0.1210542914
H   H31       1.0  0.92560  0.97780  0.24880  1.0000 0.1210542914
H   H32       1.0  0.72780  0.97900  0.55220  1.0000 0.1210542914
H   H33       1.0  0.53320  0.85320  0.89480  1.0000 0.1210542914
H   H34       1.0  0.36160  0.04160  0.89480  1.0000 0.1255159748
H   H35       1.0  0.38840  0.78320  0.18000  1.0000 0.1255159748
H   H36       1.0  0.60320  0.20840  0.82000  1.0000 0.1255159748
H   H37       1.0  0.95840  0.63840  0.10520  1.0000 0.1255159748
H   H38       1.0  0.21680  0.61160  0.82000  1.0000 0.1255159748
H   H39       1.0  0.79160  0.39680  0.18000  1.0000 0.1255159748
H   H40       1.0  0.14680  0.46680  0.10520  1.0000 0.1255159748
H   H41       1.0  0.21680  0.39680  0.60520  1.0000 0.1255159748
H   H42       1.0  0.38840  0.20840  0.60520  1.0000 0.1255159748
H   H43       1.0  0.36160  0.46680  0.32000  1.0000 0.1255159748
H   H44       1.0  0.14680  0.04160  0.68000  1.0000 0.1210542914
H   H45       1.0  0.79160  0.61160  0.39480  1.0000 0.1210542914
H   H46       1.0  0.53320  0.63840  0.68000  1.0000 0.1255159748
H   H47       1.0  0.95840  0.85320  0.32000  1.0000 0.1210542914
H   H48       1.0  0.60320  0.78320  0.39480  1.0000 0.1210542914
H   H49       1.0  0.51410  0.93350  0.99160  1.0000 0.0928235061
H   H50       1.0  0.47750  0.05810  0.99160  1.0000 0.0928235061
H   H51       1.0  0.27250  0.76410  0.08060  1.0000 0.0928235061
H   H52       1.0  0.68350  0.19190  0.91940  1.0000 0.0928235061
H   H53       1.0  0.94190  0.52250  0.00840  1.0000 0.0928235061
H   H54       1.0  0.23590  0.72750  0.91940  1.0000 0.0928235061
H   H55       1.0  0.80810  0.31650  0.08060  1.0000 0.0928235061
H   H56       1.0  0.06650  0.48590  0.00840  1.0000 0.0928235061
H   H57       1.0  0.23590  0.31650  0.50840  1.0000 0.0928235061
H   H58       1.0  0.27250  0.19190  0.50840  1.0000 0.0928235061
H   H59       1.0  0.47750  0.48590  0.41940  1.0000 0.0928235061
H   H60       1.0  0.06650  0.05810  0.58060  1.0000 0.0928235061
H   H61       1.0  0.80810  0.72750  0.49160  1.0000 0.0928235061
H   H62       1.0  0.51410  0.52250  0.58060  1.0000 0.0928235061
H   H63       1.0  0.94190  0.93350  0.41940  1.0000 0.0928235061
H   H64       1.0  0.68350  0.76410  0.49160  1.0000 0.0928235061
H   H65       1.0  0.63770  0.95220  0.83870  1.0000 0.1406934417
H   H66       1.0  0.20100  0.88650  0.83870  1.0000 0.1406934417
H   H67       1.0  0.54900  0.88770  0.18550  1.0000 0.1406934417
H   H68       1.0  0.70220  0.36350  0.81450  1.0000 0.1406934417
H   H69       1.0  0.11350  0.79900  0.16130  1.0000 0.1406934417
H   H70       1.0  0.11230  0.45100  0.81450  1.0000 0.1406934417
H   H71       1.0  0.63650  0.29780  0.18550  1.0000 0.1406934417
H   H72       1.0  0.04780  0.36230  0.16130  1.0000 0.1406934417
H   H73       1.0  0.11230  0.29780  0.66130  1.0000 0.1406934417
H   H74       1.0  0.54900  0.36350  0.66130  1.0000 0.1406934417
H   H75       1.0  0.20100  0.36230  0.31450  1.0000 0.1406934417
H   H76       1.0  0.04780  0.88650  0.68550  1.0000 0.1406934417
H   H77       1.0  0.63650  0.45100  0.33870  1.0000 0.1406934417
H   H78       1.0  0.63770  0.79900  0.68550  1.0000 0.1406934417
H   H79       1.0  0.11350  0.95220  0.31450  1.0000 0.1406934417
H   H80       1.0  0.70220  0.88770  0.33870  1.0000 0.1406934417
H   H81       1.0  0.69550  0.05600  0.88510  1.0000 0.0928235061
H   H82       1.0  0.18960  0.82910  0.88510  1.0000 0.0928235061
H   H83       1.0  0.56040  0.94550  0.13950  1.0000 0.0928235061
H   H84       1.0  0.80600  0.42090  0.86050  1.0000 0.0928235061
H   H85       1.0  0.17090  0.81040  0.11490  1.0000 0.0928235061
H   H86       1.0  0.05450  0.43960  0.86050  1.0000 0.0928235061
H   H87       1.0  0.57910  0.19400  0.13950  1.0000 0.0928235061
H   H88       1.0  0.94400  0.30450  0.11490  1.0000 0.0928235061
H   H89       1.0  0.05450  0.19400  0.61490  1.0000 0.0928235061
H   H90       1.0  0.56040  0.42090  0.61490  1.0000 0.0928235061
H   H91       1.0  0.18960  0.30450  0.36050  1.0000 0.0928235061
H   H92       1.0  0.94400  0.82910  0.63950  1.0000 0.0928235061
H   H93       1.0  0.57910  0.43960  0.38510  1.0000 0.0928235061
H   H94       1.0  0.69550  0.81040  0.63950  1.0000 0.0928235061
H   H95       1.0  0.17090  0.05600  0.36050  1.0000 0.0928235061
H   H96       1.0  0.80600  0.94550  0.38510  1.0000 0.0928235061
H   H97       1.0  0.86990  0.05520  0.04770  1.0000 0.08229268
H   H98       1.0  0.17780  0.99250  0.04770  1.0000 0.08229268
H   H99       1.0  0.57220  0.11990  0.31470  1.0000 0.08229268
H   H100      1.0  0.80520  0.25750  0.68530  1.0000 0.08229268
H   H101      1.0  0.00750  0.82220  0.95230  1.0000 0.08229268
H   H102      1.0  0.88010  0.42780  0.68530  1.0000 0.08229268
H   H103      1.0  0.74250  0.19480  0.31470  1.0000 0.08229268
H   H104      1.0  0.94480  0.13010  0.95230  1.0000 0.08229268
H   H105      1.0  0.88010  0.19480  0.45230  1.0000 0.08229268
H   H106      1.0  0.57220  0.25750  0.45230  1.0000 0.08229268
H   H107      1.0  0.17780  0.13010  0.18530  1.0000 0.08229268
H   H108      1.0  0.94480  0.99250  0.81470  1.0000 0.08229268
H   H109      1.0  0.74250  0.42780  0.54770  1.0000 0.08229268
H   H110      1.0  0.86990  0.82220  0.81470  1.0000 0.08229268
H   H111      1.0  0.00750  0.05520  0.18530  1.0000 0.08229268
H   H112      1.0  0.80520  0.11990  0.54770  1.0000 0.08229268
H   H113      1.0  0.81850  0.94910  0.00200  1.0000 0.1210542914
H   H114      1.0  0.18350  0.05290  0.00200  1.0000 0.1210542914
H   H115      1.0  0.56650  0.06850  0.36940  1.0000 0.1210542914
H   H116      1.0  0.69910  0.19710  0.63060  1.0000 0.1210542914
H   H117      1.0  0.94710  0.81650  0.99800  1.0000 0.1210542914
H   H118      1.0  0.93150  0.43350  0.63060  1.0000 0.1210542914
H   H119      1.0  0.80290  0.30090  0.36940  1.0000 0.1210542914
H   H120      1.0  0.05090  0.18150  0.99800  1.0000 0.1210542914
H   H121      1.0  0.93150  0.30090  0.49800  1.0000 0.1210542914
H   H122      1.0  0.56650  0.19710  0.49800  1.0000 0.1210542914
H   H123      1.0  0.18350  0.18150  0.13060  1.0000 0.1210542914
H   H124      1.0  0.05090  0.05290  0.86940  1.0000 0.1210542914
H   H125      1.0  0.80290  0.43350  0.50200  1.0000 0.1210542914
H   H126      1.0  0.81850  0.81650  0.86940  1.0000 0.1210542914
H   H127      1.0  0.94710  0.94910  0.13060  1.0000 0.1210542914
H   H128      1.0  0.69910  0.06850  0.50200  1.0000 0.1210542914
C   C1        1.0  0.66939  0.01187  0.09218  1.0000 0.031201612
C   C2        1.0  0.42279  0.08031  0.09218  1.0000 0.031201612
C   C3        1.0  0.32721  0.91939  0.15752  1.0000 0.0397246907
C   C4        1.0  0.76187  0.16969  0.84248  1.0000 0.0397246907
C   C5        1.0  0.91969  0.57721  0.90782  1.0000 0.0397246907
C   C6        1.0  0.08061  0.67279  0.84248  1.0000 0.031201612
C   C7        1.0  0.83031  0.23813  0.15752  1.0000 0.0397246907
C   C8        1.0  0.98813  0.33061  0.90782  1.0000 0.031201612
C   C9        1.0  0.08061  0.23813  0.40782  1.0000 0.031201612
C   C10       1.0  0.32721  0.16969  0.40782  1.0000 0.031201612
C   C11       1.0  0.42279  0.33061  0.34248  1.0000 0.031201612
C   C12       1.0  0.98813  0.08031  0.65752  1.0000 0.031201612
C   C13       1.0  0.83031  0.67279  0.59218  1.0000 0.0397246907
C   C14       1.0  0.66939  0.57721  0.65752  1.0000 0.0397246907
C   C15       1.0  0.91969  0.01187  0.34248  1.0000 0.031201612
C   C16       1.0  0.76187  0.91939  0.59218  1.0000 0.0397246907
C   C17       1.0  0.68466  0.96728  0.03808  1.0000 -0.2001201997
C   C18       1.0  0.35342  0.07080  0.03808  1.0000 -0.2001201997
C   C19       1.0  0.39658  0.93466  0.21738  1.0000 -0.2001201997
C   C20       1.0  0.71728  0.17920  0.78262  1.0000 -0.2001201997
C   C21       1.0  0.92920  0.64658  0.96192  1.0000 -0.2001201997
C   C22       1.0  0.06534  0.60342  0.78262  1.0000 -0.2001201997
C   C23       1.0  0.82080  0.28272  0.21738  1.0000 -0.2001201997
C   C24       1.0  0.03272  0.31534  0.96192  1.0000 -0.2001201997
C   C25       1.0  0.06534  0.28272  0.46192  1.0000 -0.2001201997
C   C26       1.0  0.39658  0.17920  0.46192  1.0000 -0.2001201997
C   C27       1.0  0.35342  0.31534  0.28262  1.0000 -0.2001201997
C   C28       1.0  0.03272  0.07080  0.71738  1.0000 -0.2001201997
C   C29       1.0  0.82080  0.60342  0.53808  1.0000 -0.2001201997
C   C30       1.0  0.68466  0.64658  0.71738  1.0000 -0.2001201997
C   C31       1.0  0.92920  0.96728  0.28262  1.0000 -0.2001201997
C   C32       1.0  0.71728  0.93466  0.53808  1.0000 -0.2001201997
C   C33       1.0  0.63360  0.90621  0.96199  1.0000 0.1210542914
C   C34       1.0  0.32839  0.05578  0.96199  1.0000 0.1210542914
C   C35       1.0  0.42161  0.88360  0.22739  1.0000 0.1210542914
C   C36       1.0  0.65621  0.19422  0.77261  1.0000 0.1210542914
C   C37       1.0  0.94422  0.67161  0.03801  1.0000 0.1210542914
C   C38       1.0  0.11640  0.57839  0.77261  1.0000 0.1210542914
C   C39       1.0  0.80578  0.34379  0.22739  1.0000 0.1210542914
C   C40       1.0  0.09379  0.36640  0.03801  1.0000 0.1210542914
C   C41       1.0  0.11640  0.34379  0.53801  1.0000 0.1210542914
C   C42       1.0  0.42161  0.19422  0.53801  1.0000 0.1210542914
C   C43       1.0  0.32839  0.36640  0.27261  1.0000 0.1210542914
C   C44       1.0  0.09379  0.05578  0.72739  1.0000 0.1210542914
C   C45       1.0  0.80578  0.57839  0.46199  1.0000 0.1210542914
C   C46       1.0  0.63360  0.67161  0.72739  1.0000 0.1210542914
C   C47       1.0  0.94422  0.90621  0.27261  1.0000 0.1210542914
C   C48       1.0  0.65621  0.88360  0.46199  1.0000 0.1210542914
C   C49       1.0  0.56896  0.89358  0.94494  1.0000 -0.2001201997
C   C50       1.0  0.37598  0.05136  0.94494  1.0000 -0.2001201997
C   C51       1.0  0.37402  0.81896  0.17538  1.0000 -0.2001201997
C   C52       1.0  0.64358  0.19864  0.82462  1.0000 -0.2001201997
C   C53       1.0  0.94864  0.62402  0.05506  1.0000 -0.2001201997
C   C54       1.0  0.18104  0.62598  0.82462  1.0000 -0.2001201997
C   C55       1.0  0.80136  0.35642  0.17538  1.0000 -0.2001201997
C   C56       1.0  0.10642  0.43104  0.05506  1.0000 -0.2001201997
C   C57       1.0  0.18104  0.35642  0.55506  1.0000 -0.2001201997
C   C58       1.0  0.37402  0.19864  0.55506  1.0000 -0.2001201997
C   C59       1.0  0.37598  0.43104  0.32462  1.0000 -0.2001201997
C   C60       1.0  0.10642  0.05136  0.67538  1.0000 -0.2001201997
C   C61       1.0  0.80136  0.62598  0.44494  1.0000 -0.2001201997
C   C62       1.0  0.56896  0.62402  0.67538  1.0000 -0.2001201997
C   C63       1.0  0.94864  0.89358  0.32462  1.0000 -0.2001201997
C   C64       1.0  0.64358  0.81896  0.44494  1.0000 -0.2001201997
C   C65       1.0  0.55806  0.94228  0.00400  1.0000 0.0397246907
C   C66       1.0  0.44594  0.06172  0.00400  1.0000 0.0470385132
C   C67       1.0  0.30406  0.80806  0.11578  1.0000 0.0397246907
C   C68       1.0  0.69228  0.18828  0.88422  1.0000 0.0470385132
C   C69       1.0  0.93828  0.55406  0.99600  1.0000 0.0470385132
C   C70       1.0  0.19194  0.69594  0.88422  1.0000 0.0470385132
C   C71       1.0  0.81172  0.30772  0.11578  1.0000 0.0470385132
C   C72       1.0  0.05772  0.44194  0.99600  1.0000 0.0470385132
C   C73       1.0  0.19194  0.30772  0.49600  1.0000 0.0397246907
C   C74       1.0  0.30406  0.18828  0.49600  1.0000 0.0470385132
C   C75       1.0  0.44594  0.44194  0.38422  1.0000 0.0397246907
C   C76       1.0  0.05772  0.06172  0.61578  1.0000 0.0470385132
C   C77       1.0  0.81172  0.69594  0.50400  1.0000 0.0397246907
C   C78       1.0  0.55806  0.55406  0.61578  1.0000 0.0470385132
C   C79       1.0  0.93828  0.94228  0.38422  1.0000 0.0470385132
C   C80       1.0  0.69228  0.80806  0.50400  1.0000 0.0470385132
C   C81       1.0  0.64682  0.85577  0.90061  1.0000 -0.0740487619
C   C82       1.0  0.25379  0.04484  0.90061  1.0000 -0.0740487619
C   C83       1.0  0.49621  0.89682  0.29105  1.0000 -0.0740487619
C   C84       1.0  0.60577  0.20516  0.70895  1.0000 -0.0740487619
C   C85       1.0  0.95516  0.74621  0.09939  1.0000 -0.0740487619
C   C86       1.0  0.10318  0.50379  0.70895  1.0000 -0.0752126428
C   C87       1.0  0.79484  0.39423  0.29105  1.0000 -0.0752126428
C   C88       1.0  0.14423  0.35318  0.09939  1.0000 -0.0752126428
C   C89       1.0  0.10318  0.39423  0.59939  1.0000 -0.0752126428
C   C90       1.0  0.49621  0.20516  0.59939  1.0000 -0.0740487619
C   C91       1.0  0.25379  0.35318  0.20895  1.0000 -0.0752126428
C   C92       1.0  0.14423  0.04484  0.79105  1.0000 -0.0740487619
C   C93       1.0  0.79484  0.50379  0.40061  1.0000 -0.0752126428
C   C94       1.0  0.64682  0.74621  0.79105  1.0000 -0.0752126428
C   C95       1.0  0.95516  0.85577  0.20895  1.0000 -0.0740487619
C   C96       1.0  0.60577  0.89682  0.40061  1.0000 -0.0740487619
C   C97       1.0  0.68651  0.86788  0.88151  1.0000 -0.0390690491
C   C98       1.0  0.19500  0.01363  0.88151  1.0000 -0.0390690491
C   C99       1.0  0.55500  0.93651  0.31863  1.0000 -0.0390690491
C   C100      1.0  0.61788  0.23637  0.68137  1.0000 -0.0390690491
C   C101      1.0  0.98637  0.80500  0.11849  1.0000 -0.0390690491
C   C102      1.0  0.06349  0.44500  0.68137  1.0000 -0.0390690491
C   C103      1.0  0.76363  0.38212  0.31863  1.0000 -0.0390690491
C   C104      1.0  0.13212  0.31349  0.11849  1.0000 -0.0390690491
C   C105      1.0  0.06349  0.38212  0.61849  1.0000 -0.0390690491
C   C106      1.0  0.55500  0.23637  0.61849  1.0000 -0.0390690491
C   C107      1.0  0.19500  0.31349  0.18137  1.0000 -0.0390690491
C   C108      1.0  0.13212  0.01363  0.81863  1.0000 -0.0390690491
C   C109      1.0  0.76363  0.44500  0.38151  1.0000 -0.0390690491
C   C110      1.0  0.68651  0.80500  0.81863  1.0000 -0.0390690491
C   C111      1.0  0.98637  0.86788  0.18137  1.0000 -0.0390690491
C   C112      1.0  0.61788  0.93651  0.38151  1.0000 -0.0390690491
C   C113      1.0  0.72185  0.93753  0.91470  1.0000 0.1082709434
C   C114      1.0  0.19285  0.97717  0.91470  1.0000 0.1082709434
C   C115      1.0  0.55715  0.97185  0.28432  1.0000 0.1082709434
C   C116      1.0  0.68753  0.27283  0.71568  1.0000 0.1082709434
C   C117      1.0  0.02283  0.80715  0.08530  1.0000 0.1082709434
C   C118      1.0  0.02815  0.44285  0.71568  1.0000 0.1082709434
C   C119      1.0  0.72717  0.31247  0.28432  1.0000 0.1082709434
C   C120      1.0  0.06247  0.27815  0.08530  1.0000 0.1082709434
C   C121      1.0  0.02815  0.31247  0.58530  1.0000 0.1082709434
C   C122      1.0  0.55715  0.27283  0.58530  1.0000 0.1082709434
C   C123      1.0  0.19285  0.27815  0.21568  1.0000 0.1082709434
C   C124      1.0  0.06247  0.97717  0.78432  1.0000 0.1082709434
C   C125      1.0  0.72717  0.44285  0.41470  1.0000 0.1082709434
C   C126      1.0  0.72185  0.80715  0.78432  1.0000 0.1082709434
C   C127      1.0  0.02283  0.93753  0.21568  1.0000 0.1082709434
C   C128      1.0  0.68753  0.97185  0.41470  1.0000 0.1082709434
C   C129      1.0  0.68569  0.97129  0.88088  1.0000 -0.2115255997
C   C130      1.0  0.19519  0.90959  0.88088  1.0000 -0.2115255997
C   C131      1.0  0.55481  0.93569  0.21440  1.0000 -0.2115255997
C   C132      1.0  0.72129  0.34041  0.78560  1.0000 -0.2115255997
C   C133      1.0  0.09041  0.80481  0.11912  1.0000 -0.2115255997
C   C134      1.0  0.06431  0.44519  0.78560  1.0000 -0.2115255997
C   C135      1.0  0.65959  0.27871  0.21440  1.0000 -0.2115255997
C   C136      1.0  0.02871  0.31431  0.11912  1.0000 -0.2115255997
C   C137      1.0  0.06431  0.27871  0.61912  1.0000 -0.2115255997
C   C138      1.0  0.55481  0.34041  0.61912  1.0000 -0.2115255997
C   C139      1.0  0.19519  0.31431  0.28560  1.0000 -0.2115255997
C   C140      1.0  0.02871  0.90959  0.71440  1.0000 -0.2115255997
C   C141      1.0  0.65959  0.44519  0.38088  1.0000 -0.2115255997
C   C142      1.0  0.68569  0.80481  0.71440  1.0000 -0.2115255997
C   C143      1.0  0.09041  0.97129  0.28560  1.0000 -0.2115255997
C   C144      1.0  0.72129  0.93569  0.38088  1.0000 -0.2115255997
C   C145      1.0  0.72116  0.03444  0.90996  1.0000 0.0470385132
C   C146      1.0  0.18880  0.87552  0.90996  1.0000 0.0470385132
C   C147      1.0  0.56120  0.97116  0.18672  1.0000 0.0470385132
C   C148      1.0  0.78444  0.37448  0.81328  1.0000 0.0470385132
C   C149      1.0  0.12448  0.81120  0.09004  1.0000 0.0470385132
C   C150      1.0  0.02884  0.43880  0.81328  1.0000 0.0470385132
C   C151      1.0  0.62552  0.21556  0.18672  1.0000 0.0470385132
C   C152      1.0  0.96556  0.27884  0.09004  1.0000 0.0470385132
C   C153      1.0  0.02884  0.21556  0.59004  1.0000 0.0470385132
C   C154      1.0  0.56120  0.37448  0.59004  1.0000 0.0470385132
C   C155      1.0  0.18880  0.27884  0.31328  1.0000 0.0470385132
C   C156      1.0  0.96556  0.87552  0.68672  1.0000 0.0470385132
C   C157      1.0  0.62552  0.43880  0.40996  1.0000 0.0470385132
C   C158      1.0  0.72116  0.81120  0.68672  1.0000 0.0470385132
C   C159      1.0  0.12448  0.03444  0.31328  1.0000 0.0470385132
C   C160      1.0  0.78444  0.97116  0.40996  1.0000 0.0470385132
C   C161      1.0  0.82236  0.03389  0.00365  1.0000 0.031201612
C   C162      1.0  0.18129  0.96976  0.00365  1.0000 0.031201612
C   C163      1.0  0.56871  0.07236  0.28847  1.0000 0.031201612
C   C164      1.0  0.78389  0.28024  0.71153  1.0000 0.031201612
C   C165      1.0  0.03024  0.81871  0.99635  1.0000 0.031201612
C   C166      1.0  0.92764  0.43129  0.71153  1.0000 0.031201612
C   C167      1.0  0.71976  0.21611  0.28847  1.0000 0.031201612
C   C168      1.0  0.96611  0.17764  0.99635  1.0000 0.031201612
C   C169      1.0  0.92764  0.21611  0.49635  1.0000 0.031201612
C   C170      1.0  0.56871  0.28024  0.49635  1.0000 0.031201612
C   C171      1.0  0.18129  0.17764  0.21153  1.0000 0.031201612
C   C172      1.0  0.96611  0.96976  0.78847  1.0000 0.031201612
C   C173      1.0  0.71976  0.43129  0.50365  1.0000 0.031201612
C   C174      1.0  0.82236  0.81871  0.78847  1.0000 0.031201612
C   C175      1.0  0.03024  0.03389  0.21153  1.0000 0.031201612
C   C176      1.0  0.78389  0.07236  0.50365  1.0000 0.031201612
C   C177      1.0  0.79125  0.97001  0.97688  1.0000 -0.2196732204
C   C178      1.0  0.18563  0.00687  0.97688  1.0000 -0.2196732204
C   C179      1.0  0.56437  0.04125  0.32124  1.0000 -0.2196732204
C   C180      1.0  0.72001  0.24313  0.67876  1.0000 -0.2196732204
C   C181      1.0  0.99313  0.81437  0.02312  1.0000 -0.2196732204
C   C182      1.0  0.95875  0.43563  0.67876  1.0000 -0.2196732204
C   C183      1.0  0.75687  0.27999  0.32124  1.0000 -0.2196732204
C   C184      1.0  0.02999  0.20875  0.02312  1.0000 -0.2196732204
C   C185      1.0  0.95875  0.27999  0.52312  1.0000 -0.2196732204
C   C186      1.0  0.56437  0.24313  0.52312  1.0000 -0.2196732204
C   C187      1.0  0.18563  0.20875  0.17876  1.0000 -0.2250051277
C   C188      1.0  0.02999  0.00687  0.82124  1.0000 -0.2250051277
C   C189      1.0  0.75687  0.43563  0.47688  1.0000 -0.2250051277
C   C190      1.0  0.79125  0.81437  0.82124  1.0000 -0.2196732204
C   C191      1.0  0.99313  0.97001  0.17876  1.0000 -0.2196732204
C   C192      1.0  0.72001  0.04125  0.47688  1.0000 -0.2196732204
S   S1        1.0  0.60929  0.76706  0.84223  1.0000 0.0085219903
S   S2        1.0  0.23294  0.07517  0.84223  1.0000 0.0085219903
S   S3        1.0  0.51706  0.85929  0.34223  1.0000 0.0085219903
S   S4        1.0  0.51706  0.17483  0.65777  1.0000 0.0085219903
S   S5        1.0  0.92483  0.76706  0.15777  1.0000 0.0085219903
S   S6        1.0  0.14071  0.48294  0.65777  1.0000 0.0085219903
S   S7        1.0  0.82517  0.48294  0.34223  1.0000 0.0085219903
S   S8        1.0  0.23294  0.39071  0.15777  1.0000 0.0085219903
N   N1        1.0  0.60743  0.00061  0.07706  1.0000 -0.2196732204
N   N2        1.0  0.46963  0.07645  0.07706  1.0000 -0.2196732204
N   N3        1.0  0.28037  0.85743  0.10682  1.0000 -0.2196732204
N   N4        1.0  0.75061  0.17355  0.89318  1.0000 -0.2196732204
N   N5        1.0  0.92355  0.53037  0.92294  1.0000 -0.2196732204
N   N6        1.0  0.14257  0.71963  0.89318  1.0000 -0.2196732204
N   N7        1.0  0.82645  0.24939  0.10682  1.0000 -0.2196732204
N   N8        1.0  0.99939  0.39257  0.92294  1.0000 -0.2196732204
N   N9        1.0  0.14257  0.24939  0.42294  1.0000 -0.2196732204
N   N10       1.0  0.28037  0.17355  0.42294  1.0000 -0.2196732204
N   N11       1.0  0.46963  0.39257  0.39318  1.0000 -0.2196732204
N   N12       1.0  0.99939  0.07645  0.60682  1.0000 -0.2196732204
N   N13       1.0  0.82645  0.71963  0.57706  1.0000 -0.2196732204
N   N14       1.0  0.60743  0.53037  0.60682  1.0000 -0.2196732204
N   N15       1.0  0.92355  0.00061  0.39318  1.0000 -0.2196732204
N   N16       1.0  0.75061  0.85743  0.57706  1.0000 -0.2196732204
N   N17       1.0  0.78826  0.06585  0.97001  1.0000 -0.1924962776
N   N18       1.0  0.18175  0.90416  0.97001  1.0000 -0.1924962776
N   N19       1.0  0.56825  0.03826  0.22241  1.0000 -0.1924962776
N   N20       1.0  0.81585  0.34584  0.77759  1.0000 -0.1924962776
N   N21       1.0  0.09584  0.81825  0.02999  1.0000 -0.1924962776
N   N22       1.0  0.96174  0.43175  0.77759  1.0000 -0.1924962776
N   N23       1.0  0.65416  0.18415  0.22241  1.0000 -0.1924962776
N   N24       1.0  0.93415  0.21174  0.02999  1.0000 -0.1924962776
N   N25       1.0  0.96174  0.18415  0.52999  1.0000 -0.1924962776
N   N26       1.0  0.56825  0.34584  0.52999  1.0000 -0.1924962776
N   N27       1.0  0.18175  0.21174  0.27759  1.0000 -0.1924962776
N   N28       1.0  0.93415  0.90416  0.72241  1.0000 -0.1924962776
N   N29       1.0  0.65416  0.43175  0.47001  1.0000 -0.1924962776
N   N30       1.0  0.78826  0.81825  0.72241  1.0000 -0.1924962776
N   N31       1.0  0.09584  0.06585  0.27759  1.0000 -0.1924962776
N   N32       1.0  0.81585  0.03826  0.47001  1.0000 -0.1924962776
