# DDEC6 charges by PACMAN v1.1 (https://github.com/mtap-research/PACMAN-charge/)
data_2004[Cu][asf]3[ASR]2
_chemical_formula_sum              "Cu8 H48 C48 I8 N16"
_cell_length_a       14.0807
_cell_length_b       14.0807
_cell_length_c       14.0807
_cell_angle_alpha    102.567
_cell_angle_beta     102.567
_cell_angle_gamma    124.391

_symmetry_space_group_name_H-M    "P 1"
_symmetry_Int_Tables_number       1

loop_
  _symmetry_equiv_pos_as_xyz
  'x, y, z'

loop_
  _atom_site_type_symbol
  _atom_site_label
  _atom_site_symmetry_multiplicity
  _atom_site_fract_x
  _atom_site_fract_y
  _atom_site_fract_z
  _atom_site_occupancy
  _atom_site_charge
Cu  Cu1       1.0  0.49070  0.50930  0.50000  1.0000 0.2271916098
Cu  Cu2       1.0  0.24070  0.24070  0.48140  1.0000 0.2271916098
Cu  Cu3       1.0  0.75930  0.75930  0.51860  1.0000 0.2271916098
Cu  Cu4       1.0  0.00930  0.99070  0.50000  1.0000 0.2271916098
Cu  Cu5       1.0  0.24070  0.75930  0.00000  1.0000 0.2271916098
Cu  Cu6       1.0  0.49070  0.99070  0.98140  1.0000 0.2271916098
Cu  Cu7       1.0  0.00930  0.50930  0.01860  1.0000 0.2271916098
Cu  Cu8       1.0  0.75930  0.24070  0.00000  1.0000 0.2271916098
H   H1        1.0  0.42750  0.68270  0.40800  1.0000 0.1308026123
H   H2        1.0  0.26950  0.17750  0.24480  1.0000 0.1308026123
H   H3        1.0  0.93270  0.02470  0.75520  1.0000 0.1308026123
H   H4        1.0  0.98050  0.72530  0.40800  1.0000 0.1308026123
H   H5        1.0  0.97530  0.73050  0.90800  1.0000 0.1308026123
H   H6        1.0  0.42750  0.01950  0.74480  1.0000 0.1308026123
H   H7        1.0  0.27470  0.68270  0.25520  1.0000 0.1308026123
H   H8        1.0  0.93270  0.17750  0.90800  1.0000 0.1308026123
H   H9        1.0  0.82250  0.06730  0.09200  1.0000 0.1308026123
H   H10       1.0  0.98050  0.57250  0.25520  1.0000 0.1308026123
H   H11       1.0  0.31730  0.72530  0.74480  1.0000 0.1308026123
H   H12       1.0  0.26950  0.02470  0.09200  1.0000 0.1308026123
H   H13       1.0  0.27470  0.01950  0.59200  1.0000 0.1308026123
H   H14       1.0  0.82250  0.73050  0.75520  1.0000 0.1308026123
H   H15       1.0  0.97530  0.06730  0.24480  1.0000 0.1308026123
H   H16       1.0  0.31730  0.57250  0.59200  1.0000 0.1308026123
H   H17       1.0  0.48450  0.62370  0.36720  1.0000 0.1308026123
H   H18       1.0  0.36730  0.23450  0.36080  1.0000 0.1308026123
H   H19       1.0  0.87370  0.00650  0.63920  1.0000 0.1308026123
H   H20       1.0  0.88270  0.74350  0.36720  1.0000 0.1308026123
H   H21       1.0  0.99350  0.63270  0.86720  1.0000 0.1308026123
H   H22       1.0  0.48450  0.11730  0.86080  1.0000 0.1308026123
H   H23       1.0  0.25650  0.62370  0.13920  1.0000 0.1308026123
H   H24       1.0  0.87370  0.23450  0.86720  1.0000 0.1308026123
H   H25       1.0  0.76550  0.12630  0.13280  1.0000 0.1308026123
H   H26       1.0  0.88270  0.51550  0.13920  1.0000 0.1308026123
H   H27       1.0  0.37630  0.74350  0.86080  1.0000 0.1308026123
H   H28       1.0  0.36730  0.00650  0.13280  1.0000 0.1308026123
H   H29       1.0  0.25650  0.11730  0.63280  1.0000 0.1308026123
H   H30       1.0  0.76550  0.63270  0.63920  1.0000 0.1308026123
H   H31       1.0  0.99350  0.12630  0.36080  1.0000 0.1308026123
H   H32       1.0  0.37630  0.51550  0.63280  1.0000 0.1308026123
H   H33       1.0  0.45940  0.72810  0.26870  1.0000 0.1119038011
H   H34       1.0  0.44070  0.20940  0.23130  1.0000 0.1119038011
H   H35       1.0  0.97810  0.20940  0.76870  1.0000 0.1119038011
H   H36       1.0  0.80930  0.54060  0.26870  1.0000 0.1119038011
H   H37       1.0  0.79060  0.55930  0.76870  1.0000 0.1119038011
H   H38       1.0  0.45940  0.19070  0.73130  1.0000 0.1119038011
H   H39       1.0  0.79060  0.02190  0.23130  1.0000 0.1119038011
H   H40       1.0  0.27190  0.54060  0.73130  1.0000 0.1119038011
H   H41       1.0  0.38890  0.58710  0.19820  1.0000 0.1028211373
H   H42       1.0  0.44070  0.13890  0.30180  1.0000 0.1028211373
H   H43       1.0  0.83710  0.13890  0.69820  1.0000 0.1028211373
H   H44       1.0  0.80930  0.61110  0.19820  1.0000 0.1028211373
H   H45       1.0  0.86110  0.55930  0.69820  1.0000 0.1028211373
H   H46       1.0  0.38890  0.19070  0.80180  1.0000 0.1028211373
H   H47       1.0  0.86110  0.16290  0.30180  1.0000 0.1028211373
H   H48       1.0  0.41290  0.61110  0.80180  1.0000 0.1028211373
C   C1        1.0  0.29820  0.49020  0.33440  1.0000 0.220694318
C   C2        1.0  0.21380  0.04820  0.30800  1.0000 0.220694318
C   C3        1.0  0.74020  0.90580  0.69200  1.0000 0.220694318
C   C4        1.0  0.03620  0.84420  0.33440  1.0000 0.220694318
C   C5        1.0  0.09420  0.78620  0.83440  1.0000 0.220694318
C   C6        1.0  0.29820  0.96380  0.80800  1.0000 0.220694318
C   C7        1.0  0.15580  0.49020  0.19200  1.0000 0.220694318
C   C8        1.0  0.74020  0.04820  0.83440  1.0000 0.220694318
C   C9        1.0  0.95180  0.25980  0.16560  1.0000 0.220694318
C   C10       1.0  0.03620  0.70180  0.19200  1.0000 0.220694318
C   C11       1.0  0.50980  0.84420  0.80800  1.0000 0.220694318
C   C12       1.0  0.21380  0.90580  0.16560  1.0000 0.220694318
C   C13       1.0  0.15580  0.96380  0.66560  1.0000 0.220694318
C   C14       1.0  0.95180  0.78620  0.69200  1.0000 0.220694318
C   C15       1.0  0.09420  0.25980  0.30800  1.0000 0.220694318
C   C16       1.0  0.50980  0.70180  0.66560  1.0000 0.220694318
C   C17       1.0  0.17640  0.43370  0.25730  1.0000 -0.0523228986
C   C18       1.0  0.16910  0.92640  0.24270  1.0000 -0.0523228986
C   C19       1.0  0.68370  0.92640  0.75730  1.0000 -0.0523228986
C   C20       1.0  0.08090  0.82360  0.25730  1.0000 -0.0523228986
C   C21       1.0  0.07360  0.83090  0.75730  1.0000 -0.0523228986
C   C22       1.0  0.17640  0.91910  0.74270  1.0000 -0.0523228986
C   C23       1.0  0.07360  0.31630  0.24270  1.0000 -0.0523228986
C   C24       1.0  0.56630  0.82360  0.74270  1.0000 -0.0523228986
C   C25       1.0  0.41110  0.61790  0.34920  1.0000 -0.2691961736
C   C26       1.0  0.31190  0.16110  0.29320  1.0000 -0.2691961736
C   C27       1.0  0.86790  0.01870  0.70680  1.0000 -0.2691961736
C   C28       1.0  0.93810  0.73130  0.34920  1.0000 -0.2691961736
C   C29       1.0  0.98130  0.68810  0.84920  1.0000 -0.2691961736
C   C30       1.0  0.41110  0.06190  0.79320  1.0000 -0.2691961736
C   C31       1.0  0.26870  0.61790  0.20680  1.0000 -0.2691961736
C   C32       1.0  0.86790  0.16110  0.84920  1.0000 -0.2691961736
C   C33       1.0  0.83890  0.13210  0.15080  1.0000 -0.2691961736
C   C34       1.0  0.93810  0.58890  0.20680  1.0000 -0.2691961736
C   C35       1.0  0.38210  0.73130  0.79320  1.0000 -0.2691961736
C   C36       1.0  0.31190  0.01870  0.15080  1.0000 -0.2691961736
C   C37       1.0  0.26870  0.06190  0.65080  1.0000 -0.2691961736
C   C38       1.0  0.83890  0.68810  0.70680  1.0000 -0.2691961736
C   C39       1.0  0.98130  0.13210  0.29320  1.0000 -0.2691961736
C   C40       1.0  0.38210  0.58890  0.65080  1.0000 -0.2691961736
C   C41       1.0  0.38950  0.64220  0.25270  1.0000 -0.1019613375
C   C42       1.0  0.38680  0.13950  0.24730  1.0000 -0.1019613375
C   C43       1.0  0.89220  0.13950  0.75270  1.0000 -0.1019613375
C   C44       1.0  0.86320  0.61050  0.25270  1.0000 -0.1019613375
C   C45       1.0  0.86050  0.61320  0.75270  1.0000 -0.1019613375
C   C46       1.0  0.38950  0.13680  0.74730  1.0000 -0.1019613375
C   C47       1.0  0.86050  0.10780  0.24730  1.0000 -0.1019613375
C   C48       1.0  0.35780  0.61050  0.74730  1.0000 -0.1019613375
I   I1        1.0  0.48094  0.37500  0.60594  1.0000 -0.4161047605
I   I2        1.0  0.12500  0.23094  0.60594  1.0000 -0.4161047605
I   I3        1.0  0.62500  0.51906  0.39406  1.0000 -0.4161047605
I   I4        1.0  0.48094  0.87500  0.10594  1.0000 -0.4161047605
I   I5        1.0  0.76906  0.37500  0.89406  1.0000 -0.4161047605
I   I6        1.0  0.62500  0.23094  0.10594  1.0000 -0.4161047605
I   I7        1.0  0.12500  0.51906  0.89406  1.0000 -0.4161047605
I   I8        1.0  0.76906  0.87500  0.39406  1.0000 -0.4161047605
N   N1        1.0  0.31330  0.43420  0.39250  1.0000 -0.1488671447
N   N2        1.0  0.17080  0.06330  0.37910  1.0000 -0.1488671447
N   N3        1.0  0.68420  0.79170  0.62090  1.0000 -0.1488671447
N   N4        1.0  0.07920  0.95830  0.39250  1.0000 -0.1488671447
N   N5        1.0  0.20830  0.82920  0.89250  1.0000 -0.1488671447
N   N6        1.0  0.31330  0.92080  0.87910  1.0000 -0.1488671447
N   N7        1.0  0.04170  0.43420  0.12090  1.0000 -0.1488671447
N   N8        1.0  0.68420  0.06330  0.89250  1.0000 -0.1488671447
N   N9        1.0  0.93670  0.31580  0.10750  1.0000 -0.1488671447
N   N10       1.0  0.07920  0.68670  0.12090  1.0000 -0.1488671447
N   N11       1.0  0.56580  0.95830  0.87910  1.0000 -0.1488671447
N   N12       1.0  0.17080  0.79170  0.10750  1.0000 -0.1488671447
N   N13       1.0  0.04170  0.92080  0.60750  1.0000 -0.1488671447
N   N14       1.0  0.93670  0.82920  0.62090  1.0000 -0.1488671447
N   N15       1.0  0.20830  0.31580  0.37910  1.0000 -0.1488671447
N   N16       1.0  0.56580  0.68670  0.60750  1.0000 -0.1488671447
