# DDEC6 charges by PACMAN v1.1 (https://github.com/mtap-research/PACMAN-charge/)
data_2004[CdV][xbe]3[ASR]1
_chemical_formula_sum              "V4 Cd4 P4 H56 C60 N12 O28"
_cell_length_a       9.1267
_cell_length_b       17.61
_cell_length_c       15.361
_cell_angle_alpha    90
_cell_angle_beta     93.06
_cell_angle_gamma    90

_symmetry_space_group_name_H-M    "P 1"
_symmetry_Int_Tables_number       1

loop_
  _symmetry_equiv_pos_as_xyz
  'x, y, z'

loop_
  _atom_site_type_symbol
  _atom_site_label
  _atom_site_symmetry_multiplicity
  _atom_site_fract_x
  _atom_site_fract_y
  _atom_site_fract_z
  _atom_site_occupancy
  _atom_site_charge
V   V1        1.0  0.07003  0.98824  0.66758  1.0000 1.4729230754
V   V2        1.0  0.92997  0.48824  0.83242  1.0000 1.4729230754
V   V3        1.0  0.92997  0.01176  0.33242  1.0000 1.4729230754
V   V4        1.0  0.07003  0.51176  0.16758  1.0000 1.4729230754
Cd  Cd1       1.0  0.17945  0.75685  0.36591  1.0000 0.8612362497
Cd  Cd2       1.0  0.82055  0.25685  0.13409  1.0000 0.8612362497
Cd  Cd3       1.0  0.82055  0.24315  0.63409  1.0000 0.8612362497
Cd  Cd4       1.0  0.17945  0.74315  0.86591  1.0000 0.8612362497
P   P1        1.0  0.04823  0.89530  0.49277  1.0000 1.289218878
P   P2        1.0  0.95177  0.39530  0.00723  1.0000 1.289218878
P   P3        1.0  0.95177  0.10470  0.50723  1.0000 1.289218878
P   P4        1.0  0.04823  0.60470  0.99277  1.0000 1.289218878
H   H1        1.0  0.21740  0.99450  0.47110  1.0000 0.1502957396
H   H2        1.0  0.78260  0.49450  0.02890  1.0000 0.1502957396
H   H3        1.0  0.78260  0.00550  0.52890  1.0000 0.1502957396
H   H4        1.0  0.21740  0.50550  0.97110  1.0000 0.1502957396
H   H5        1.0  0.29960  0.91400  0.46820  1.0000 0.1226575874
H   H6        1.0  0.70040  0.41400  0.03180  1.0000 0.1226575874
H   H7        1.0  0.70040  0.08600  0.53180  1.0000 0.1226575874
H   H8        1.0  0.29960  0.58600  0.96820  1.0000 0.1226575874
H   H9        1.0  0.30930  0.83880  0.58830  1.0000 0.1226575874
H   H10       1.0  0.69070  0.33880  0.91170  1.0000 0.1226575874
H   H11       1.0  0.69070  0.16120  0.41170  1.0000 0.1226575874
H   H12       1.0  0.30930  0.66120  0.08830  1.0000 0.1226575874
H   H13       1.0  0.43840  0.88350  0.64080  1.0000 0.1310648404
H   H14       1.0  0.56160  0.38350  0.85920  1.0000 0.1310648404
H   H15       1.0  0.56160  0.11650  0.35920  1.0000 0.1310648404
H   H16       1.0  0.43840  0.61650  0.14080  1.0000 0.1310648404
H   H17       1.0  0.48310  0.99500  0.60590  1.0000 0.1310648404
H   H18       1.0  0.51690  0.49500  0.89410  1.0000 0.1310648404
H   H19       1.0  0.51690  0.00500  0.39410  1.0000 0.1310648404
H   H20       1.0  0.48310  0.50500  0.10590  1.0000 0.1310648404
H   H21       1.0  0.36800  0.05330  0.56040  1.0000 0.1310648404
H   H22       1.0  0.63200  0.55330  0.93960  1.0000 0.1310648404
H   H23       1.0  0.63200  0.94670  0.43960  1.0000 0.1310648404
H   H24       1.0  0.36800  0.44670  0.06040  1.0000 0.1310648404
H   H25       1.0  0.52190  0.80770  0.39060  1.0000 0.1003250882
H   H26       1.0  0.47810  0.30770  0.10940  1.0000 0.1003250882
H   H27       1.0  0.47810  0.19230  0.60940  1.0000 0.1003250882
H   H28       1.0  0.52190  0.69230  0.89060  1.0000 0.1003250882
H   H29       1.0  0.72150  0.80350  0.49030  1.0000 0.1393986322
H   H30       1.0  0.27850  0.30350  0.00970  1.0000 0.1393986322
H   H31       1.0  0.27850  0.19650  0.50970  1.0000 0.1393986322
H   H32       1.0  0.72150  0.69650  0.99030  1.0000 0.1393986322
H   H33       1.0  0.48450  0.66680  0.64230  1.0000 0.1393986322
H   H34       1.0  0.51550  0.16680  0.85770  1.0000 0.1393986322
H   H35       1.0  0.51550  0.33320  0.35770  1.0000 0.1393986322
H   H36       1.0  0.48450  0.83320  0.14230  1.0000 0.1393986322
H   H37       1.0  0.29390  0.67290  0.53600  1.0000 0.1003250882
H   H38       1.0  0.70610  0.17290  0.96400  1.0000 0.1003250882
H   H39       1.0  0.70610  0.32710  0.46400  1.0000 0.1003250882
H   H40       1.0  0.29390  0.82710  0.03600  1.0000 0.1003250882
H   H41       1.0  0.10310  0.72070  0.66490  1.0000 0.1003250882
H   H42       1.0  0.89690  0.22070  0.83510  1.0000 0.1003250882
H   H43       1.0  0.89690  0.27930  0.33510  1.0000 0.1003250882
H   H44       1.0  0.10310  0.77930  0.16490  1.0000 0.1003250882
H   H45       1.0  0.91200  0.72420  0.55940  1.0000 0.1310648404
H   H46       1.0  0.08800  0.22420  0.94060  1.0000 0.1310648404
H   H47       1.0  0.08800  0.27580  0.44060  1.0000 0.1310648404
H   H48       1.0  0.91200  0.77580  0.05940  1.0000 0.1310648404
H   H49       1.0  0.62920  0.74350  0.75280  1.0000 0.1310648404
H   H50       1.0  0.37080  0.24350  0.74720  1.0000 0.1310648404
H   H51       1.0  0.37080  0.25650  0.24720  1.0000 0.1310648404
H   H52       1.0  0.62920  0.75650  0.25280  1.0000 0.1310648404
H   H53       1.0  0.82910  0.74220  0.85250  1.0000 0.1003250882
H   H54       1.0  0.17090  0.24220  0.64750  1.0000 0.1003250882
H   H55       1.0  0.17090  0.25780  0.14750  1.0000 0.1003250882
H   H56       1.0  0.82910  0.75780  0.35250  1.0000 0.1003250882
C   C1        1.0  0.22670  0.94400  0.49910  1.0000 -0.4627389557
C   C2        1.0  0.77330  0.44400  0.00090  1.0000 -0.4627389557
C   C3        1.0  0.77330  0.05600  0.50090  1.0000 -0.4627389557
C   C4        1.0  0.22670  0.55600  0.99910  1.0000 -0.4627389557
C   C5        1.0  0.33060  0.88020  0.63070  1.0000 -0.2880039312
C   C6        1.0  0.66940  0.38020  0.86930  1.0000 -0.2880039312
C   C7        1.0  0.66940  0.11980  0.36930  1.0000 -0.2880039312
C   C8        1.0  0.33060  0.61980  0.13070  1.0000 -0.2880039312
C   C9        1.0  0.26320  0.86030  0.71590  1.0000 0.62589406
C   C10       1.0  0.73680  0.36030  0.78410  1.0000 0.62589406
C   C11       1.0  0.73680  0.13970  0.28410  1.0000 0.62589406
C   C12       1.0  0.26320  0.63970  0.21590  1.0000 0.62589406
C   C13       1.0  0.38200  0.01510  0.60750  1.0000 -0.2799417547
C   C14       1.0  0.61800  0.51510  0.89250  1.0000 -0.2799417547
C   C15       1.0  0.61800  0.98490  0.39250  1.0000 -0.2799417547
C   C16       1.0  0.38200  0.48490  0.10750  1.0000 -0.2799417547
C   C17       1.0  0.36200  0.05300  0.69530  1.0000 0.6109748386
C   C18       1.0  0.63800  0.55300  0.80470  1.0000 0.6109748386
C   C19       1.0  0.63800  0.94700  0.30470  1.0000 0.6109748386
C   C20       1.0  0.36200  0.44700  0.19530  1.0000 0.6109748386
C   C21       1.0  0.51470  0.77880  0.44240  1.0000 0.063134099
C   C22       1.0  0.48530  0.27880  0.05760  1.0000 0.063134099
C   C23       1.0  0.48530  0.22120  0.55760  1.0000 0.063134099
C   C24       1.0  0.51470  0.72120  0.94240  1.0000 0.063134099
C   C25       1.0  0.63410  0.77680  0.50160  1.0000 -0.1963652171
C   C26       1.0  0.36590  0.27680  0.99840  1.0000 -0.1963652171
C   C27       1.0  0.36590  0.22320  0.49840  1.0000 -0.1963652171
C   C28       1.0  0.63410  0.72320  0.00160  1.0000 -0.1963652171
C   C29       1.0  0.62470  0.73510  0.57810  1.0000 0.1003250882
C   C30       1.0  0.37530  0.23510  0.92190  1.0000 0.1003250882
C   C31       1.0  0.37530  0.26490  0.42190  1.0000 0.1003250882
C   C32       1.0  0.62470  0.76490  0.07810  1.0000 0.1003250882
C   C33       1.0  0.49500  0.69600  0.59100  1.0000 -0.1723877512
C   C34       1.0  0.50500  0.19600  0.90900  1.0000 -0.1723877512
C   C35       1.0  0.50500  0.30400  0.40900  1.0000 -0.1723877512
C   C36       1.0  0.49500  0.80400  0.09100  1.0000 -0.1723877512
C   C37       1.0  0.38140  0.70050  0.52750  1.0000 0.063134099
C   C38       1.0  0.61860  0.20050  0.97250  1.0000 0.063134099
C   C39       1.0  0.61860  0.29950  0.47250  1.0000 0.063134099
C   C40       1.0  0.38140  0.79950  0.02750  1.0000 0.063134099
C   C41       1.0  0.00550  0.72600  0.68270  1.0000 0.0814365375
C   C42       1.0  0.99450  0.22600  0.81730  1.0000 0.0851945929
C   C43       1.0  0.99450  0.27400  0.31730  1.0000 0.0851945929
C   C44       1.0  0.00550  0.77400  0.18270  1.0000 0.0814365375
C   C45       1.0  0.89210  0.72730  0.61930  1.0000 -0.1723877512
C   C46       1.0  0.10790  0.22730  0.88070  1.0000 -0.1723877512
C   C47       1.0  0.10790  0.27270  0.38070  1.0000 -0.1723877512
C   C48       1.0  0.89210  0.77270  0.11930  1.0000 -0.1723877512
C   C49       1.0  0.74910  0.73330  0.64440  1.0000 0.1102629431
C   C50       1.0  0.25090  0.23330  0.85560  1.0000 0.1102629431
C   C51       1.0  0.25090  0.26670  0.35560  1.0000 0.1102629431
C   C52       1.0  0.74910  0.76670  0.14440  1.0000 0.1102629431
C   C53       1.0  0.72580  0.73910  0.73320  1.0000 -0.1771064125
C   C54       1.0  0.27420  0.23910  0.76680  1.0000 -0.1771064125
C   C55       1.0  0.27420  0.26090  0.26680  1.0000 -0.1771064125
C   C56       1.0  0.72580  0.76090  0.23320  1.0000 -0.1771064125
C   C57       1.0  0.84550  0.73820  0.79210  1.0000 0.0814365375
C   C58       1.0  0.15450  0.23820  0.70790  1.0000 0.0814365375
C   C59       1.0  0.15450  0.26180  0.20790  1.0000 0.0814365375
C   C60       1.0  0.84550  0.76180  0.29210  1.0000 0.0814365375
N   N1        1.0  0.27580  0.95268  0.59255  1.0000 -0.0586770627
N   N2        1.0  0.72420  0.45268  0.90745  1.0000 -0.0586770627
N   N3        1.0  0.72420  0.04732  0.40745  1.0000 -0.0586770627
N   N4        1.0  0.27580  0.54732  0.09255  1.0000 -0.0586770627
N   N5        1.0  0.38920  0.74179  0.45480  1.0000 -0.2406821348
N   N6        1.0  0.61080  0.24179  0.04520  1.0000 -0.2406821348
N   N7        1.0  0.61080  0.25821  0.54520  1.0000 -0.2406821348
N   N8        1.0  0.38920  0.75821  0.95480  1.0000 -0.2406821348
N   N9        1.0  0.98400  0.73190  0.76780  1.0000 -0.2490323133
N   N10       1.0  0.01600  0.23190  0.73220  1.0000 -0.2490323133
N   N11       1.0  0.01600  0.26810  0.23220  1.0000 -0.2490323133
N   N12       1.0  0.98400  0.76810  0.26780  1.0000 -0.2490323133
O   O1        1.0  0.07100  0.81133  0.47850  1.0000 -0.7816649772
O   O2        1.0  0.92900  0.31133  0.02150  1.0000 -0.7816649772
O   O3        1.0  0.92900  0.18867  0.52150  1.0000 -0.7816649772
O   O4        1.0  0.07100  0.68867  0.97850  1.0000 -0.7816649772
O   O5        1.0  0.95090  0.93022  0.41920  1.0000 -0.8355387546
O   O6        1.0  0.04910  0.43022  0.08080  1.0000 -0.8355387546
O   O7        1.0  0.04910  0.06978  0.58080  1.0000 -0.8355387546
O   O8        1.0  0.95090  0.56978  0.91920  1.0000 -0.8355387546
O   O9        1.0  0.98540  0.91232  0.58208  1.0000 -0.8240342982
O   O10       1.0  0.01460  0.41232  0.91792  1.0000 -0.8240342982
O   O11       1.0  0.01460  0.08768  0.41792  1.0000 -0.8240342982
O   O12       1.0  0.98540  0.58768  0.08208  1.0000 -0.8240342982
O   O13       1.0  0.15490  0.90003  0.73909  1.0000 -0.6158690251
O   O14       1.0  0.84510  0.40003  0.76091  1.0000 -0.6158690251
O   O15       1.0  0.84510  0.09997  0.26091  1.0000 -0.6158690251
O   O16       1.0  0.15490  0.59997  0.23909  1.0000 -0.6158690251
O   O17       1.0  0.31330  0.80440  0.75765  1.0000 -0.5661463611
O   O18       1.0  0.68670  0.30440  0.74235  1.0000 -0.5661463611
O   O19       1.0  0.68670  0.19560  0.24235  1.0000 -0.5661463611
O   O20       1.0  0.31330  0.69560  0.25765  1.0000 -0.5661463611
O   O21       1.0  0.23580  0.04750  0.72609  1.0000 -0.6061651058
O   O22       1.0  0.76420  0.54750  0.77391  1.0000 -0.6061651058
O   O23       1.0  0.76420  0.95250  0.27391  1.0000 -0.6061651058
O   O24       1.0  0.23580  0.45250  0.22609  1.0000 -0.6061651058
O   O25       1.0  0.46630  0.08834  0.73080  1.0000 -0.5661463611
O   O26       1.0  0.53370  0.58834  0.76920  1.0000 -0.5661463611
O   O27       1.0  0.53370  0.91166  0.26920  1.0000 -0.5661463611
O   O28       1.0  0.46630  0.41166  0.23080  1.0000 -0.5661463611
