# DDEC6 charges by PACMAN v1.1 (https://github.com/mtap-research/PACMAN-charge/)
data_2005[Zn][dia]3[ASR]1
_chemical_formula_sum              "Zn12 H24 C24 O48"
_cell_length_a       11.3407
_cell_length_b       9.7856
_cell_length_c       18.1289
_cell_angle_alpha    90
_cell_angle_beta     127.26
_cell_angle_gamma    90

_symmetry_space_group_name_H-M    "P 1"
_symmetry_Int_Tables_number       1

loop_
  _symmetry_equiv_pos_as_xyz
  'x, y, z'

loop_
  _atom_site_type_symbol
  _atom_site_label
  _atom_site_symmetry_multiplicity
  _atom_site_fract_x
  _atom_site_fract_y
  _atom_site_fract_z
  _atom_site_occupancy
  _atom_site_charge
Zn  Zn1       1.0  0.87441  0.08135  0.63120  1.0000 0.9412121374
Zn  Zn2       1.0  0.12559  0.58135  0.86880  1.0000 0.9412121374
Zn  Zn3       1.0  0.12559  0.91865  0.36880  1.0000 0.9412121374
Zn  Zn4       1.0  0.87441  0.41865  0.13120  1.0000 0.9412121374
Zn  Zn5       1.0  0.92614  0.39482  0.68606  1.0000 0.9182073075
Zn  Zn6       1.0  0.07386  0.89482  0.81394  1.0000 0.9182073075
Zn  Zn7       1.0  0.07386  0.60518  0.31394  1.0000 0.9182073075
Zn  Zn8       1.0  0.92614  0.10518  0.18606  1.0000 0.9182073075
Zn  Zn9       1.0  0.00000  0.00000  0.50000  1.0000 0.9412121374
Zn  Zn10      1.0  0.00000  0.50000  0.00000  1.0000 0.9412121374
Zn  Zn11      1.0  0.50000  0.00000  0.50000  1.0000 0.9412121374
Zn  Zn12      1.0  0.50000  0.50000  0.00000  1.0000 0.9412121374
H   H1        1.0  0.72900  0.84600  0.43000  1.0000 0.1086529933
H   H2        1.0  0.27100  0.34600  0.07000  1.0000 0.1086529933
H   H3        1.0  0.27100  0.15400  0.57000  1.0000 0.1086529933
H   H4        1.0  0.72900  0.65400  0.93000  1.0000 0.1086529933
H   H5        1.0  0.51300  0.28900  0.51300  1.0000 0.0907708299
H   H6        1.0  0.48700  0.78900  0.98700  1.0000 0.0907708299
H   H7        1.0  0.48700  0.71100  0.48700  1.0000 0.0907708299
H   H8        1.0  0.51300  0.21100  0.01300  1.0000 0.0907708299
H   H9        1.0  0.00700  0.25000  0.87100  1.0000 0.0702462878
H   H10       1.0  0.99300  0.75000  0.62900  1.0000 0.0702462878
H   H11       1.0  0.99300  0.75000  0.12900  1.0000 0.0702462878
H   H12       1.0  0.00700  0.25000  0.37100  1.0000 0.0702462878
H   H13       1.0  0.97600  0.38500  0.54500  1.0000 0.0976793963
H   H14       1.0  0.02400  0.88500  0.95500  1.0000 0.0976793963
H   H15       1.0  0.02400  0.61500  0.45500  1.0000 0.0976793963
H   H16       1.0  0.97600  0.11500  0.04500  1.0000 0.0976793963
H   H17       1.0  0.75700  0.80900  0.73300  1.0000 0.0907708299
H   H18       1.0  0.24300  0.30900  0.76700  1.0000 0.0907708299
H   H19       1.0  0.24300  0.19100  0.26700  1.0000 0.0907708299
H   H20       1.0  0.75700  0.69100  0.23300  1.0000 0.0907708299
H   H21       1.0  0.28600  0.96600  0.76900  1.0000 0.0907708299
H   H22       1.0  0.71400  0.46600  0.73100  1.0000 0.0907708299
H   H23       1.0  0.71400  0.03400  0.23100  1.0000 0.0907708299
H   H24       1.0  0.28600  0.53400  0.26900  1.0000 0.0907708299
C   C1        1.0  0.72720  0.89450  0.47040  1.0000 0.4827355158
C   C2        1.0  0.27280  0.39450  0.02960  1.0000 0.4827355158
C   C3        1.0  0.27280  0.10550  0.52960  1.0000 0.4827355158
C   C4        1.0  0.72720  0.60550  0.97040  1.0000 0.4827355158
C   C5        1.0  0.62050  0.28070  0.55110  1.0000 0.4827355158
C   C6        1.0  0.37950  0.78070  0.94890  1.0000 0.4827355158
C   C7        1.0  0.37950  0.71930  0.44890  1.0000 0.4827355158
C   C8        1.0  0.62050  0.21930  0.05110  1.0000 0.4827355158
C   C9        1.0  0.99930  0.17550  0.83030  1.0000 0.4697042057
C   C10       1.0  0.00070  0.67550  0.66970  1.0000 0.4697042057
C   C11       1.0  0.00070  0.82450  0.16970  1.0000 0.4697042057
C   C12       1.0  0.99930  0.32450  0.33030  1.0000 0.4697042057
C   C13       1.0  0.97200  0.28960  0.54790  1.0000 0.462096763
C   C14       1.0  0.02800  0.78960  0.95210  1.0000 0.462096763
C   C15       1.0  0.02800  0.71040  0.45210  1.0000 0.462096763
C   C16       1.0  0.97200  0.21040  0.04790  1.0000 0.462096763
C   C17       1.0  0.73380  0.87410  0.68870  1.0000 0.4697042057
C   C18       1.0  0.26620  0.37410  0.81130  1.0000 0.4697042057
C   C19       1.0  0.26620  0.12590  0.31130  1.0000 0.4697042057
C   C20       1.0  0.73380  0.62590  0.18870  1.0000 0.4697042057
C   C21       1.0  0.19250  0.98730  0.71220  1.0000 0.4697042057
C   C22       1.0  0.80750  0.48730  0.78780  1.0000 0.4697042057
C   C23       1.0  0.80750  0.01270  0.28780  1.0000 0.4697042057
C   C24       1.0  0.19250  0.51270  0.21220  1.0000 0.4697042057
O   O1        1.0  0.83831  0.97350  0.52291  1.0000 -0.5460307401
O   O2        1.0  0.16169  0.47350  0.97709  1.0000 -0.5460307401
O   O3        1.0  0.16169  0.02650  0.47709  1.0000 -0.5460307401
O   O4        1.0  0.83831  0.52650  0.02291  1.0000 -0.5460307401
O   O5        1.0  0.61627  0.88730  0.46657  1.0000 -0.4971998941
O   O6        1.0  0.38373  0.38730  0.03343  1.0000 -0.4971998941
O   O7        1.0  0.38373  0.11270  0.53343  1.0000 -0.4971998941
O   O8        1.0  0.61627  0.61270  0.96657  1.0000 -0.4971998941
O   O9        1.0  0.66114  0.15730  0.55944  1.0000 -0.5310544323
O   O10       1.0  0.33886  0.65730  0.94056  1.0000 -0.5310544323
O   O11       1.0  0.33886  0.84270  0.44056  1.0000 -0.5310544323
O   O12       1.0  0.66114  0.34270  0.05944  1.0000 -0.5310544323
O   O13       1.0  0.70233  0.38060  0.59113  1.0000 -0.4971998941
O   O14       1.0  0.29767  0.88060  0.90887  1.0000 -0.4971998941
O   O15       1.0  0.29767  0.61940  0.40887  1.0000 -0.4971998941
O   O16       1.0  0.70233  0.11940  0.09113  1.0000 -0.4971998941
O   O17       1.0  0.93540  0.20270  0.74550  1.0000 -0.5415893347
O   O18       1.0  0.06460  0.70270  0.75450  1.0000 -0.5415893347
O   O19       1.0  0.06460  0.79730  0.25450  1.0000 -0.5415893347
O   O20       1.0  0.93540  0.29730  0.24550  1.0000 -0.5415893347
O   O21       1.0  0.05466  0.06480  0.86946  1.0000 -0.4971998941
O   O22       1.0  0.94534  0.56480  0.63054  1.0000 -0.4903771024
O   O23       1.0  0.94534  0.93520  0.13054  1.0000 -0.4903771024
O   O24       1.0  0.05466  0.43520  0.36946  1.0000 -0.4971998941
O   O25       1.0  0.95492  0.25930  0.60882  1.0000 -0.5415893347
O   O26       1.0  0.04508  0.75930  0.89118  1.0000 -0.5415893347
O   O27       1.0  0.04508  0.74070  0.39118  1.0000 -0.5415893347
O   O28       1.0  0.95492  0.24070  0.10882  1.0000 -0.5415893347
O   O29       1.0  0.98087  0.21000  0.49927  1.0000 -0.4903771024
O   O30       1.0  0.01913  0.71000  0.00073  1.0000 -0.4903771024
O   O31       1.0  0.01913  0.79000  0.50073  1.0000 -0.4903771024
O   O32       1.0  0.98087  0.29000  0.99927  1.0000 -0.4903771024
O   O33       1.0  0.84432  0.91890  0.69522  1.0000 -0.5415893347
O   O34       1.0  0.15568  0.41890  0.80478  1.0000 -0.5415893347
O   O35       1.0  0.15568  0.08110  0.30478  1.0000 -0.5415893347
O   O36       1.0  0.84432  0.58110  0.19522  1.0000 -0.5415893347
O   O37       1.0  0.60200  0.89910  0.62570  1.0000 -0.4843530607
O   O38       1.0  0.39800  0.39910  0.87430  1.0000 -0.4843530607
O   O39       1.0  0.39800  0.10090  0.37430  1.0000 -0.4843530607
O   O40       1.0  0.60200  0.60090  0.12570  1.0000 -0.4843530607
O   O41       1.0  0.08935  0.99730  0.71935  1.0000 -0.5310544323
O   O42       1.0  0.91065  0.49730  0.78065  1.0000 -0.5310544323
O   O43       1.0  0.91065  0.00270  0.28065  1.0000 -0.5310544323
O   O44       1.0  0.08935  0.50270  0.21935  1.0000 -0.5310544323
O   O45       1.0  0.18104  0.99970  0.64044  1.0000 -0.4903771024
O   O46       1.0  0.81896  0.49970  0.85956  1.0000 -0.4903771024
O   O47       1.0  0.81896  0.00030  0.35956  1.0000 -0.4903771024
O   O48       1.0  0.18104  0.50030  0.14044  1.0000 -0.4903771024
