# DDEC6 charges by PACMAN v1.1 (https://github.com/mtap-research/PACMAN-charge/)
data_2005[Cu][lvt]3[ASR]1
_chemical_formula_sum              "Cu4 H40 C68 N4 O16"
_cell_length_a       19.8482
_cell_length_b       19.8482
_cell_length_c       19.8482
_cell_angle_alpha    134.422
_cell_angle_beta     106.642
_cell_angle_gamma    90.7837

_symmetry_space_group_name_H-M    "P 1"
_symmetry_Int_Tables_number       1

loop_
  _symmetry_equiv_pos_as_xyz
  'x, y, z'

loop_
  _atom_site_type_symbol
  _atom_site_label
  _atom_site_symmetry_multiplicity
  _atom_site_fract_x
  _atom_site_fract_y
  _atom_site_fract_z
  _atom_site_occupancy
  _atom_site_charge
Cu  Cu1       1.0  0.46800  0.40500  0.93700  1.0000 0.8615587668
Cu  Cu2       1.0  0.03200  0.96900  0.93700  1.0000 0.8615587668
Cu  Cu3       1.0  0.96800  0.03100  0.06300  1.0000 0.8615587668
Cu  Cu4       1.0  0.53200  0.59500  0.06300  1.0000 0.8615587668
H   H1        1.0  0.50220  0.59100  0.83580  1.0000 0.128780348
H   H2        1.0  0.99780  0.83360  0.08880  1.0000 0.128780348
H   H3        1.0  0.25520  0.16640  0.16420  1.0000 0.128780348
H   H4        1.0  0.24480  0.40900  0.91120  1.0000 0.128780348
H   H5        1.0  0.49780  0.40900  0.16420  1.0000 0.128780348
H   H6        1.0  0.00220  0.16640  0.91120  1.0000 0.128780348
H   H7        1.0  0.74480  0.83360  0.83580  1.0000 0.128780348
H   H8        1.0  0.75520  0.59100  0.08880  1.0000 0.128780348
H   H9        1.0  0.47110  0.56310  0.69520  1.0000 0.128780348
H   H10       1.0  0.02890  0.72410  0.09200  1.0000 0.128780348
H   H11       1.0  0.36790  0.27590  0.30480  1.0000 0.128780348
H   H12       1.0  0.13210  0.43690  0.90800  1.0000 0.128780348
H   H13       1.0  0.52890  0.43690  0.30480  1.0000 0.128780348
H   H14       1.0  0.97110  0.27590  0.90800  1.0000 0.128780348
H   H15       1.0  0.63210  0.72410  0.69520  1.0000 0.128780348
H   H16       1.0  0.86790  0.56310  0.09200  1.0000 0.128780348
H   H17       1.0  0.37040  0.27580  0.50520  1.0000 0.128780348
H   H18       1.0  0.12960  0.63480  0.90540  1.0000 0.128780348
H   H19       1.0  0.27060  0.36520  0.49480  1.0000 0.128780348
H   H20       1.0  0.22940  0.72420  0.09460  1.0000 0.128780348
H   H21       1.0  0.62960  0.72420  0.49480  1.0000 0.128780348
H   H22       1.0  0.87040  0.36520  0.09460  1.0000 0.128780348
H   H23       1.0  0.72940  0.63480  0.50520  1.0000 0.128780348
H   H24       1.0  0.77060  0.27580  0.90540  1.0000 0.128780348
H   H25       1.0  0.40040  0.30490  0.64710  1.0000 0.128780348
H   H26       1.0  0.09960  0.74670  0.90450  1.0000 0.128780348
H   H27       1.0  0.15780  0.25330  0.35290  1.0000 0.128780348
H   H28       1.0  0.34220  0.69510  0.09550  1.0000 0.128780348
H   H29       1.0  0.59960  0.69510  0.35290  1.0000 0.128780348
H   H30       1.0  0.90040  0.25330  0.09550  1.0000 0.128780348
H   H31       1.0  0.84220  0.74670  0.64710  1.0000 0.128780348
H   H32       1.0  0.65780  0.30490  0.90450  1.0000 0.128780348
H   H33       1.0  0.37710  0.48800  0.44710  1.0000 0.128780348
H   H34       1.0  0.12290  0.57000  0.11090  1.0000 0.128780348
H   H35       1.0  0.54090  0.43000  0.55290  1.0000 0.128780348
H   H36       1.0  0.95910  0.51200  0.88910  1.0000 0.128780348
H   H37       1.0  0.62290  0.51200  0.55290  1.0000 0.128780348
H   H38       1.0  0.87710  0.43000  0.88910  1.0000 0.128780348
H   H39       1.0  0.45910  0.57000  0.44710  1.0000 0.128780348
H   H40       1.0  0.04090  0.48800  0.11090  1.0000 0.128780348
C   C1        1.0  0.47163  0.46935  0.84672  1.0000 0.5756717043
C   C2        1.0  0.02837  0.87509  0.99772  1.0000 0.5756717043
C   C3        1.0  0.12263  0.12491  0.15328  1.0000 0.5756717043
C   C4        1.0  0.37737  0.53065  0.00228  1.0000 0.5756717043
C   C5        1.0  0.52837  0.53065  0.15328  1.0000 0.5756717043
C   C6        1.0  0.97163  0.12491  0.00228  1.0000 0.5756717043
C   C7        1.0  0.87737  0.87509  0.84672  1.0000 0.5756717043
C   C8        1.0  0.62263  0.46935  0.99772  1.0000 0.5756717043
C   C9        1.0  0.45375  0.45187  0.75666  1.0000 -0.0612649222
C   C10       1.0  0.04625  0.80291  0.99812  1.0000 -0.0612649222
C   C11       1.0  0.19521  0.19709  0.24334  1.0000 -0.0612649222
C   C12       1.0  0.30479  0.54813  0.00188  1.0000 -0.0612649222
C   C13       1.0  0.54625  0.54813  0.24334  1.0000 -0.0612649222
C   C14       1.0  0.95375  0.19709  0.00188  1.0000 -0.0612649222
C   C15       1.0  0.80479  0.80291  0.75666  1.0000 -0.0612649222
C   C16       1.0  0.69521  0.45187  0.99812  1.0000 -0.0612649222
C   C17       1.0  0.47510  0.52749  0.76941  1.0000 -0.0721427735
C   C18       1.0  0.02490  0.79431  0.05239  1.0000 -0.0721427735
C   C19       1.0  0.25808  0.20569  0.23059  1.0000 -0.0721427735
C   C20       1.0  0.24192  0.47251  0.94761  1.0000 -0.0721427735
C   C21       1.0  0.52490  0.47251  0.23059  1.0000 -0.0721427735
C   C22       1.0  0.97510  0.20569  0.94761  1.0000 -0.0721427735
C   C23       1.0  0.74192  0.79431  0.76941  1.0000 -0.0721427735
C   C24       1.0  0.75808  0.52749  0.05239  1.0000 -0.0721427735
C   C25       1.0  0.45697  0.51073  0.68504  1.0000 -0.1987356126
C   C26       1.0  0.04303  0.72807  0.05376  1.0000 -0.1987356126
C   C27       1.0  0.32569  0.27193  0.31496  1.0000 -0.1987356126
C   C28       1.0  0.17431  0.48927  0.94624  1.0000 -0.1987356126
C   C29       1.0  0.54303  0.48927  0.31496  1.0000 -0.1987356126
C   C30       1.0  0.95697  0.27193  0.94624  1.0000 -0.1987356126
C   C31       1.0  0.67431  0.72807  0.68504  1.0000 -0.1987356126
C   C32       1.0  0.82569  0.51073  0.05376  1.0000 -0.1987356126
C   C33       1.0  0.41808  0.41643  0.58597  1.0000 0.1676407472
C   C34       1.0  0.08192  0.66789  0.99835  1.0000 0.1676407472
C   C35       1.0  0.33046  0.33211  0.41403  1.0000 0.1676407472
C   C36       1.0  0.16954  0.58357  0.00165  1.0000 0.1676407472
C   C37       1.0  0.58192  0.58357  0.41403  1.0000 0.1676407472
C   C38       1.0  0.91808  0.33211  0.00165  1.0000 0.1676407472
C   C39       1.0  0.66954  0.66789  0.58597  1.0000 0.1676407472
C   C40       1.0  0.83046  0.41643  0.99835  1.0000 0.1676407472
C   C41       1.0  0.39678  0.33953  0.57185  1.0000 -0.1987356126
C   C42       1.0  0.10322  0.67507  0.94275  1.0000 -0.1987356126
C   C43       1.0  0.26768  0.32493  0.42815  1.0000 -0.1987356126
C   C44       1.0  0.23232  0.66047  0.05725  1.0000 -0.1987356126
C   C45       1.0  0.60322  0.66047  0.42815  1.0000 -0.1987356126
C   C46       1.0  0.89678  0.32493  0.05725  1.0000 -0.1987356126
C   C47       1.0  0.73232  0.67507  0.57185  1.0000 -0.1987356126
C   C48       1.0  0.76768  0.33953  0.94275  1.0000 -0.1987356126
C   C49       1.0  0.41470  0.35703  0.65703  1.0000 -0.0721427735
C   C50       1.0  0.08530  0.74233  0.94233  1.0000 -0.0721427735
C   C51       1.0  0.20000  0.25767  0.34297  1.0000 -0.0721427735
C   C52       1.0  0.30000  0.64297  0.05767  1.0000 -0.0721427735
C   C53       1.0  0.58530  0.64297  0.34297  1.0000 -0.0721427735
C   C54       1.0  0.91470  0.25767  0.05767  1.0000 -0.0721427735
C   C55       1.0  0.80000  0.74233  0.65703  1.0000 -0.0721427735
C   C56       1.0  0.70000  0.35703  0.94233  1.0000 -0.0721427735
C   C57       1.0  0.44996  0.44996  0.50000  1.0000 0.1232047991
C   C58       1.0  0.05004  0.55004  0.00000  1.0000 0.1232047991
C   C59       1.0  0.55004  0.55004  0.50000  1.0000 0.1232047991
C   C60       1.0  0.94996  0.44996  0.00000  1.0000 0.1232047991
C   C61       1.0  0.42681  0.49262  0.46859  1.0000 -0.1639137606
C   C62       1.0  0.07319  0.54178  0.06581  1.0000 -0.1639137606
C   C63       1.0  0.52403  0.45822  0.53141  1.0000 -0.1639137606
C   C64       1.0  0.97597  0.50738  0.93419  1.0000 -0.1639137606
C   C65       1.0  0.57319  0.50738  0.53141  1.0000 -0.1639137606
C   C66       1.0  0.92681  0.45822  0.93419  1.0000 -0.1639137606
C   C67       1.0  0.47597  0.54178  0.46859  1.0000 -0.1639137606
C   C68       1.0  0.02403  0.49262  0.06581  1.0000 -0.1639137606
N   N1        1.0  0.39918  0.39918  0.50000  1.0000 -0.1718726663
N   N2        1.0  0.10082  0.60082  0.00000  1.0000 -0.1718726663
N   N3        1.0  0.60082  0.60082  0.50000  1.0000 -0.1718726663
N   N4        1.0  0.89918  0.39918  0.00000  1.0000 -0.1718726663
O   O1        1.0  0.45108  0.39667  0.82897  1.0000 -0.5108747466
O   O2        1.0  0.04892  0.87789  0.94559  1.0000 -0.5108747466
O   O3        1.0  0.06770  0.12211  0.17103  1.0000 -0.5108747466
O   O4        1.0  0.43230  0.60333  0.05441  1.0000 -0.5108747466
O   O5        1.0  0.54892  0.60333  0.17103  1.0000 -0.5108747466
O   O6        1.0  0.95108  0.12211  0.05441  1.0000 -0.5108747466
O   O7        1.0  0.93230  0.87789  0.82897  1.0000 -0.5108747466
O   O8        1.0  0.56770  0.39667  0.94559  1.0000 -0.5108747466
O   O9        1.0  0.50581  0.55712  0.93529  1.0000 -0.5158494397
O   O10       1.0  0.99419  0.92948  0.05131  1.0000 -0.5158494397
O   O11       1.0  0.12183  0.07052  0.06471  1.0000 -0.5158494397
O   O12       1.0  0.37817  0.44288  0.94869  1.0000 -0.5158494397
O   O13       1.0  0.49419  0.44288  0.06471  1.0000 -0.5158494397
O   O14       1.0  0.00581  0.07052  0.94869  1.0000 -0.5158494397
O   O15       1.0  0.87817  0.92948  0.93529  1.0000 -0.5158494397
O   O16       1.0  0.62183  0.55712  0.05131  1.0000 -0.5158494397
