# DDEC6 charges by PACMAN v1.1 (https://github.com/mtap-research/PACMAN-charge/)
data_2005[Tb][nan]3[ASR]3
_chemical_formula_sum              "Tb4 H48 C84 O24"
_cell_length_a       15.2994
_cell_length_b       15.2994
_cell_length_c       18.4904
_cell_angle_alpha    75.7184
_cell_angle_beta     104.282
_cell_angle_gamma    111.868

_symmetry_space_group_name_H-M    "P 1"
_symmetry_Int_Tables_number       1

loop_
  _symmetry_equiv_pos_as_xyz
  'x, y, z'

loop_
  _atom_site_type_symbol
  _atom_site_label
  _atom_site_symmetry_multiplicity
  _atom_site_fract_x
  _atom_site_fract_y
  _atom_site_fract_z
  _atom_site_occupancy
  _atom_site_charge
Tb  Tb1       1.0  0.04354  0.03858  0.89596  1.0000 2.1138804868
Tb  Tb2       1.0  0.03858  0.04354  0.60404  1.0000 2.1158209756
Tb  Tb3       1.0  0.95646  0.96142  0.10404  1.0000 2.1158209756
Tb  Tb4       1.0  0.96142  0.95646  0.39596  1.0000 2.1158209756
H   H1        1.0  0.71310  0.98430  0.78470  1.0000 0.1306336909
H   H2        1.0  0.98430  0.71310  0.71530  1.0000 0.1306336909
H   H3        1.0  0.28690  0.01570  0.21530  1.0000 0.1306336909
H   H4        1.0  0.01570  0.28690  0.28470  1.0000 0.1306336909
H   H5        1.0  0.55780  0.98080  0.75500  1.0000 0.1106848864
H   H6        1.0  0.98080  0.55780  0.74500  1.0000 0.1106848864
H   H7        1.0  0.44220  0.01920  0.24500  1.0000 0.1106848864
H   H8        1.0  0.01920  0.44220  0.25500  1.0000 0.1106848864
H   H9        1.0  0.55590  0.96510  0.97270  1.0000 0.1106848864
H   H10       1.0  0.96510  0.55590  0.52730  1.0000 0.1106848864
H   H11       1.0  0.44410  0.03490  0.02730  1.0000 0.1106848864
H   H12       1.0  0.03490  0.44410  0.47270  1.0000 0.1106848864
H   H13       1.0  0.71050  0.96930  0.00240  1.0000 0.1193480159
H   H14       1.0  0.96930  0.71050  0.49760  1.0000 0.1193480159
H   H15       1.0  0.28950  0.03070  0.99760  1.0000 0.1193480159
H   H16       1.0  0.03070  0.28950  0.50240  1.0000 0.1193480159
H   H17       1.0  0.92050  0.65050  0.09290  1.0000 0.1106848864
H   H18       1.0  0.65050  0.92050  0.40710  1.0000 0.1106848864
H   H19       1.0  0.07950  0.34950  0.90710  1.0000 0.1106848864
H   H20       1.0  0.34950  0.07950  0.59290  1.0000 0.1106848864
H   H21       1.0  0.92980  0.50520  0.09090  1.0000 0.1043124536
H   H22       1.0  0.50520  0.92980  0.40910  1.0000 0.1043124536
H   H23       1.0  0.07020  0.49480  0.90910  1.0000 0.1043124536
H   H24       1.0  0.49480  0.07020  0.59090  1.0000 0.1043124536
H   H25       1.0  0.04740  0.61860  0.90400  1.0000 0.1043124536
H   H26       1.0  0.61860  0.04740  0.59600  1.0000 0.1043124536
H   H27       1.0  0.95260  0.38140  0.09600  1.0000 0.1043124536
H   H28       1.0  0.38140  0.95260  0.40400  1.0000 0.1043124536
H   H29       1.0  0.02970  0.76110  0.90320  1.0000 0.1306336909
H   H30       1.0  0.76110  0.02970  0.59680  1.0000 0.1306336909
H   H31       1.0  0.97030  0.23890  0.09680  1.0000 0.1306336909
H   H32       1.0  0.23890  0.97030  0.40320  1.0000 0.1306336909
H   H33       1.0  0.23930  0.89370  0.90830  1.0000 0.1193480159
H   H34       1.0  0.89370  0.23930  0.59170  1.0000 0.1193480159
H   H35       1.0  0.76070  0.10630  0.09170  1.0000 0.1193480159
H   H36       1.0  0.10630  0.76070  0.40830  1.0000 0.1193480159
H   H37       1.0  0.39290  0.88570  0.93720  1.0000 0.1106848864
H   H38       1.0  0.88570  0.39290  0.56280  1.0000 0.1106848864
H   H39       1.0  0.60710  0.11430  0.06280  1.0000 0.1106848864
H   H40       1.0  0.11430  0.60710  0.43720  1.0000 0.1106848864
H   H41       1.0  0.44530  0.04630  0.73590  1.0000 0.1106848864
H   H42       1.0  0.04630  0.44530  0.76410  1.0000 0.1106848864
H   H43       1.0  0.55470  0.95370  0.26410  1.0000 0.1106848864
H   H44       1.0  0.95370  0.55470  0.23590  1.0000 0.1043124536
H   H45       1.0  0.29430  0.05710  0.70750  1.0000 0.1193480159
H   H46       1.0  0.05710  0.29430  0.79250  1.0000 0.1193480159
H   H47       1.0  0.70570  0.94290  0.29250  1.0000 0.1193480159
H   H48       1.0  0.94290  0.70570  0.20750  1.0000 0.1193480159
C   C1        1.0  0.83330  0.99170  0.91550  1.0000 0.6349813655
C   C2        1.0  0.99170  0.83330  0.58450  1.0000 0.6349813655
C   C3        1.0  0.16670  0.00830  0.08450  1.0000 0.6349813655
C   C4        1.0  0.00830  0.16670  0.41550  1.0000 0.6354200557
C   C5        1.0  0.73040  0.98280  0.89690  1.0000 -0.0338574619
C   C6        1.0  0.98280  0.73040  0.60310  1.0000 -0.0338574619
C   C7        1.0  0.26960  0.01720  0.10310  1.0000 -0.0338574619
C   C8        1.0  0.01720  0.26960  0.39690  1.0000 -0.0338574619
C   C9        1.0  0.68190  0.98210  0.82270  1.0000 -0.0909551121
C   C10       1.0  0.98210  0.68190  0.67730  1.0000 -0.0909551121
C   C11       1.0  0.31810  0.01790  0.17730  1.0000 -0.0909551121
C   C12       1.0  0.01790  0.31810  0.32270  1.0000 -0.0909551121
C   C13       1.0  0.58820  0.97840  0.80530  1.0000 -0.1569211449
C   C14       1.0  0.97840  0.58820  0.69470  1.0000 -0.1569211449
C   C15       1.0  0.41180  0.02160  0.19470  1.0000 -0.1569211449
C   C16       1.0  0.02160  0.41180  0.30530  1.0000 -0.1569211449
C   C17       1.0  0.53750  0.97110  0.85990  1.0000 0.0754041128
C   C18       1.0  0.97110  0.53750  0.64010  1.0000 0.0719302944
C   C19       1.0  0.46250  0.02890  0.14010  1.0000 0.0719302944
C   C20       1.0  0.02890  0.46250  0.35990  1.0000 0.0754041128
C   C21       1.0  0.58720  0.96920  0.93430  1.0000 -0.1509704658
C   C22       1.0  0.96920  0.58720  0.56570  1.0000 -0.1509704658
C   C23       1.0  0.41280  0.03080  0.06570  1.0000 -0.1509704658
C   C24       1.0  0.03080  0.41280  0.43430  1.0000 -0.1509704658
C   C25       1.0  0.68040  0.97320  0.95210  1.0000 -0.0909551121
C   C26       1.0  0.97320  0.68040  0.54790  1.0000 -0.0909551121
C   C27       1.0  0.31960  0.02680  0.04790  1.0000 -0.0909551121
C   C28       1.0  0.02680  0.31960  0.45210  1.0000 -0.0909551121
C   C29       1.0  0.96853  0.81787  0.99970  1.0000 0.6518355325
C   C30       1.0  0.81787  0.96853  0.50030  1.0000 0.6518355325
C   C31       1.0  0.03147  0.18213  0.00030  1.0000 0.6518355325
C   C32       1.0  0.18213  0.03147  0.49970  1.0000 0.6518355325
C   C33       1.0  0.97650  0.72370  0.99900  1.0000 -0.0364409177
C   C34       1.0  0.72370  0.97650  0.50100  1.0000 -0.0364409177
C   C35       1.0  0.02350  0.27630  0.00100  1.0000 -0.0364409177
C   C36       1.0  0.27630  0.02350  0.49900  1.0000 -0.0364409177
C   C37       1.0  0.94620  0.64440  0.05440  1.0000 -0.0991257973
C   C38       1.0  0.64440  0.94620  0.44560  1.0000 -0.0991257973
C   C39       1.0  0.05380  0.35560  0.94560  1.0000 -0.0991257973
C   C40       1.0  0.35560  0.05380  0.55440  1.0000 -0.0991257973
C   C41       1.0  0.95300  0.55720  0.05410  1.0000 -0.1569211449
C   C42       1.0  0.55720  0.95300  0.44590  1.0000 -0.1569211449
C   C43       1.0  0.04700  0.44280  0.94590  1.0000 -0.1569211449
C   C44       1.0  0.44280  0.04700  0.55410  1.0000 -0.1569211449
C   C45       1.0  0.99420  0.54620  0.99970  1.0000 0.0754041128
C   C46       1.0  0.54620  0.99420  0.50030  1.0000 0.0754041128
C   C47       1.0  0.00580  0.45380  0.00030  1.0000 0.0754041128
C   C48       1.0  0.45380  0.00580  0.49970  1.0000 0.0754041128
C   C49       1.0  0.02190  0.62450  0.94260  1.0000 -0.1569211449
C   C50       1.0  0.62450  0.02190  0.55740  1.0000 -0.1569211449
C   C51       1.0  0.97810  0.37550  0.05740  1.0000 -0.1569211449
C   C52       1.0  0.37550  0.97810  0.44260  1.0000 -0.1569211449
C   C53       1.0  0.01190  0.71050  0.94260  1.0000 -0.0909551121
C   C54       1.0  0.71050  0.01190  0.55740  1.0000 -0.0909551121
C   C55       1.0  0.98810  0.28950  0.05740  1.0000 -0.0909551121
C   C56       1.0  0.28950  0.98810  0.44260  1.0000 -0.0909551121
C   C57       1.0  0.15286  0.98534  0.78720  1.0000 0.6593623623
C   C58       1.0  0.98534  0.15286  0.71280  1.0000 0.6593623623
C   C59       1.0  0.84714  0.01466  0.21280  1.0000 0.6593623623
C   C60       1.0  0.01466  0.84714  0.28720  1.0000 0.6593623623
C   C61       1.0  0.24970  0.97610  0.80460  1.0000 -0.0502410898
C   C62       1.0  0.97610  0.24970  0.69540  1.0000 -0.0502410898
C   C63       1.0  0.75030  0.02390  0.19540  1.0000 -0.0502410898
C   C64       1.0  0.02390  0.75030  0.30460  1.0000 -0.0502410898
C   C65       1.0  0.28070  0.92510  0.87360  1.0000 -0.0991257973
C   C66       1.0  0.92510  0.28070  0.62640  1.0000 -0.0991257973
C   C67       1.0  0.71930  0.07490  0.12640  1.0000 -0.0991257973
C   C68       1.0  0.07490  0.71930  0.37360  1.0000 -0.0991257973
C   C69       1.0  0.37350  0.92050  0.89120  1.0000 -0.1509704658
C   C70       1.0  0.92050  0.37350  0.60880  1.0000 -0.1569211449
C   C71       1.0  0.62650  0.07950  0.10880  1.0000 -0.1569211449
C   C72       1.0  0.07950  0.62650  0.39120  1.0000 -0.1569211449
C   C73       1.0  0.43630  0.96710  0.84120  1.0000 0.0719302944
C   C74       1.0  0.96710  0.43630  0.65880  1.0000 0.0719302944
C   C75       1.0  0.56370  0.03290  0.15880  1.0000 0.0719302944
C   C76       1.0  0.03290  0.56370  0.34120  1.0000 0.0719302944
C   C77       1.0  0.40450  0.01670  0.77110  1.0000 -0.1509704658
C   C78       1.0  0.01670  0.40450  0.72890  1.0000 -0.1509704658
C   C79       1.0  0.59550  0.98330  0.22890  1.0000 -0.1509704658
C   C80       1.0  0.98330  0.59550  0.27110  1.0000 -0.1509704658
C   C81       1.0  0.31340  0.02220  0.75360  1.0000 -0.0909551121
C   C82       1.0  0.02220  0.31340  0.74640  1.0000 -0.0909551121
C   C83       1.0  0.68660  0.97780  0.24640  1.0000 -0.0909551121
C   C84       1.0  0.97780  0.68660  0.25360  1.0000 -0.0909551121
O   O1        1.0  0.87701  0.00939  0.86240  1.0000 -0.6070635602
O   O2        1.0  0.00939  0.87701  0.63760  1.0000 -0.6070635602
O   O3        1.0  0.12299  0.99061  0.13760  1.0000 -0.6070635602
O   O4        1.0  0.99061  0.12299  0.36240  1.0000 -0.6070635602
O   O5        1.0  0.87534  0.98886  0.98300  1.0000 -0.7260247603
O   O6        1.0  0.98886  0.87534  0.51700  1.0000 -0.7260247603
O   O7        1.0  0.12466  0.01114  0.01700  1.0000 -0.7260247603
O   O8        1.0  0.01114  0.12466  0.48300  1.0000 -0.7260247603
O   O9        1.0  0.97522  0.87738  0.94020  1.0000 -0.6537910983
O   O10       1.0  0.87738  0.97522  0.55980  1.0000 -0.6537910983
O   O11       1.0  0.02478  0.12262  0.05980  1.0000 -0.6537910983
O   O12       1.0  0.12262  0.02478  0.44020  1.0000 -0.6537910983
O   O13       1.0  0.95643  0.83057  0.06070  1.0000 -0.6833185986
O   O14       1.0  0.83057  0.95643  0.43930  1.0000 -0.6833185986
O   O15       1.0  0.04357  0.16943  0.93930  1.0000 -0.6833185986
O   O16       1.0  0.16943  0.04357  0.56070  1.0000 -0.6833185986
O   O17       1.0  0.10446  0.95934  0.84040  1.0000 -0.6907233432
O   O18       1.0  0.95934  0.10446  0.65960  1.0000 -0.6907233432
O   O19       1.0  0.89554  0.04066  0.15960  1.0000 -0.6907233432
O   O20       1.0  0.04066  0.89554  0.34040  1.0000 -0.6907233432
O   O21       1.0  0.12721  0.02279  0.72090  1.0000 -0.6907233432
O   O22       1.0  0.02279  0.12721  0.77910  1.0000 -0.6907233432
O   O23       1.0  0.87279  0.97721  0.27910  1.0000 -0.6907233432
O   O24       1.0  0.97721  0.87279  0.22090  1.0000 -0.6907233432
