# DDEC6 charges by PACMAN v1.1 (https://github.com/mtap-research/PACMAN-charge/)
data_2005[Co][dia]3[ASR]6
_chemical_formula_sum              "Co12 H24 C24 O48"
_cell_length_a       11.3457
_cell_length_b       10.0117
_cell_length_c       18.4474
_cell_angle_alpha    90
_cell_angle_beta     126.569
_cell_angle_gamma    90

_symmetry_space_group_name_H-M    "P 1"
_symmetry_Int_Tables_number       1

loop_
  _symmetry_equiv_pos_as_xyz
  'x, y, z'

loop_
  _atom_site_type_symbol
  _atom_site_label
  _atom_site_symmetry_multiplicity
  _atom_site_fract_x
  _atom_site_fract_y
  _atom_site_fract_z
  _atom_site_occupancy
  _atom_site_charge
Co  Co1       1.0  0.00000  0.50000  0.50000  1.0000 0.9798601365
Co  Co2       1.0  0.00000  0.00000  0.00000  1.0000 0.9798601365
Co  Co3       1.0  0.50000  0.50000  0.50000  1.0000 0.9908374345
Co  Co4       1.0  0.50000  0.00000  0.00000  1.0000 0.9908374345
Co  Co5       1.0  0.87917  0.42763  0.63408  1.0000 0.9490407005
Co  Co6       1.0  0.12083  0.92763  0.86592  1.0000 0.9490407005
Co  Co7       1.0  0.12083  0.57237  0.36592  1.0000 0.9490407005
Co  Co8       1.0  0.87917  0.07237  0.13408  1.0000 0.9490407005
Co  Co9       1.0  0.06517  0.62263  0.80462  1.0000 0.9448177611
Co  Co10      1.0  0.93483  0.12263  0.69538  1.0000 0.9490407005
Co  Co11      1.0  0.93483  0.37737  0.19538  1.0000 0.9490407005
Co  Co12      1.0  0.06517  0.87737  0.30462  1.0000 0.9448177611
H   H1        1.0  0.73040  0.64910  0.42690  1.0000 0.1048609709
H   H2        1.0  0.26960  0.14910  0.07310  1.0000 0.109002082
H   H3        1.0  0.26960  0.35090  0.57310  1.0000 0.1048609709
H   H4        1.0  0.73040  0.85090  0.92690  1.0000 0.1048609709
H   H5        1.0  0.27940  0.55230  0.75660  1.0000 0.109002082
H   H6        1.0  0.72060  0.05230  0.74340  1.0000 0.109002082
H   H7        1.0  0.72060  0.44770  0.24340  1.0000 0.109002082
H   H8        1.0  0.27940  0.94770  0.25660  1.0000 0.109002082
H   H9        1.0  0.99210  0.12860  0.55110  1.0000 0.109002082
H   H10       1.0  0.00790  0.62860  0.94890  1.0000 0.109002082
H   H11       1.0  0.00790  0.87140  0.44890  1.0000 0.109002082
H   H12       1.0  0.99210  0.37140  0.05110  1.0000 0.109002082
H   H13       1.0  0.74850  0.72080  0.71250  1.0000 0.109002082
H   H14       1.0  0.25150  0.22080  0.78750  1.0000 0.109002082
H   H15       1.0  0.25150  0.27920  0.28750  1.0000 0.109002082
H   H16       1.0  0.74850  0.77920  0.21250  1.0000 0.109002082
H   H17       1.0  0.52890  0.21700  0.53170  1.0000 0.1166285967
H   H18       1.0  0.47110  0.71700  0.96830  1.0000 0.1166285967
H   H19       1.0  0.47110  0.78300  0.46830  1.0000 0.1166285967
H   H20       1.0  0.52890  0.28300  0.03170  1.0000 0.1166285967
H   H21       1.0  0.02350  0.27480  0.87010  1.0000 0.109002082
H   H22       1.0  0.97650  0.77480  0.62990  1.0000 0.109002082
H   H23       1.0  0.97650  0.72520  0.12990  1.0000 0.109002082
H   H24       1.0  0.02350  0.22520  0.37010  1.0000 0.109002082
C   C1        1.0  0.72410  0.59500  0.46550  1.0000 0.4888615554
C   C2        1.0  0.27590  0.09500  0.03450  1.0000 0.4888615554
C   C3        1.0  0.27590  0.40500  0.53450  1.0000 0.4888615554
C   C4        1.0  0.72410  0.90500  0.96550  1.0000 0.4888615554
C   C5        1.0  0.18750  0.52790  0.70540  1.0000 0.4706864396
C   C6        1.0  0.81250  0.02790  0.79460  1.0000 0.4706864396
C   C7        1.0  0.81250  0.47210  0.29460  1.0000 0.4706864396
C   C8        1.0  0.18750  0.97210  0.20540  1.0000 0.4706864396
C   C9        1.0  0.97980  0.21910  0.55610  1.0000 0.4706864396
C   C10       1.0  0.02020  0.71910  0.94390  1.0000 0.4706864396
C   C11       1.0  0.02020  0.78090  0.44390  1.0000 0.4706864396
C   C12       1.0  0.97980  0.28090  0.05610  1.0000 0.4706864396
C   C13       1.0  0.73250  0.65120  0.67420  1.0000 0.4706864396
C   C14       1.0  0.26750  0.15120  0.82580  1.0000 0.4706864396
C   C15       1.0  0.26750  0.34880  0.32580  1.0000 0.4706864396
C   C16       1.0  0.73250  0.84880  0.17420  1.0000 0.4706864396
C   C17       1.0  0.62940  0.23350  0.56700  1.0000 0.4888615554
C   C18       1.0  0.37060  0.73350  0.93300  1.0000 0.4888615554
C   C19       1.0  0.37060  0.76650  0.43300  1.0000 0.4888615554
C   C20       1.0  0.62940  0.26650  0.06700  1.0000 0.4888615554
C   C21       1.0  0.01020  0.34260  0.83140  1.0000 0.4706864396
C   C22       1.0  0.98980  0.84260  0.66860  1.0000 0.4706864396
C   C23       1.0  0.98980  0.65740  0.16860  1.0000 0.4706864396
C   C24       1.0  0.01020  0.15740  0.33140  1.0000 0.4706864396
O   O1        1.0  0.83720  0.52650  0.52290  1.0000 -0.5646216477
O   O2        1.0  0.16280  0.02650  0.97710  1.0000 -0.5646216477
O   O3        1.0  0.16280  0.47350  0.47710  1.0000 -0.568454733
O   O4        1.0  0.83720  0.97350  0.02290  1.0000 -0.568454733
O   O5        1.0  0.60790  0.59670  0.45610  1.0000 -0.5073487026
O   O6        1.0  0.39210  0.09670  0.04390  1.0000 -0.4985434546
O   O7        1.0  0.39210  0.40330  0.54390  1.0000 -0.5073487026
O   O8        1.0  0.60790  0.90330  0.95610  1.0000 -0.5073487026
O   O9        1.0  0.17750  0.50990  0.63620  1.0000 -0.4985434546
O   O10       1.0  0.82250  0.00990  0.86380  1.0000 -0.4985434546
O   O11       1.0  0.82250  0.49010  0.36380  1.0000 -0.4985434546
O   O12       1.0  0.17750  0.99010  0.13620  1.0000 -0.4985434546
O   O13       1.0  0.08620  0.51670  0.71460  1.0000 -0.568454733
O   O14       1.0  0.91380  0.01670  0.78540  1.0000 -0.568454733
O   O15       1.0  0.91380  0.48330  0.28540  1.0000 -0.568454733
O   O16       1.0  0.08620  0.98330  0.21460  1.0000 -0.568454733
O   O17       1.0  0.98800  0.29490  0.50670  1.0000 -0.5073487026
O   O18       1.0  0.01200  0.79490  0.99330  1.0000 -0.5073487026
O   O19       1.0  0.01200  0.70510  0.49330  1.0000 -0.5073487026
O   O20       1.0  0.98800  0.20510  0.00670  1.0000 -0.5073487026
O   O21       1.0  0.95640  0.25100  0.61320  1.0000 -0.568454733
O   O22       1.0  0.04360  0.75100  0.88680  1.0000 -0.568454733
O   O23       1.0  0.04360  0.74900  0.38680  1.0000 -0.568454733
O   O24       1.0  0.95640  0.24900  0.11320  1.0000 -0.568454733
O   O25       1.0  0.60420  0.62770  0.61080  1.0000 -0.4985434546
O   O26       1.0  0.39580  0.12770  0.88920  1.0000 -0.4985434546
O   O27       1.0  0.39580  0.37230  0.38920  1.0000 -0.4985434546
O   O28       1.0  0.60420  0.87230  0.11080  1.0000 -0.4985434546
O   O29       1.0  0.84480  0.59000  0.69240  1.0000 -0.568454733
O   O30       1.0  0.15520  0.09000  0.80760  1.0000 -0.568454733
O   O31       1.0  0.15520  0.41000  0.30760  1.0000 -0.568454733
O   O32       1.0  0.84480  0.91000  0.19240  1.0000 -0.568454733
O   O33       1.0  0.66720  0.35250  0.56880  1.0000 -0.5532937253
O   O34       1.0  0.33280  0.85250  0.93120  1.0000 -0.5532937253
O   O35       1.0  0.33280  0.64750  0.43120  1.0000 -0.5532937253
O   O36       1.0  0.66720  0.14750  0.06880  1.0000 -0.5532937253
O   O37       1.0  0.71020  0.13620  0.60660  1.0000 -0.4985434546
O   O38       1.0  0.28980  0.63620  0.89340  1.0000 -0.4985434546
O   O39       1.0  0.28980  0.86380  0.39340  1.0000 -0.4985434546
O   O40       1.0  0.71020  0.36380  0.10660  1.0000 -0.4985434546
O   O41       1.0  0.94370  0.31160  0.74880  1.0000 -0.568454733
O   O42       1.0  0.05630  0.81160  0.75120  1.0000 -0.568454733
O   O43       1.0  0.05630  0.68840  0.25120  1.0000 -0.568454733
O   O44       1.0  0.94370  0.18840  0.24880  1.0000 -0.568454733
O   O45       1.0  0.05890  0.45400  0.86530  1.0000 -0.4985434546
O   O46       1.0  0.94110  0.95400  0.63470  1.0000 -0.4985434546
O   O47       1.0  0.94110  0.54600  0.13470  1.0000 -0.4985434546
O   O48       1.0  0.05890  0.04600  0.36530  1.0000 -0.4985434546
