# DDEC6 charges by PACMAN v1.1 (https://github.com/mtap-research/PACMAN-charge/)
data_2005[Fe][bpq]3[ASR]1
_chemical_formula_sum              "Fe4 H20 C32 O20"
_cell_length_a       19.2341
_cell_length_b       11.073
_cell_length_c       6.889
_cell_angle_alpha    90
_cell_angle_beta     71.69
_cell_angle_gamma    90

_symmetry_space_group_name_H-M    "P 1"
_symmetry_Int_Tables_number       1

loop_
  _symmetry_equiv_pos_as_xyz
  'x, y, z'

loop_
  _atom_site_type_symbol
  _atom_site_label
  _atom_site_symmetry_multiplicity
  _atom_site_fract_x
  _atom_site_fract_y
  _atom_site_fract_z
  _atom_site_occupancy
  _atom_site_charge
Fe  Fe1       1.0  0.00000  0.00000  0.00000  1.0000 1.3430688787
Fe  Fe2       1.0  0.50000  0.50000  0.00000  1.0000 1.3486263363
Fe  Fe3       1.0  0.00000  0.00000  0.50000  1.0000 1.3486263363
Fe  Fe4       1.0  0.50000  0.50000  0.50000  1.0000 1.3486263363
H   H1        1.0  0.20880  0.19190  0.33740  1.0000 0.1301500011
H   H2        1.0  0.18070  0.21510  0.78760  1.0000 0.1301500011
H   H3        1.0  0.50000  0.67211  0.75000  1.0000 0.4178961698
H   H4        1.0  0.70880  0.69190  0.33740  1.0000 0.1301500011
H   H5        1.0  0.68070  0.71510  0.78760  1.0000 0.1301500011
H   H6        1.0  0.00000  0.17211  0.75000  1.0000 0.4178961698
H   H7        1.0  0.79120  0.19190  0.16260  1.0000 0.1301500011
H   H8        1.0  0.81930  0.21510  0.71240  1.0000 0.1301500011
H   H9        1.0  0.29120  0.69190  0.16260  1.0000 0.1301500011
H   H10       1.0  0.31930  0.71510  0.71240  1.0000 0.1301500011
H   H11       1.0  0.79120  0.80810  0.66260  1.0000 0.1301500011
H   H12       1.0  0.81930  0.78490  0.21240  1.0000 0.1301500011
H   H13       1.0  0.50000  0.32789  0.25000  1.0000 0.4178961698
H   H14       1.0  0.29120  0.30810  0.66260  1.0000 0.1301500011
H   H15       1.0  0.31930  0.28490  0.21240  1.0000 0.1301500011
H   H16       1.0  0.00000  0.82789  0.25000  1.0000 0.4178961698
H   H17       1.0  0.20880  0.80810  0.83740  1.0000 0.1301500011
H   H18       1.0  0.18070  0.78490  0.28760  1.0000 0.1301500011
H   H19       1.0  0.70880  0.30810  0.83740  1.0000 0.1301500011
H   H20       1.0  0.68070  0.28490  0.28760  1.0000 0.1301500011
C   C1        1.0  0.18150  0.19460  0.07810  1.0000 -0.0242263548
C   C2        1.0  0.22520  0.21570  0.20100  1.0000 -0.1001297594
C   C3        1.0  0.10850  0.13400  0.15650  1.0000 0.6082366813
C   C4        1.0  0.20850  0.22950  0.87400  1.0000 -0.1001297594
C   C5        1.0  0.68150  0.69460  0.07810  1.0000 -0.0242263548
C   C6        1.0  0.72520  0.71570  0.20100  1.0000 -0.1001297594
C   C7        1.0  0.60850  0.63400  0.15650  1.0000 0.6082366813
C   C8        1.0  0.70850  0.72950  0.87400  1.0000 -0.1001297594
C   C9        1.0  0.81850  0.19460  0.42190  1.0000 -0.0242263548
C   C10       1.0  0.77480  0.21570  0.29900  1.0000 -0.1001297594
C   C11       1.0  0.89150  0.13400  0.34350  1.0000 0.6082366813
C   C12       1.0  0.79150  0.22950  0.62600  1.0000 -0.1001297594
C   C13       1.0  0.31850  0.69460  0.42190  1.0000 -0.0242263548
C   C14       1.0  0.27480  0.71570  0.29900  1.0000 -0.1001297594
C   C15       1.0  0.39150  0.63400  0.34350  1.0000 0.6082366813
C   C16       1.0  0.29150  0.72950  0.62600  1.0000 -0.1001297594
C   C17       1.0  0.81850  0.80540  0.92190  1.0000 -0.0242263548
C   C18       1.0  0.77480  0.78430  0.79900  1.0000 -0.1001297594
C   C19       1.0  0.89150  0.86600  0.84350  1.0000 0.6082366813
C   C20       1.0  0.79150  0.77050  0.12600  1.0000 -0.1001297594
C   C21       1.0  0.31850  0.30540  0.92190  1.0000 -0.0242263548
C   C22       1.0  0.27480  0.28430  0.79900  1.0000 -0.1001297594
C   C23       1.0  0.39150  0.36600  0.84350  1.0000 0.6082366813
C   C24       1.0  0.29150  0.27050  0.12600  1.0000 -0.1001297594
C   C25       1.0  0.18150  0.80540  0.57810  1.0000 -0.0242263548
C   C26       1.0  0.22520  0.78430  0.70100  1.0000 -0.1001297594
C   C27       1.0  0.10850  0.86600  0.65650  1.0000 0.6082366813
C   C28       1.0  0.20850  0.77050  0.37400  1.0000 -0.1001297594
C   C29       1.0  0.68150  0.30540  0.57810  1.0000 -0.0242263548
C   C30       1.0  0.72520  0.28430  0.70100  1.0000 -0.1001297594
C   C31       1.0  0.60850  0.36600  0.65650  1.0000 0.6082366813
C   C32       1.0  0.70850  0.27050  0.37400  1.0000 -0.1001297594
O   O1        1.0  0.07120  0.12600  0.03910  1.0000 -0.5402325433
O   O2        1.0  0.08880  0.10060  0.34370  1.0000 -0.5567807298
O   O3        1.0  0.57120  0.62600  0.03910  1.0000 -0.5402325433
O   O4        1.0  0.58880  0.60060  0.34370  1.0000 -0.5567807298
O   O5        1.0  0.92880  0.12600  0.46090  1.0000 -0.5402325433
O   O6        1.0  0.91120  0.10060  0.15630  1.0000 -0.5567807298
O   O7        1.0  0.42880  0.62600  0.46090  1.0000 -0.5402325433
O   O8        1.0  0.41120  0.60060  0.15630  1.0000 -0.5567807298
O   O9        1.0  0.92880  0.87400  0.96090  1.0000 -0.5402325433
O   O10       1.0  0.91120  0.89940  0.65630  1.0000 -0.5567807298
O   O11       1.0  0.42880  0.37400  0.96090  1.0000 -0.5402325433
O   O12       1.0  0.41120  0.39940  0.65630  1.0000 -0.5567807298
O   O13       1.0  0.07120  0.87400  0.53910  1.0000 -0.5402325433
O   O14       1.0  0.08880  0.89940  0.84370  1.0000 -0.5567807298
O   O15       1.0  0.57120  0.37400  0.53910  1.0000 -0.5402325433
O   O16       1.0  0.58880  0.39940  0.84370  1.0000 -0.5567807298
O   O17       1.0  0.00000  0.08180  0.75000  1.0000 -0.8592082154
O   O18       1.0  0.50000  0.58180  0.75000  1.0000 -0.8592082154
O   O19       1.0  0.00000  0.91820  0.25000  1.0000 -0.8592082154
O   O20       1.0  0.50000  0.41820  0.25000  1.0000 -0.8592082154
