# DDEC6 charges by PACMAN v1.1 (https://github.com/mtap-research/PACMAN-charge/)
data_2005[Ni][nan]3[ASR]1
_chemical_formula_sum              "Ni4 H64 C96 N8 O20"
_cell_length_a       11.2845
_cell_length_b       11.2845
_cell_length_c       19.885
_cell_angle_alpha    85.3266
_cell_angle_beta     94.6734
_cell_angle_gamma    113.842

_symmetry_space_group_name_H-M    "P 1"
_symmetry_Int_Tables_number       1

loop_
  _symmetry_equiv_pos_as_xyz
  'x, y, z'

loop_
  _atom_site_type_symbol
  _atom_site_label
  _atom_site_symmetry_multiplicity
  _atom_site_fract_x
  _atom_site_fract_y
  _atom_site_fract_z
  _atom_site_occupancy
  _atom_site_charge
Ni  Ni1       1.0  0.85974  0.97438  0.07470  1.0000 0.764651219
Ni  Ni2       1.0  0.97438  0.85974  0.42530  1.0000 0.764651219
Ni  Ni3       1.0  0.14026  0.02562  0.92530  1.0000 0.764651219
Ni  Ni4       1.0  0.02562  0.14026  0.57470  1.0000 0.764651219
H   H1        1.0  0.95970  0.80070  0.16450  1.0000 0.1192111077
H   H2        1.0  0.80070  0.95970  0.33550  1.0000 0.1192111077
H   H3        1.0  0.04030  0.19930  0.83550  1.0000 0.1192111077
H   H4        1.0  0.19930  0.04030  0.66450  1.0000 0.1192111077
H   H5        1.0  0.96920  0.59900  0.16850  1.0000 0.1294033527
H   H6        1.0  0.59900  0.96920  0.33150  1.0000 0.1294033527
H   H7        1.0  0.03080  0.40100  0.83150  1.0000 0.1294033527
H   H8        1.0  0.40100  0.03080  0.66850  1.0000 0.1294033527
H   H9        1.0  0.76270  0.53410  0.98980  1.0000 0.1294033527
H   H10       1.0  0.53410  0.76270  0.51020  1.0000 0.1294033527
H   H11       1.0  0.23730  0.46590  0.01020  1.0000 0.1294033527
H   H12       1.0  0.46590  0.23730  0.48980  1.0000 0.1294033527
H   H13       1.0  0.76380  0.73940  0.98970  1.0000 0.1101206044
H   H14       1.0  0.73940  0.76380  0.51030  1.0000 0.1101206044
H   H15       1.0  0.23620  0.26060  0.01030  1.0000 0.1101206044
H   H16       1.0  0.26060  0.23620  0.48970  1.0000 0.1101206044
H   H17       1.0  0.80810  0.37990  0.98160  1.0000 0.1192111077
H   H18       1.0  0.37990  0.80810  0.51840  1.0000 0.1192111077
H   H19       1.0  0.19190  0.62010  0.01840  1.0000 0.1192111077
H   H20       1.0  0.62010  0.19190  0.48160  1.0000 0.1192111077
H   H21       1.0  0.80730  0.17490  0.98260  1.0000 0.1101206044
H   H22       1.0  0.17490  0.80730  0.51740  1.0000 0.1101206044
H   H23       1.0  0.19270  0.82510  0.01740  1.0000 0.1101206044
H   H24       1.0  0.82510  0.19270  0.48260  1.0000 0.1101206044
H   H25       1.0  0.90740  0.18120  0.17370  1.0000 0.1101206044
H   H26       1.0  0.18120  0.90740  0.32630  1.0000 0.1101206044
H   H27       1.0  0.09260  0.81880  0.82630  1.0000 0.1101206044
H   H28       1.0  0.81880  0.09260  0.67370  1.0000 0.1101206044
H   H29       1.0  0.91660  0.38860  0.17730  1.0000 0.1362279119
H   H30       1.0  0.38860  0.91660  0.32270  1.0000 0.1362279119
H   H31       1.0  0.08340  0.61140  0.82270  1.0000 0.1362279119
H   H32       1.0  0.61140  0.08340  0.67730  1.0000 0.1362279119
H   H33       1.0  0.06020  0.37140  0.44490  1.0000 0.1294033527
H   H34       1.0  0.37140  0.06020  0.05510  1.0000 0.1294033527
H   H35       1.0  0.93980  0.62860  0.55510  1.0000 0.1294033527
H   H36       1.0  0.62860  0.93980  0.94490  1.0000 0.1294033527
H   H37       1.0  0.11990  0.56610  0.37960  1.0000 0.1362279119
H   H38       1.0  0.56610  0.11990  0.12040  1.0000 0.1362279119
H   H39       1.0  0.88010  0.43390  0.62040  1.0000 0.1362279119
H   H40       1.0  0.43390  0.88010  0.87960  1.0000 0.1362279119
H   H41       1.0  0.17950  0.39150  0.22460  1.0000 0.1294033527
H   H42       1.0  0.39150  0.17950  0.27540  1.0000 0.1294033527
H   H43       1.0  0.82050  0.60850  0.77540  1.0000 0.1294033527
H   H44       1.0  0.60850  0.82050  0.72460  1.0000 0.1294033527
H   H45       1.0  0.12250  0.19790  0.29040  1.0000 0.1192111077
H   H46       1.0  0.19790  0.12250  0.20960  1.0000 0.1192111077
H   H47       1.0  0.87750  0.80210  0.70960  1.0000 0.1192111077
H   H48       1.0  0.80210  0.87750  0.79040  1.0000 0.1192111077
H   H49       1.0  0.22150  0.72890  0.14310  1.0000 0.1294033527
H   H50       1.0  0.72890  0.22150  0.35690  1.0000 0.1294033527
H   H51       1.0  0.77850  0.27110  0.85690  1.0000 0.1294033527
H   H52       1.0  0.27110  0.77850  0.64310  1.0000 0.1294033527
H   H53       1.0  0.41760  0.83680  0.09190  1.0000 0.1192111077
H   H54       1.0  0.83680  0.41760  0.40810  1.0000 0.1192111077
H   H55       1.0  0.58240  0.16320  0.90810  1.0000 0.1192111077
H   H56       1.0  0.16320  0.58240  0.59190  1.0000 0.1192111077
H   H57       1.0  0.60550  0.74050  0.25420  1.0000 0.1192111077
H   H58       1.0  0.74050  0.60550  0.24580  1.0000 0.1192111077
H   H59       1.0  0.39450  0.25950  0.74580  1.0000 0.1192111077
H   H60       1.0  0.25950  0.39450  0.75420  1.0000 0.1192111077
H   H61       1.0  0.40710  0.62530  0.30390  1.0000 0.1294033527
H   H62       1.0  0.62530  0.40710  0.19610  1.0000 0.1294033527
H   H63       1.0  0.59290  0.37470  0.69610  1.0000 0.1294033527
H   H64       1.0  0.37470  0.59290  0.80390  1.0000 0.1294033527
C   C1        1.0  0.92040  0.74600  0.12800  1.0000 0.0908821771
C   C2        1.0  0.74600  0.92040  0.37200  1.0000 0.0908821771
C   C3        1.0  0.07960  0.25400  0.87200  1.0000 0.0908821771
C   C4        1.0  0.25400  0.07960  0.62800  1.0000 0.0908821771
C   C5        1.0  0.92540  0.62500  0.13120  1.0000 -0.1924363145
C   C6        1.0  0.62500  0.92540  0.36880  1.0000 -0.1924363145
C   C7        1.0  0.07460  0.37500  0.86880  1.0000 -0.1924363145
C   C8        1.0  0.37500  0.07460  0.63120  1.0000 -0.1924363145
C   C9        1.0  0.86530  0.54190  0.07900  1.0000 0.1101206044
C   C10       1.0  0.54190  0.86530  0.42100  1.0000 0.1101206044
C   C11       1.0  0.13470  0.45810  0.92100  1.0000 0.1101206044
C   C12       1.0  0.45810  0.13470  0.57900  1.0000 0.1101206044
C   C13       1.0  0.80500  0.58740  0.02640  1.0000 -0.1959209939
C   C14       1.0  0.58740  0.80500  0.47360  1.0000 -0.1959209939
C   C15       1.0  0.19500  0.41260  0.97360  1.0000 -0.1959209939
C   C16       1.0  0.41260  0.19500  0.52640  1.0000 -0.1959209939
C   C17       1.0  0.80590  0.71050  0.02670  1.0000 0.1002754786
C   C18       1.0  0.71050  0.80590  0.47330  1.0000 0.1002754786
C   C19       1.0  0.19410  0.28950  0.97330  1.0000 0.1002754786
C   C20       1.0  0.28950  0.19410  0.52670  1.0000 0.1002754786
C   C21       1.0  0.86490  0.40930  0.07980  1.0000 0.1002754786
C   C22       1.0  0.40930  0.86490  0.42020  1.0000 0.1002754786
C   C23       1.0  0.13510  0.59070  0.92020  1.0000 0.1002754786
C   C24       1.0  0.59070  0.13510  0.57980  1.0000 0.1002754786
C   C25       1.0  0.83100  0.34220  0.02230  1.0000 -0.210739544
C   C26       1.0  0.34220  0.83100  0.47770  1.0000 -0.210739544
C   C27       1.0  0.16900  0.65780  0.97770  1.0000 -0.210739544
C   C28       1.0  0.65780  0.16900  0.52230  1.0000 -0.210739544
C   C29       1.0  0.83020  0.21900  0.02340  1.0000 0.081226098
C   C30       1.0  0.21900  0.83020  0.47660  1.0000 0.081226098
C   C31       1.0  0.16980  0.78100  0.97660  1.0000 0.081226098
C   C32       1.0  0.78100  0.16980  0.52340  1.0000 0.081226098
C   C33       1.0  0.88850  0.22250  0.13320  1.0000 0.1002754786
C   C34       1.0  0.22250  0.88850  0.36680  1.0000 0.1002754786
C   C35       1.0  0.11150  0.77750  0.86680  1.0000 0.1002754786
C   C36       1.0  0.77750  0.11150  0.63320  1.0000 0.1002754786
C   C37       1.0  0.89320  0.34680  0.13580  1.0000 -0.1959209939
C   C38       1.0  0.34680  0.89320  0.36420  1.0000 -0.1959209939
C   C39       1.0  0.10680  0.65320  0.86420  1.0000 -0.1959209939
C   C40       1.0  0.65320  0.10680  0.63580  1.0000 -0.1959209939
C   C41       1.0  0.08270  0.26450  0.37370  1.0000 -0.0440788468
C   C42       1.0  0.26450  0.08270  0.12630  1.0000 -0.0440788468
C   C43       1.0  0.91730  0.73550  0.62630  1.0000 -0.0440788468
C   C44       1.0  0.73550  0.91730  0.87370  1.0000 -0.0440788468
C   C45       1.0  0.08390  0.37490  0.39980  1.0000 -0.0887146866
C   C46       1.0  0.37490  0.08390  0.10020  1.0000 -0.0887146866
C   C47       1.0  0.91610  0.62510  0.60020  1.0000 -0.0887146866
C   C48       1.0  0.62510  0.91610  0.89980  1.0000 -0.0887146866
C   C49       1.0  0.11930  0.49070  0.36120  1.0000 -0.210739544
C   C50       1.0  0.49070  0.11930  0.13880  1.0000 -0.210739544
C   C51       1.0  0.88070  0.50930  0.63880  1.0000 -0.210739544
C   C52       1.0  0.50930  0.88070  0.86120  1.0000 -0.210739544
C   C53       1.0  0.15340  0.49540  0.29620  1.0000 0.2382881181
C   C54       1.0  0.49540  0.15340  0.20380  1.0000 0.2382881181
C   C55       1.0  0.84660  0.50460  0.70380  1.0000 0.2382881181
C   C56       1.0  0.50460  0.84660  0.79620  1.0000 0.2382881181
C   C57       1.0  0.15480  0.38720  0.26960  1.0000 -0.210739544
C   C58       1.0  0.38720  0.15480  0.23040  1.0000 -0.210739544
C   C59       1.0  0.84520  0.61280  0.73040  1.0000 -0.210739544
C   C60       1.0  0.61280  0.84520  0.76960  1.0000 -0.210739544
C   C61       1.0  0.12030  0.27210  0.30860  1.0000 -0.0887146866
C   C62       1.0  0.27210  0.12030  0.19140  1.0000 -0.0887146866
C   C63       1.0  0.87970  0.72790  0.69140  1.0000 -0.0887146866
C   C64       1.0  0.72790  0.87970  0.80860  1.0000 -0.0887146866
C   C65       1.0  0.04080  0.13840  0.41540  1.0000 0.5592015783
C   C66       1.0  0.13840  0.04080  0.08460  1.0000 0.5592015783
C   C67       1.0  0.95920  0.86160  0.58460  1.0000 0.5592015783
C   C68       1.0  0.86160  0.95920  0.91540  1.0000 0.5592015783
C   C69       1.0  0.29810  0.66770  0.22820  1.0000 0.2382881181
C   C70       1.0  0.66770  0.29810  0.27180  1.0000 0.2382881181
C   C71       1.0  0.70190  0.33230  0.77180  1.0000 0.2382881181
C   C72       1.0  0.33230  0.70190  0.72820  1.0000 0.2382881181
C   C73       1.0  0.29980  0.73040  0.16540  1.0000 -0.2219713381
C   C74       1.0  0.73040  0.29980  0.33460  1.0000 -0.2219713381
C   C75       1.0  0.70020  0.26960  0.83460  1.0000 -0.2219713381
C   C76       1.0  0.26960  0.70020  0.66540  1.0000 -0.2219713381
C   C77       1.0  0.41610  0.79490  0.13540  1.0000 -0.0887146866
C   C78       1.0  0.79490  0.41610  0.36460  1.0000 -0.0887146866
C   C79       1.0  0.58390  0.20510  0.86460  1.0000 -0.0887146866
C   C80       1.0  0.20510  0.58390  0.63540  1.0000 -0.0887146866
C   C81       1.0  0.53180  0.79980  0.16810  1.0000 -0.0259325703
C   C82       1.0  0.79980  0.53180  0.33190  1.0000 -0.0259325703
C   C83       1.0  0.46820  0.20020  0.83190  1.0000 -0.0259325703
C   C84       1.0  0.20020  0.46820  0.66810  1.0000 -0.0259325703
C   C85       1.0  0.52730  0.73730  0.23110  1.0000 -0.0887146866
C   C86       1.0  0.73730  0.52730  0.26890  1.0000 -0.0887146866
C   C87       1.0  0.47270  0.26270  0.76890  1.0000 -0.0887146866
C   C88       1.0  0.26270  0.47270  0.73110  1.0000 -0.0887146866
C   C89       1.0  0.40950  0.66970  0.26100  1.0000 -0.2219713381
C   C90       1.0  0.66970  0.40950  0.23900  1.0000 -0.2219713381
C   C91       1.0  0.59050  0.33030  0.73900  1.0000 -0.2219713381
C   C92       1.0  0.33030  0.59050  0.76100  1.0000 -0.2219713381
C   C93       1.0  0.65700  0.87100  0.13470  1.0000 0.5261493126
C   C94       1.0  0.87100  0.65700  0.36530  1.0000 0.5261493126
C   C95       1.0  0.34300  0.12900  0.86530  1.0000 0.5261493126
C   C96       1.0  0.12900  0.34300  0.63470  1.0000 0.5261493126
N   N1        1.0  0.86302  0.78978  0.07620  1.0000 -0.210739544
N   N2        1.0  0.78978  0.86302  0.42380  1.0000 -0.210739544
N   N3        1.0  0.13698  0.21022  0.92380  1.0000 -0.210739544
N   N4        1.0  0.21022  0.13698  0.57620  1.0000 -0.210739544
N   N5        1.0  0.85936  0.15944  0.07770  1.0000 -0.1924363145
N   N6        1.0  0.15944  0.85936  0.42230  1.0000 -0.1924363145
N   N7        1.0  0.14064  0.84056  0.92230  1.0000 -0.1924363145
N   N8        1.0  0.84056  0.14064  0.57770  1.0000 -0.1924363145
O   O1        1.0  0.65327  0.88753  0.07032  1.0000 -0.54613175
O   O2        1.0  0.88753  0.65327  0.42968  1.0000 -0.54613175
O   O3        1.0  0.34673  0.11247  0.92968  1.0000 -0.54613175
O   O4        1.0  0.11247  0.34673  0.57032  1.0000 -0.54613175
O   O5        1.0  0.76256  0.91144  0.16849  1.0000 -0.5191487869
O   O6        1.0  0.91144  0.76256  0.33151  1.0000 -0.5191487869
O   O7        1.0  0.23744  0.08856  0.83151  1.0000 -0.5191487869
O   O8        1.0  0.08856  0.23744  0.66849  1.0000 -0.5191487869
O   O9        1.0  0.17810  0.60910  0.25630  1.0000 -0.2278819283
O   O10       1.0  0.60910  0.17810  0.24370  1.0000 -0.2278819283
O   O11       1.0  0.82190  0.39090  0.74370  1.0000 -0.2278819283
O   O12       1.0  0.39090  0.82190  0.75630  1.0000 -0.2278819283
O   O13       1.0  0.99847  0.13493  0.47225  1.0000 -0.5611809095
O   O14       1.0  0.13493  0.99847  0.02775  1.0000 -0.5611809095
O   O15       1.0  0.00153  0.86507  0.52775  1.0000 -0.5611809095
O   O16       1.0  0.86507  0.00153  0.97225  1.0000 -0.5611809095
O   O17       1.0  0.05018  0.04482  0.38948  1.0000 -0.542097946
O   O18       1.0  0.04482  0.05018  0.11052  1.0000 -0.542097946
O   O19       1.0  0.94982  0.95518  0.61052  1.0000 -0.542097946
O   O20       1.0  0.95518  0.94982  0.88948  1.0000 -0.542097946
