# DDEC6 charges by PACMAN v1.1 (https://github.com/mtap-research/PACMAN-charge/)
data_2005[Cu][sxd]3[ASR]1
_chemical_formula_sum              "Cu4 H20 C24 N4 O12"
_cell_length_a       3.5521
_cell_length_b       15.8665
_cell_length_c       13.1549
_cell_angle_alpha    90
_cell_angle_beta     100.312
_cell_angle_gamma    90

_symmetry_space_group_name_H-M    "P 1"
_symmetry_Int_Tables_number       1

loop_
  _symmetry_equiv_pos_as_xyz
  'x, y, z'

loop_
  _atom_site_type_symbol
  _atom_site_label
  _atom_site_symmetry_multiplicity
  _atom_site_fract_x
  _atom_site_fract_y
  _atom_site_fract_z
  _atom_site_occupancy
  _atom_site_charge
Cu  Cu1       1.0  0.76986  0.57746  0.50430  1.0000 0.8869800495
Cu  Cu2       1.0  0.23014  0.07746  0.99570  1.0000 0.8869800495
Cu  Cu3       1.0  0.23014  0.42254  0.49570  1.0000 0.8869800495
Cu  Cu4       1.0  0.76986  0.92254  0.00430  1.0000 0.8869800495
H   H1        1.0  0.67750  0.48500  0.36750  1.0000 0.3567927333
H   H2        1.0  0.32250  0.98500  0.13250  1.0000 0.3567927333
H   H3        1.0  0.32250  0.51500  0.63250  1.0000 0.3567927333
H   H4        1.0  0.67750  0.01500  0.86750  1.0000 0.3567927333
H   H5        1.0  0.07160  0.62430  0.09430  1.0000 0.1418269949
H   H6        1.0  0.92840  0.12430  0.40570  1.0000 0.1418269949
H   H7        1.0  0.92840  0.37570  0.90570  1.0000 0.1418269949
H   H8        1.0  0.07160  0.87570  0.59430  1.0000 0.1418269949
H   H9        1.0  0.17140  0.78190  0.33510  1.0000 0.1303809362
H   H10       1.0  0.82860  0.28190  0.16490  1.0000 0.1303809362
H   H11       1.0  0.82860  0.21810  0.66490  1.0000 0.1303809362
H   H12       1.0  0.17140  0.71810  0.83510  1.0000 0.1303809362
H   H13       1.0  0.82740  0.73370  0.98890  1.0000 0.1086686181
H   H14       1.0  0.17260  0.23370  0.51110  1.0000 0.1086686181
H   H15       1.0  0.17260  0.26630  0.01110  1.0000 0.1086686181
H   H16       1.0  0.82740  0.76630  0.48890  1.0000 0.1086686181
H   H17       1.0  0.92320  0.88660  0.22340  1.0000 0.1199815574
H   H18       1.0  0.07680  0.38660  0.27660  1.0000 0.1199815574
H   H19       1.0  0.07680  0.11340  0.77660  1.0000 0.1199815574
H   H20       1.0  0.92320  0.61340  0.72340  1.0000 0.1199815574
C   C1        1.0  0.35124  0.62216  0.29764  1.0000 0.553307526
C   C2        1.0  0.64876  0.12216  0.20236  1.0000 0.553307526
C   C3        1.0  0.64876  0.37784  0.70236  1.0000 0.553307526
C   C4        1.0  0.35124  0.87784  0.79764  1.0000 0.553307526
C   C5        1.0  0.16027  0.69154  0.22717  1.0000 0.0341372865
C   C6        1.0  0.83973  0.19154  0.27283  1.0000 0.0341372865
C   C7        1.0  0.83973  0.30846  0.77283  1.0000 0.0341372865
C   C8        1.0  0.16027  0.80846  0.72717  1.0000 0.0341372865
C   C9        1.0  0.04814  0.67750  0.12204  1.0000 -0.1610470729
C   C10       1.0  0.95186  0.17750  0.37796  1.0000 -0.1610470729
C   C11       1.0  0.95186  0.32250  0.87796  1.0000 -0.1610470729
C   C12       1.0  0.04814  0.82250  0.62204  1.0000 -0.1610470729
C   C13       1.0  0.10713  0.77078  0.26473  1.0000 -0.1610470729
C   C14       1.0  0.89287  0.27078  0.23527  1.0000 -0.1610470729
C   C15       1.0  0.89287  0.22922  0.73527  1.0000 -0.1610470729
C   C16       1.0  0.10713  0.72922  0.76473  1.0000 -0.1610470729
C   C17       1.0  0.90141  0.74367  0.05931  1.0000 0.0790776166
C   C18       1.0  0.09859  0.24367  0.44069  1.0000 0.0790776166
C   C19       1.0  0.09859  0.25633  0.94069  1.0000 0.0790776166
C   C20       1.0  0.90141  0.75633  0.55931  1.0000 0.0790776166
C   C21       1.0  0.95812  0.83337  0.19712  1.0000 0.060491212
C   C22       1.0  0.04188  0.33337  0.30288  1.0000 0.060491212
C   C23       1.0  0.04188  0.16663  0.80288  1.0000 0.060491212
C   C24       1.0  0.95812  0.66667  0.69712  1.0000 0.060491212
N   N1        1.0  0.86069  0.82114  0.09479  1.0000 -0.2183354941
N   N2        1.0  0.13931  0.32114  0.40521  1.0000 -0.2183354941
N   N3        1.0  0.13931  0.17886  0.90521  1.0000 -0.2183354941
N   N4        1.0  0.86069  0.67886  0.59479  1.0000 -0.2183354941
O   O1        1.0  0.73652  0.47158  0.43012  1.0000 -0.8347498251
O   O2        1.0  0.26348  0.97158  0.06988  1.0000 -0.8347498251
O   O3        1.0  0.26348  0.52842  0.56988  1.0000 -0.8347498251
O   O4        1.0  0.73652  0.02842  0.93012  1.0000 -0.8347498251
O   O5        1.0  0.42856  0.64127  0.39266  1.0000 -0.5816784573
O   O6        1.0  0.57144  0.14127  0.10734  1.0000 -0.5816784573
O   O7        1.0  0.57144  0.35873  0.60734  1.0000 -0.5816784573
O   O8        1.0  0.42856  0.85873  0.89266  1.0000 -0.5816784573
O   O9        1.0  0.42095  0.55460  0.25785  1.0000 -0.5147866083
O   O10       1.0  0.57905  0.05460  0.24215  1.0000 -0.5147866083
O   O11       1.0  0.57905  0.44540  0.74215  1.0000 -0.5147866083
O   O12       1.0  0.42095  0.94540  0.75785  1.0000 -0.5147866083
