# DDEC6 charges by PACMAN v1.1 (https://github.com/mtap-research/PACMAN-charge/)
data_2005[Zn][nan]3[ASR]1
_chemical_formula_sum              "Zn18 H60 C96 O60"
_cell_length_a       17.664
_cell_length_b       14.848
_cell_length_c       19.9826
_cell_angle_alpha    90
_cell_angle_beta     122.824
_cell_angle_gamma    90

_symmetry_space_group_name_H-M    "P 1"
_symmetry_Int_Tables_number       1

loop_
  _symmetry_equiv_pos_as_xyz
  'x, y, z'

loop_
  _atom_site_type_symbol
  _atom_site_label
  _atom_site_symmetry_multiplicity
  _atom_site_fract_x
  _atom_site_fract_y
  _atom_site_fract_z
  _atom_site_occupancy
  _atom_site_charge
Zn  Zn1       1.0  0.00000  0.00000  0.00000  1.0000 1.0017252178
Zn  Zn2       1.0  0.00000  0.50000  0.50000  1.0000 1.0017252178
Zn  Zn3       1.0  0.16375  0.90180  0.16638  1.0000 0.9218623252
Zn  Zn4       1.0  0.83625  0.40180  0.33362  1.0000 0.9218623252
Zn  Zn5       1.0  0.83625  0.09820  0.83362  1.0000 0.9218623252
Zn  Zn6       1.0  0.16375  0.59820  0.66638  1.0000 0.9218623252
Zn  Zn7       1.0  0.16898  0.09550  0.16684  1.0000 0.929405889
Zn  Zn8       1.0  0.83102  0.59550  0.33316  1.0000 0.929405889
Zn  Zn9       1.0  0.83102  0.90450  0.83316  1.0000 0.929405889
Zn  Zn10      1.0  0.16898  0.40450  0.66684  1.0000 0.929405889
Zn  Zn11      1.0  0.66600  0.49619  0.16562  1.0000 1.0017252178
Zn  Zn12      1.0  0.33400  0.99619  0.33438  1.0000 1.0052215368
Zn  Zn13      1.0  0.33400  0.50381  0.83438  1.0000 1.0017252178
Zn  Zn14      1.0  0.66600  0.00381  0.66562  1.0000 1.0052215368
Zn  Zn15      1.0  0.50141  0.59847  0.00495  1.0000 0.9365564347
Zn  Zn16      1.0  0.49859  0.09847  0.49505  1.0000 0.9365564347
Zn  Zn17      1.0  0.49859  0.40153  0.99505  1.0000 0.9365564347
Zn  Zn18      1.0  0.50141  0.90153  0.50495  1.0000 0.9365564347
H   H1        1.0  0.04580  0.00070  0.13590  1.0000 0.3813669407
H   H2        1.0  0.95420  0.50070  0.36410  1.0000 0.3813669407
H   H3        1.0  0.95420  0.99930  0.86410  1.0000 0.3813669407
H   H4        1.0  0.04580  0.49930  0.63590  1.0000 0.3813669407
H   H5        1.0  0.28880  0.99400  0.19550  1.0000 0.3861507238
H   H6        1.0  0.71120  0.49400  0.30450  1.0000 0.3861507238
H   H7        1.0  0.71120  0.00600  0.80450  1.0000 0.3861507238
H   H8        1.0  0.28880  0.50600  0.69550  1.0000 0.3861507238
H   H9        1.0  0.62000  0.50040  0.02800  1.0000 0.3813669407
H   H10       1.0  0.38000  0.00040  0.47200  1.0000 0.3813669407
H   H11       1.0  0.38000  0.49960  0.97200  1.0000 0.3813669407
H   H12       1.0  0.62000  0.99960  0.52800  1.0000 0.3813669407
H   H13       1.0  0.90670  0.11200  0.12450  1.0000 0.1172428247
H   H14       1.0  0.09330  0.61200  0.37550  1.0000 0.1172428247
H   H15       1.0  0.09330  0.88800  0.87550  1.0000 0.1172428247
H   H16       1.0  0.90670  0.38800  0.62450  1.0000 0.1172428247
H   H17       1.0  0.78130  0.30280  0.95350  1.0000 0.1135903744
H   H18       1.0  0.21870  0.80280  0.54650  1.0000 0.1135903744
H   H19       1.0  0.21870  0.69720  0.04650  1.0000 0.1135903744
H   H20       1.0  0.78130  0.19720  0.45350  1.0000 0.1135903744
H   H21       1.0  0.88780  0.20050  0.21090  1.0000 0.1135903744
H   H22       1.0  0.11220  0.70050  0.28910  1.0000 0.1172428247
H   H23       1.0  0.11220  0.79950  0.78910  1.0000 0.1172428247
H   H24       1.0  0.88780  0.29950  0.71090  1.0000 0.1135903744
H   H25       1.0  0.76220  0.39160  0.03980  1.0000 0.1172428247
H   H26       1.0  0.23780  0.89160  0.46020  1.0000 0.1172428247
H   H27       1.0  0.23780  0.60840  0.96020  1.0000 0.1172428247
H   H28       1.0  0.76220  0.10840  0.53980  1.0000 0.1172428247
H   H29       1.0  0.03160  0.18090  0.86330  1.0000 0.1172428247
H   H30       1.0  0.96840  0.68090  0.63670  1.0000 0.1135903744
H   H31       1.0  0.96840  0.81910  0.13670  1.0000 0.1135903744
H   H32       1.0  0.03160  0.31910  0.36330  1.0000 0.1172428247
H   H33       1.0  0.27370  0.25210  0.05600  1.0000 0.1135903744
H   H34       1.0  0.72630  0.75210  0.44400  1.0000 0.1135903744
H   H35       1.0  0.72630  0.74790  0.94400  1.0000 0.1135903744
H   H36       1.0  0.27370  0.24790  0.55600  1.0000 0.1135903744
H   H37       1.0  0.06990  0.24820  0.78040  1.0000 0.1135903744
H   H38       1.0  0.93010  0.74820  0.71960  1.0000 0.1135903744
H   H39       1.0  0.93010  0.75180  0.21960  1.0000 0.1135903744
H   H40       1.0  0.06990  0.25180  0.28040  1.0000 0.1135903744
H   H41       1.0  0.31310  0.31910  0.97330  1.0000 0.1172428247
H   H42       1.0  0.68690  0.81910  0.52670  1.0000 0.1172428247
H   H43       1.0  0.68690  0.68090  0.02670  1.0000 0.1172428247
H   H44       1.0  0.31310  0.18090  0.47330  1.0000 0.1172428247
H   H45       1.0  0.39660  0.75120  0.11850  1.0000 0.1135903744
H   H46       1.0  0.60340  0.25120  0.38150  1.0000 0.1135903744
H   H47       1.0  0.60340  0.24880  0.88150  1.0000 0.1135903744
H   H48       1.0  0.39660  0.74880  0.61850  1.0000 0.1135903744
H   H49       1.0  0.57790  0.59500  0.30230  1.0000 0.1172428247
H   H50       1.0  0.42210  0.09500  0.19770  1.0000 0.1172428247
H   H51       1.0  0.42210  0.40500  0.69770  1.0000 0.1172428247
H   H52       1.0  0.57790  0.90500  0.80230  1.0000 0.1172428247
H   H53       1.0  0.36500  0.82680  0.20280  1.0000 0.1172428247
H   H54       1.0  0.63500  0.32680  0.29720  1.0000 0.1172428247
H   H55       1.0  0.63500  0.17320  0.79720  1.0000 0.1172428247
H   H56       1.0  0.36500  0.67320  0.70280  1.0000 0.1172428247
H   H57       1.0  0.55330  0.67720  0.38860  1.0000 0.1135903744
H   H58       1.0  0.44670  0.17720  0.11140  1.0000 0.1135903744
H   H59       1.0  0.44670  0.32280  0.61140  1.0000 0.1135903744
H   H60       1.0  0.55330  0.82280  0.88860  1.0000 0.1135903744
C   C1        1.0  0.85976  0.14311  0.97602  1.0000 0.5904711843
C   C2        1.0  0.14024  0.64311  0.52398  1.0000 0.5904711843
C   C3        1.0  0.14024  0.85689  0.02398  1.0000 0.5904711843
C   C4        1.0  0.85976  0.35689  0.47602  1.0000 0.5904711843
C   C5        1.0  0.84649  0.19957  0.03091  1.0000 -0.0269378466
C   C6        1.0  0.15351  0.69957  0.46909  1.0000 -0.0269378466
C   C7        1.0  0.15351  0.80043  0.96909  1.0000 -0.0269378466
C   C8        1.0  0.84649  0.30043  0.53091  1.0000 -0.0269378466
C   C9        1.0  0.87772  0.16888  0.10744  1.0000 -0.107986408
C   C10       1.0  0.12228  0.66888  0.39256  1.0000 -0.107986408
C   C11       1.0  0.12228  0.83112  0.89256  1.0000 -0.107986408
C   C12       1.0  0.87772  0.33112  0.60744  1.0000 -0.107986408
C   C13       1.0  0.80325  0.28225  0.00601  1.0000 -0.107986408
C   C14       1.0  0.19675  0.78225  0.49399  1.0000 -0.107986408
C   C15       1.0  0.19675  0.71775  0.99399  1.0000 -0.107986408
C   C16       1.0  0.80325  0.21775  0.50601  1.0000 -0.107986408
C   C17       1.0  0.86652  0.22143  0.15867  1.0000 -0.107986408
C   C18       1.0  0.13348  0.72143  0.34133  1.0000 -0.107986408
C   C19       1.0  0.13348  0.77857  0.84133  1.0000 -0.107986408
C   C20       1.0  0.86652  0.27857  0.65867  1.0000 -0.107986408
C   C21       1.0  0.79186  0.33508  0.05712  1.0000 -0.107986408
C   C22       1.0  0.20814  0.83508  0.44288  1.0000 -0.107986408
C   C23       1.0  0.20814  0.66492  0.94288  1.0000 -0.107986408
C   C24       1.0  0.79186  0.16492  0.55712  1.0000 -0.107986408
C   C25       1.0  0.82421  0.30492  0.13387  1.0000 -0.0233937525
C   C26       1.0  0.17579  0.80492  0.36613  1.0000 -0.0233937525
C   C27       1.0  0.17579  0.69508  0.86613  1.0000 -0.0233937525
C   C28       1.0  0.82421  0.19508  0.63387  1.0000 -0.0233937525
C   C29       1.0  0.81261  0.36179  0.18949  1.0000 0.5904711843
C   C30       1.0  0.18739  0.86179  0.31051  1.0000 0.5904711843
C   C31       1.0  0.18739  0.63821  0.81051  1.0000 0.5904711843
C   C32       1.0  0.81261  0.13821  0.68949  1.0000 0.5904711843
C   C33       1.0  0.12528  0.16355  0.02061  1.0000 0.5904711843
C   C34       1.0  0.87472  0.66355  0.47939  1.0000 0.5904711843
C   C35       1.0  0.87472  0.83645  0.97939  1.0000 0.5904711843
C   C36       1.0  0.12528  0.33645  0.52061  1.0000 0.5904711843
C   C37       1.0  0.14906  0.20976  0.96762  1.0000 -0.0233937525
C   C38       1.0  0.85094  0.70976  0.53238  1.0000 -0.0233937525
C   C39       1.0  0.85094  0.79024  0.03238  1.0000 -0.0233937525
C   C40       1.0  0.14906  0.29024  0.46762  1.0000 -0.0233937525
C   C41       1.0  0.08869  0.20894  0.88564  1.0000 -0.107986408
C   C42       1.0  0.91131  0.70894  0.61436  1.0000 -0.107986408
C   C43       1.0  0.91131  0.79106  0.11436  1.0000 -0.107986408
C   C44       1.0  0.08869  0.29106  0.38564  1.0000 -0.107986408
C   C45       1.0  0.23254  0.25119  0.99994  1.0000 -0.107986408
C   C46       1.0  0.76746  0.75119  0.50006  1.0000 -0.107986408
C   C47       1.0  0.76746  0.74881  0.00006  1.0000 -0.107986408
C   C48       1.0  0.23254  0.24881  0.49994  1.0000 -0.107986408
C   C49       1.0  0.11153  0.24878  0.83651  1.0000 -0.107986408
C   C50       1.0  0.88847  0.74878  0.66349  1.0000 -0.107986408
C   C51       1.0  0.88847  0.75122  0.16349  1.0000 -0.107986408
C   C52       1.0  0.11153  0.25122  0.33651  1.0000 -0.107986408
C   C53       1.0  0.25595  0.29107  0.95095  1.0000 -0.107986408
C   C54       1.0  0.74405  0.79107  0.54905  1.0000 -0.107986408
C   C55       1.0  0.74405  0.70893  0.04905  1.0000 -0.107986408
C   C56       1.0  0.25595  0.20893  0.45095  1.0000 -0.107986408
C   C57       1.0  0.19543  0.28996  0.86888  1.0000 -0.0233937525
C   C58       1.0  0.80457  0.78996  0.63112  1.0000 -0.0233937525
C   C59       1.0  0.80457  0.71004  0.13112  1.0000 -0.0233937525
C   C60       1.0  0.19543  0.21004  0.36888  1.0000 -0.0233937525
C   C61       1.0  0.21865  0.33599  0.81562  1.0000 0.5904711843
C   C62       1.0  0.78135  0.83599  0.68438  1.0000 0.5904711843
C   C63       1.0  0.78135  0.66401  0.18438  1.0000 0.5904711843
C   C64       1.0  0.21865  0.16401  0.31562  1.0000 0.5904711843
C   C65       1.0  0.51527  0.62137  0.14897  1.0000 0.5904711843
C   C66       1.0  0.48473  0.12137  0.35103  1.0000 0.5904711843
C   C67       1.0  0.48473  0.37863  0.85103  1.0000 0.5904711843
C   C68       1.0  0.51527  0.87863  0.64897  1.0000 0.5904711843
C   C69       1.0  0.49159  0.66718  0.20239  1.0000 -0.0233937525
C   C70       1.0  0.50841  0.16718  0.29761  1.0000 -0.0233937525
C   C71       1.0  0.50841  0.33282  0.79761  1.0000 -0.0233937525
C   C72       1.0  0.49159  0.83282  0.70239  1.0000 -0.0233937525
C   C73       1.0  0.42808  0.73566  0.17332  1.0000 -0.107986408
C   C74       1.0  0.57192  0.23566  0.32668  1.0000 -0.107986408
C   C75       1.0  0.57192  0.26434  0.82668  1.0000 -0.107986408
C   C76       1.0  0.42808  0.76434  0.67332  1.0000 -0.107986408
C   C77       1.0  0.53655  0.64382  0.28253  1.0000 -0.107986408
C   C78       1.0  0.46345  0.14382  0.21747  1.0000 -0.107986408
C   C79       1.0  0.46345  0.35618  0.71747  1.0000 -0.107986408
C   C80       1.0  0.53655  0.85618  0.78253  1.0000 -0.107986408
C   C81       1.0  0.41016  0.78152  0.22357  1.0000 -0.107986408
C   C82       1.0  0.58984  0.28152  0.27643  1.0000 -0.107986408
C   C83       1.0  0.58984  0.21848  0.77643  1.0000 -0.107986408
C   C84       1.0  0.41016  0.71848  0.72357  1.0000 -0.107986408
C   C85       1.0  0.52096  0.69190  0.33358  1.0000 -0.107986408
C   C86       1.0  0.47904  0.19190  0.16642  1.0000 -0.107986408
C   C87       1.0  0.47904  0.30810  0.66642  1.0000 -0.107986408
C   C88       1.0  0.52096  0.80810  0.83358  1.0000 -0.107986408
C   C89       1.0  0.45822  0.76136  0.30450  1.0000 -0.0233937525
C   C90       1.0  0.54178  0.26136  0.19550  1.0000 -0.0233937525
C   C91       1.0  0.54178  0.23864  0.69550  1.0000 -0.0233937525
C   C92       1.0  0.45822  0.73864  0.80450  1.0000 -0.0233937525
C   C93       1.0  0.44423  0.81919  0.35876  1.0000 0.5950683266
C   C94       1.0  0.55577  0.31919  0.14124  1.0000 0.5950683266
C   C95       1.0  0.55577  0.18081  0.64124  1.0000 0.5950683266
C   C96       1.0  0.44423  0.68081  0.85876  1.0000 0.5950683266
O   O1        1.0  0.07354  0.00191  0.12152  1.0000 -0.7293966502
O   O2        1.0  0.92646  0.50191  0.37848  1.0000 -0.7293966502
O   O3        1.0  0.92646  0.99809  0.87848  1.0000 -0.7293966502
O   O4        1.0  0.07354  0.49809  0.62152  1.0000 -0.7293966502
O   O5        1.0  0.25952  0.99685  0.21204  1.0000 -0.7774381428
O   O6        1.0  0.74048  0.49685  0.28796  1.0000 -0.7774381428
O   O7        1.0  0.74048  0.00315  0.78796  1.0000 -0.7774381428
O   O8        1.0  0.25952  0.50315  0.71204  1.0000 -0.7774381428
O   O9        1.0  0.59164  0.49907  0.04339  1.0000 -0.7570019453
O   O10       1.0  0.40836  0.99907  0.45661  1.0000 -0.7570019453
O   O11       1.0  0.40836  0.50093  0.95661  1.0000 -0.7570019453
O   O12       1.0  0.59164  0.00093  0.54339  1.0000 -0.7570019453
O   O13       1.0  0.89416  0.06654  0.99873  1.0000 -0.5777764558
O   O14       1.0  0.10584  0.56654  0.50127  1.0000 -0.5777764558
O   O15       1.0  0.10584  0.93346  0.00127  1.0000 -0.5777764558
O   O16       1.0  0.89416  0.43346  0.49873  1.0000 -0.5777764558
O   O17       1.0  0.83345  0.17686  0.90863  1.0000 -0.5311658769
O   O18       1.0  0.16655  0.67686  0.59137  1.0000 -0.5311658769
O   O19       1.0  0.16655  0.82314  0.09137  1.0000 -0.5311658769
O   O20       1.0  0.83345  0.32314  0.40863  1.0000 -0.5311658769
O   O21       1.0  0.77666  0.43789  0.16706  1.0000 -0.5777764558
O   O22       1.0  0.22334  0.93789  0.33294  1.0000 -0.5777764558
O   O23       1.0  0.22334  0.56211  0.83294  1.0000 -0.5777764558
O   O24       1.0  0.77666  0.06211  0.66706  1.0000 -0.5777764558
O   O25       1.0  0.84268  0.32840  0.25793  1.0000 -0.5353364438
O   O26       1.0  0.15732  0.82840  0.24207  1.0000 -0.5353364438
O   O27       1.0  0.15732  0.67160  0.74207  1.0000 -0.5311658769
O   O28       1.0  0.84268  0.17160  0.75793  1.0000 -0.5311658769
O   O29       1.0  0.05067  0.12643  0.99019  1.0000 -0.5640004515
O   O30       1.0  0.94933  0.62643  0.50981  1.0000 -0.5640004515
O   O31       1.0  0.94933  0.87357  0.00981  1.0000 -0.5640004515
O   O32       1.0  0.05067  0.37357  0.49019  1.0000 -0.5640004515
O   O33       1.0  0.18574  0.16496  0.09483  1.0000 -0.5481456806
O   O34       1.0  0.81426  0.66496  0.40517  1.0000 -0.5481456806
O   O35       1.0  0.81426  0.83504  0.90517  1.0000 -0.5481456806
O   O36       1.0  0.18574  0.33504  0.59483  1.0000 -0.5481456806
O   O37       1.0  0.29371  0.37217  0.84500  1.0000 -0.5710720509
O   O38       1.0  0.70629  0.87217  0.65500  1.0000 -0.5710720509
O   O39       1.0  0.70629  0.62783  0.15500  1.0000 -0.5710720509
O   O40       1.0  0.29371  0.12783  0.34500  1.0000 -0.5710720509
O   O41       1.0  0.15712  0.33535  0.74179  1.0000 -0.5481456806
O   O42       1.0  0.84288  0.83535  0.75821  1.0000 -0.5481456806
O   O43       1.0  0.84288  0.66465  0.25821  1.0000 -0.5481456806
O   O44       1.0  0.15712  0.16465  0.24179  1.0000 -0.5481456806
O   O45       1.0  0.55809  0.54873  0.17115  1.0000 -0.5710720509
O   O46       1.0  0.44191  0.04873  0.32885  1.0000 -0.5710720509
O   O47       1.0  0.44191  0.45127  0.82885  1.0000 -0.5710720509
O   O48       1.0  0.55809  0.95127  0.67115  1.0000 -0.5710720509
O   O49       1.0  0.48997  0.66112  0.08388  1.0000 -0.5353364438
O   O50       1.0  0.51003  0.16112  0.41612  1.0000 -0.5353364438
O   O51       1.0  0.51003  0.33888  0.91612  1.0000 -0.5353364438
O   O52       1.0  0.48997  0.83888  0.58388  1.0000 -0.5353364438
O   O53       1.0  0.37451  0.86501  0.32867  1.0000 -0.5640004515
O   O54       1.0  0.62549  0.36501  0.17133  1.0000 -0.5640004515
O   O55       1.0  0.62549  0.13499  0.67133  1.0000 -0.5640004515
O   O56       1.0  0.37451  0.63499  0.82867  1.0000 -0.5640004515
O   O57       1.0  0.50698  0.81862  0.43260  1.0000 -0.5481456806
O   O58       1.0  0.49302  0.31862  0.06740  1.0000 -0.5481456806
O   O59       1.0  0.49302  0.18138  0.56740  1.0000 -0.5481456806
O   O60       1.0  0.50698  0.68138  0.93260  1.0000 -0.5481456806
