# DDEC6 charges by PACMAN v1.1 (https://github.com/mtap-research/PACMAN-charge/)
data_2005[Sc][nan]3[ASR]1
_chemical_formula_sum              "Sc2 H32 C40 N8 O10"
_cell_length_a       17.0816
_cell_length_b       17.0816
_cell_length_c       17.0816
_cell_angle_alpha    90.7659
_cell_angle_beta     90.7659
_cell_angle_gamma    166.722

_symmetry_space_group_name_H-M    "P 1"
_symmetry_Int_Tables_number       1

loop_
  _symmetry_equiv_pos_as_xyz
  'x, y, z'

loop_
  _atom_site_type_symbol
  _atom_site_label
  _atom_site_symmetry_multiplicity
  _atom_site_fract_x
  _atom_site_fract_y
  _atom_site_fract_z
  _atom_site_occupancy
  _atom_site_charge
Sc  Sc1       1.0  0.00000  0.00000  0.00000  1.0000 1.7671360103
Sc  Sc2       1.0  0.25000  0.75000  0.50000  1.0000 1.7671360103
H   H1        1.0  0.07750  0.08480  0.73570  1.0000 0.1224301131
H   H2        1.0  0.65820  0.92250  0.00730  1.0000 0.1224301131
H   H3        1.0  0.90090  0.66520  0.49270  1.0000 0.1224301131
H   H4        1.0  0.34910  0.34180  0.26430  1.0000 0.1224301131
H   H5        1.0  0.59180  0.09910  0.76430  1.0000 0.1224301131
H   H6        1.0  0.91520  0.65090  0.99270  1.0000 0.1224301131
H   H7        1.0  0.17250  0.40820  0.50730  1.0000 0.1224301131
H   H8        1.0  0.33480  0.82750  0.23570  1.0000 0.1224301131
H   H9        1.0  0.33080  0.25300  0.64720  1.0000 0.1224301131
H   H10       1.0  0.31640  0.66920  0.92220  1.0000 0.1224301131
H   H11       1.0  0.64420  0.49700  0.57780  1.0000 0.1224301131
H   H12       1.0  0.60580  0.68360  0.35280  1.0000 0.1224301131
H   H13       1.0  0.93360  0.35580  0.85280  1.0000 0.1224301131
H   H14       1.0  0.74700  0.39420  0.07780  1.0000 0.1224301131
H   H15       1.0  0.91920  0.06640  0.42220  1.0000 0.1224301131
H   H16       1.0  0.50300  0.08080  0.14720  1.0000 0.1224301131
H   H17       1.0  0.31970  0.16770  0.90620  1.0000 0.1224301131
H   H18       1.0  0.58650  0.68030  0.84800  1.0000 0.1224301131
H   H19       1.0  0.98850  0.58230  0.65200  1.0000 0.1224301131
H   H20       1.0  0.26150  0.41350  0.09380  1.0000 0.1224301131
H   H21       1.0  0.66350  0.01150  0.59380  1.0000 0.1224301131
H   H22       1.0  0.83230  0.73850  0.15200  1.0000 0.1224301131
H   H23       1.0  0.93030  0.33650  0.34800  1.0000 0.1224301131
H   H24       1.0  0.41770  0.06970  0.40620  1.0000 0.1224301131
H   H25       1.0  0.58310  0.34430  0.82000  1.0000 0.1224301131
H   H26       1.0  0.23690  0.41690  0.76120  1.0000 0.1224301131
H   H27       1.0  0.72570  0.40570  0.73880  1.0000 0.1224301131
H   H28       1.0  0.52430  0.76310  0.18000  1.0000 0.1224301131
H   H29       1.0  0.01310  0.27430  0.68000  1.0000 0.1224301131
H   H30       1.0  0.65570  0.47570  0.23880  1.0000 0.1224301131
H   H31       1.0  0.66690  0.98690  0.26120  1.0000 0.1224301131
H   H32       1.0  0.59430  0.33310  0.32000  1.0000 0.1224301131
C   C1        1.0  0.17822  0.13448  0.75250  1.0000 -0.0630171994
C   C2        1.0  0.57428  0.82178  0.95626  1.0000 -0.0630171994
C   C3        1.0  0.86802  0.61552  0.54374  1.0000 -0.0630171994
C   C4        1.0  0.38198  0.42572  0.24750  1.0000 -0.0630171994
C   C5        1.0  0.67572  0.13198  0.74750  1.0000 -0.0630171994
C   C6        1.0  0.86552  0.61802  0.04374  1.0000 -0.0630171994
C   C7        1.0  0.07178  0.32428  0.45626  1.0000 -0.0630171994
C   C8        1.0  0.38448  0.92822  0.25250  1.0000 -0.0630171994
C   C9        1.0  0.33184  0.23775  0.70019  1.0000 -0.2044562502
C   C10       1.0  0.36835  0.66816  0.90591  1.0000 -0.2044562502
C   C11       1.0  0.71244  0.51225  0.59409  1.0000 -0.2044562502
C   C12       1.0  0.53756  0.63165  0.29981  1.0000 -0.2044562502
C   C13       1.0  0.88165  0.28756  0.79981  1.0000 -0.2044562502
C   C14       1.0  0.76225  0.46244  0.09409  1.0000 -0.2044562502
C   C15       1.0  0.91816  0.11835  0.40591  1.0000 -0.2044562502
C   C16       1.0  0.48775  0.08184  0.20019  1.0000 -0.2044562502
C   C17       1.0  0.32086  0.18373  0.85279  1.0000 -0.0387624684
C   C18       1.0  0.53193  0.67914  0.86287  1.0000 -0.0387624684
C   C19       1.0  0.91906  0.56627  0.63713  1.0000 -0.0387624684
C   C20       1.0  0.33094  0.46807  0.14721  1.0000 -0.0387624684
C   C21       1.0  0.71807  0.08094  0.64721  1.0000 -0.0387624684
C   C22       1.0  0.81627  0.66906  0.13713  1.0000 -0.0387624684
C   C23       1.0  0.92914  0.28193  0.36287  1.0000 -0.0387624684
C   C24       1.0  0.43373  0.07086  0.35279  1.0000 -0.0387624684
C   C25       1.0  0.47875  0.29021  0.80156  1.0000 -0.2096195827
C   C26       1.0  0.32281  0.52125  0.81146  1.0000 -0.2096195827
C   C27       1.0  0.76135  0.45979  0.68854  1.0000 -0.2096195827
C   C28       1.0  0.48865  0.67719  0.19844  1.0000 -0.2096195827
C   C29       1.0  0.92719  0.23865  0.69844  1.0000 -0.2096195827
C   C30       1.0  0.70979  0.51135  0.18854  1.0000 -0.2096195827
C   C31       1.0  0.77125  0.07281  0.31146  1.0000 -0.2096195827
C   C32       1.0  0.54021  0.22875  0.30156  1.0000 -0.2096195827
C   C33       1.0  0.48791  0.31974  0.72345  1.0000 0.0837211785
C   C34       1.0  0.23554  0.51209  0.83183  1.0000 0.0837211785
C   C35       1.0  0.65371  0.43026  0.66817  1.0000 0.0837211785
C   C36       1.0  0.59629  0.76446  0.27655  1.0000 0.0837211785
C   C37       1.0  0.01446  0.34629  0.77655  1.0000 0.0837211785
C   C38       1.0  0.68026  0.40371  0.16817  1.0000 0.0837211785
C   C39       1.0  0.76209  0.98554  0.33183  1.0000 0.0837211785
C   C40       1.0  0.56974  0.23791  0.22345  1.0000 0.0837211785
N   N1        1.0  0.16976  0.10325  0.82761  1.0000 0.3340412592
N   N2        1.0  0.65785  0.83024  0.93349  1.0000 0.3340412592
N   N3        1.0  0.97436  0.64675  0.56651  1.0000 0.3340412592
N   N4        1.0  0.27564  0.34215  0.17239  1.0000 0.3340412592
N   N5        1.0  0.59215  0.02564  0.67239  1.0000 0.3340412592
N   N6        1.0  0.89675  0.72436  0.06651  1.0000 0.3340412592
N   N7        1.0  0.08024  0.40785  0.43349  1.0000 0.3340412592
N   N8        1.0  0.35325  0.91976  0.32761  1.0000 0.3340412592
O   O1        1.0  0.00804  0.99033  0.87557  1.0000 -0.5463691252
O   O2        1.0  0.86753  0.99196  0.98229  1.0000 -0.5463691252
O   O3        1.0  0.13524  0.75967  0.51771  1.0000 -0.5463691252
O   O4        1.0  0.11476  0.13247  0.12443  1.0000 -0.5463691252
O   O5        1.0  0.38247  0.86476  0.62443  1.0000 -0.5463691252
O   O6        1.0  0.00967  0.88524  0.01771  1.0000 -0.5463691252
O   O7        1.0  0.24196  0.61753  0.48229  1.0000 -0.5463691252
O   O8        1.0  0.24033  0.75804  0.37557  1.0000 -0.5463691252
O   O9        1.0  0.50000  0.50000  0.00000  1.0000 -1.1481690677
O   O10       1.0  0.75000  0.25000  0.50000  1.0000 -1.1481690677
