# DDEC6 charges by PACMAN v1.1 (https://github.com/mtap-research/PACMAN-charge/)
data_2005[Gd][nan]3[ASR]1
_chemical_formula_sum              "Gd12 P4 H36 C44 N4 O76"
_cell_length_a       10.2481
_cell_length_b       22.391
_cell_length_c       15.3808
_cell_angle_alpha    90
_cell_angle_beta     111.297
_cell_angle_gamma    90

_symmetry_space_group_name_H-M    "P 1"
_symmetry_Int_Tables_number       1

loop_
  _symmetry_equiv_pos_as_xyz
  'x, y, z'

loop_
  _atom_site_type_symbol
  _atom_site_label
  _atom_site_symmetry_multiplicity
  _atom_site_fract_x
  _atom_site_fract_y
  _atom_site_fract_z
  _atom_site_occupancy
  _atom_site_charge
Gd  Gd1       1.0  0.46721  0.85847  0.50113  1.0000 1.9223625315
Gd  Gd2       1.0  0.53279  0.35847  0.99887  1.0000 1.9265596521
Gd  Gd3       1.0  0.53279  0.14153  0.49887  1.0000 1.9265596521
Gd  Gd4       1.0  0.46721  0.64153  0.00113  1.0000 1.9223625315
Gd  Gd5       1.0  0.82836  0.84497  0.25061  1.0000 2.0080910576
Gd  Gd6       1.0  0.17164  0.34497  0.24939  1.0000 2.0080910576
Gd  Gd7       1.0  0.17164  0.15503  0.74939  1.0000 2.0080910576
Gd  Gd8       1.0  0.82836  0.65503  0.75061  1.0000 2.0080910576
Gd  Gd9       1.0  0.66720  0.98659  0.90998  1.0000 2.0467822206
Gd  Gd10      1.0  0.33280  0.48659  0.59002  1.0000 2.0444571626
Gd  Gd11      1.0  0.33280  0.01341  0.09002  1.0000 2.0444571626
Gd  Gd12      1.0  0.66720  0.51341  0.40998  1.0000 2.0444571626
P   P1        1.0  0.70332  0.99306  0.15792  1.0000 1.4142872048
P   P2        1.0  0.29668  0.49306  0.34208  1.0000 1.4142872048
P   P3        1.0  0.29668  0.00694  0.84208  1.0000 1.4142872048
P   P4        1.0  0.70332  0.50694  0.65792  1.0000 1.4142872048
H   H1        1.0  0.95420  0.99050  0.31290  1.0000 0.2548534823
H   H2        1.0  0.04580  0.49050  0.18710  1.0000 0.2548534823
H   H3        1.0  0.04580  0.00950  0.68710  1.0000 0.2548534823
H   H4        1.0  0.95420  0.50950  0.81290  1.0000 0.255738343
H   H5        1.0  0.90840  0.04420  0.17650  1.0000 0.141038908
H   H6        1.0  0.09160  0.54420  0.32350  1.0000 0.141038908
H   H7        1.0  0.09160  0.95580  0.82350  1.0000 0.141038908
H   H8        1.0  0.90840  0.45580  0.67650  1.0000 0.141038908
H   H9        1.0  0.81260  0.08350  0.21250  1.0000 0.141038908
H   H10       1.0  0.18740  0.58350  0.28750  1.0000 0.141038908
H   H11       1.0  0.18740  0.91650  0.78750  1.0000 0.141038908
H   H12       1.0  0.81260  0.41650  0.71250  1.0000 0.141038908
H   H13       1.0  0.75660  0.02650  0.33940  1.0000 0.1494681502
H   H14       1.0  0.24340  0.52650  0.16060  1.0000 0.1494681502
H   H15       1.0  0.24340  0.97350  0.66060  1.0000 0.1494681502
H   H16       1.0  0.75660  0.47350  0.83940  1.0000 0.1494681502
H   H17       1.0  0.82970  0.08900  0.36270  1.0000 0.1341469141
H   H18       1.0  0.17030  0.58900  0.13730  1.0000 0.141038908
H   H19       1.0  0.17030  0.91100  0.63730  1.0000 0.141038908
H   H20       1.0  0.82970  0.41100  0.86270  1.0000 0.1341469141
H   H21       1.0  0.89160  0.03450  0.42880  1.0000 0.1341469141
H   H22       1.0  0.10840  0.53450  0.07120  1.0000 0.1341469141
H   H23       1.0  0.10840  0.96550  0.57120  1.0000 0.1341469141
H   H24       1.0  0.89160  0.46550  0.92880  1.0000 0.1341469141
H   H25       1.0  0.12860  0.05220  0.31640  1.0000 0.1494681502
H   H26       1.0  0.87140  0.55220  0.18360  1.0000 0.1494681502
H   H27       1.0  0.87140  0.94780  0.68360  1.0000 0.1494681502
H   H28       1.0  0.12860  0.44780  0.81640  1.0000 0.1494681502
H   H29       1.0  0.11190  0.04910  0.41370  1.0000 0.141038908
H   H30       1.0  0.88810  0.54910  0.08630  1.0000 0.141038908
H   H31       1.0  0.88810  0.95090  0.58630  1.0000 0.141038908
H   H32       1.0  0.11190  0.45090  0.91370  1.0000 0.141038908
H   H33       1.0  0.05150  0.10370  0.34750  1.0000 0.1494681502
H   H34       1.0  0.94850  0.60370  0.15250  1.0000 0.1494681502
H   H35       1.0  0.94850  0.89630  0.65250  1.0000 0.1494681502
H   H36       1.0  0.05150  0.39630  0.84750  1.0000 0.1494681502
C   C1        1.0  0.14910  0.81980  0.37440  1.0000 0.522715689
C   C2        1.0  0.85090  0.31980  0.12560  1.0000 0.522715689
C   C3        1.0  0.85090  0.18020  0.62560  1.0000 0.522715689
C   C4        1.0  0.14910  0.68020  0.87440  1.0000 0.522715689
C   C5        1.0  0.13820  0.88770  0.38600  1.0000 0.5011293755
C   C6        1.0  0.86180  0.38770  0.11400  1.0000 0.5011293755
C   C7        1.0  0.86180  0.11230  0.61400  1.0000 0.5011293755
C   C8        1.0  0.13820  0.61230  0.88600  1.0000 0.5011293755
C   C9        1.0  0.68580  0.77990  0.66760  1.0000 0.5274894091
C   C10       1.0  0.31420  0.27990  0.83240  1.0000 0.522715689
C   C11       1.0  0.31420  0.22010  0.33240  1.0000 0.5274894091
C   C12       1.0  0.68580  0.72010  0.16760  1.0000 0.522715689
C   C13       1.0  0.62600  0.73570  0.58440  1.0000 0.522715689
C   C14       1.0  0.37400  0.23570  0.91560  1.0000 0.522715689
C   C15       1.0  0.37400  0.26430  0.41560  1.0000 0.522715689
C   C16       1.0  0.62600  0.76430  0.08440  1.0000 0.522715689
C   C17       1.0  0.58180  0.83740  0.33350  1.0000 0.5011293755
C   C18       1.0  0.41820  0.33740  0.16650  1.0000 0.5011293755
C   C19       1.0  0.41820  0.16260  0.66650  1.0000 0.5011293755
C   C20       1.0  0.58180  0.66260  0.83350  1.0000 0.5011293755
C   C21       1.0  0.71460  0.84940  0.42150  1.0000 0.5011293755
C   C22       1.0  0.28540  0.34940  0.07850  1.0000 0.5053176534
C   C23       1.0  0.28540  0.15060  0.57850  1.0000 0.5011293755
C   C24       1.0  0.71460  0.65060  0.92150  1.0000 0.5053176534
C   C25       1.0  0.49010  0.99970  0.44740  1.0000 0.5011293755
C   C26       1.0  0.50990  0.49970  0.05260  1.0000 0.5011293755
C   C27       1.0  0.50990  0.00030  0.55260  1.0000 0.5011293755
C   C28       1.0  0.49010  0.50030  0.94740  1.0000 0.5011293755
C   C29       1.0  0.00830  0.96530  0.00160  1.0000 0.5274894091
C   C30       1.0  0.99170  0.46530  0.49840  1.0000 0.5274894091
C   C31       1.0  0.99170  0.03470  0.99840  1.0000 0.5274894091
C   C32       1.0  0.00830  0.53470  0.50160  1.0000 0.5274894091
C   C33       1.0  0.85000  0.04360  0.21390  1.0000 -0.3990751701
C   C34       1.0  0.15000  0.54360  0.28610  1.0000 -0.3990751701
C   C35       1.0  0.15000  0.95640  0.78610  1.0000 -0.3990751701
C   C36       1.0  0.85000  0.45640  0.71390  1.0000 -0.3990751701
C   C37       1.0  0.84510  0.04670  0.36510  1.0000 -0.3325620341
C   C38       1.0  0.15490  0.54670  0.13490  1.0000 -0.3325620341
C   C39       1.0  0.15490  0.95330  0.63490  1.0000 -0.3325620341
C   C40       1.0  0.84510  0.45330  0.86510  1.0000 -0.3325620341
C   C41       1.0  0.06790  0.06140  0.34990  1.0000 -0.3122082773
C   C42       1.0  0.93210  0.56140  0.15010  1.0000 -0.3122082773
C   C43       1.0  0.93210  0.93860  0.65010  1.0000 -0.3122082773
C   C44       1.0  0.06790  0.43860  0.84990  1.0000 -0.3122082773
N   N1        1.0  0.93730  0.03050  0.30790  1.0000 0.1104154614
N   N2        1.0  0.06270  0.53050  0.19210  1.0000 0.1104154614
N   N3        1.0  0.06270  0.96950  0.69210  1.0000 0.1104154614
N   N4        1.0  0.93730  0.46950  0.80790  1.0000 0.1104154614
O   O1        1.0  0.04190  0.79300  0.32490  1.0000 -0.5931081322
O   O2        1.0  0.95810  0.29300  0.17510  1.0000 -0.5931081322
O   O3        1.0  0.95810  0.20700  0.67510  1.0000 -0.5931081322
O   O4        1.0  0.04190  0.70700  0.82490  1.0000 -0.5931081322
O   O5        1.0  0.26750  0.79700  0.41640  1.0000 -0.5489305061
O   O6        1.0  0.73250  0.29700  0.08360  1.0000 -0.5554383146
O   O7        1.0  0.73250  0.20300  0.58360  1.0000 -0.5489305061
O   O8        1.0  0.26750  0.70300  0.91640  1.0000 -0.5489305061
O   O9        1.0  0.24570  0.91380  0.43860  1.0000 -0.5720692623
O   O10       1.0  0.75430  0.41380  0.06140  1.0000 -0.5720692623
O   O11       1.0  0.75430  0.08620  0.56140  1.0000 -0.5720692623
O   O12       1.0  0.24570  0.58620  0.93860  1.0000 -0.5720692623
O   O13       1.0  0.02100  0.91060  0.34150  1.0000 -0.5983559509
O   O14       1.0  0.97900  0.41060  0.15850  1.0000 -0.5983559509
O   O15       1.0  0.97900  0.08940  0.65850  1.0000 -0.5983559509
O   O16       1.0  0.02100  0.58940  0.84150  1.0000 -0.5983559509
O   O17       1.0  0.78110  0.76140  0.73870  1.0000 -0.5754897344
O   O18       1.0  0.21890  0.26140  0.76130  1.0000 -0.5720692623
O   O19       1.0  0.21890  0.23860  0.26130  1.0000 -0.5754897344
O   O20       1.0  0.78110  0.73860  0.23870  1.0000 -0.5754897344
O   O21       1.0  0.63420  0.83130  0.65550  1.0000 -0.5720692623
O   O22       1.0  0.36580  0.33130  0.84450  1.0000 -0.5720692623
O   O23       1.0  0.36580  0.16870  0.34450  1.0000 -0.5720692623
O   O24       1.0  0.63420  0.66870  0.15550  1.0000 -0.5720692623
O   O25       1.0  0.67530  0.68380  0.59790  1.0000 -0.5931081322
O   O26       1.0  0.32470  0.18380  0.90210  1.0000 -0.5983559509
O   O27       1.0  0.32470  0.31620  0.40210  1.0000 -0.5983559509
O   O28       1.0  0.67530  0.81620  0.09790  1.0000 -0.5931081322
O   O29       1.0  0.53200  0.75420  0.51330  1.0000 -0.5418198692
O   O30       1.0  0.46800  0.25420  0.98670  1.0000 -0.5418198692
O   O31       1.0  0.46800  0.24580  0.48670  1.0000 -0.5489305061
O   O32       1.0  0.53200  0.74580  0.01330  1.0000 -0.5418198692
O   O33       1.0  0.82890  0.84740  0.40550  1.0000 -0.6170693385
O   O34       1.0  0.17110  0.34740  0.09450  1.0000 -0.6170693385
O   O35       1.0  0.17110  0.15260  0.59450  1.0000 -0.6170693385
O   O36       1.0  0.82890  0.65260  0.90550  1.0000 -0.6170693385
O   O37       1.0  0.70050  0.85850  0.49590  1.0000 -0.5489305061
O   O38       1.0  0.29950  0.35850  0.00410  1.0000 -0.5489305061
O   O39       1.0  0.29950  0.14150  0.50410  1.0000 -0.5489305061
O   O40       1.0  0.70050  0.64150  0.99590  1.0000 -0.5489305061
O   O41       1.0  0.59550  0.83360  0.25600  1.0000 -0.5754897344
O   O42       1.0  0.40450  0.33360  0.24400  1.0000 -0.5720692623
O   O43       1.0  0.40450  0.16640  0.74400  1.0000 -0.5720692623
O   O44       1.0  0.59550  0.66640  0.75600  1.0000 -0.5720692623
O   O45       1.0  0.46760  0.83230  0.34740  1.0000 -0.5489305061
O   O46       1.0  0.53240  0.33230  0.15260  1.0000 -0.5418198692
O   O47       1.0  0.53240  0.16770  0.65260  1.0000 -0.5489305061
O   O48       1.0  0.46760  0.66770  0.84740  1.0000 -0.5489305061
O   O49       1.0  0.48650  0.95080  0.41040  1.0000 -0.5418198692
O   O50       1.0  0.51350  0.45080  0.08960  1.0000 -0.5343606221
O   O51       1.0  0.51350  0.04920  0.58960  1.0000 -0.5343606221
O   O52       1.0  0.48650  0.54920  0.91040  1.0000 -0.5343606221
O   O53       1.0  0.47920  0.05050  0.40860  1.0000 -0.5983559509
O   O54       1.0  0.52080  0.55050  0.09140  1.0000 -0.5983559509
O   O55       1.0  0.52080  0.94950  0.59140  1.0000 -0.5983559509
O   O56       1.0  0.47920  0.44950  0.90860  1.0000 -0.5983559509
O   O57       1.0  0.89550  0.93540  0.96760  1.0000 -0.6317552823
O   O58       1.0  0.10450  0.43540  0.53240  1.0000 -0.6317552823
O   O59       1.0  0.10450  0.06460  0.03240  1.0000 -0.6317552823
O   O60       1.0  0.89550  0.56460  0.46760  1.0000 -0.6317552823
O   O61       1.0  0.12820  0.94520  0.03840  1.0000 -0.5983559509
O   O62       1.0  0.87180  0.44520  0.46160  1.0000 -0.5931081322
O   O63       1.0  0.87180  0.05480  0.96160  1.0000 -0.5931081322
O   O64       1.0  0.12820  0.55480  0.53840  1.0000 -0.5931081322
O   O65       1.0  0.70510  0.98470  0.06280  1.0000 -0.9283992844
O   O66       1.0  0.29490  0.48470  0.43720  1.0000 -0.9283992844
O   O67       1.0  0.29490  0.01530  0.93720  1.0000 -0.9283992844
O   O68       1.0  0.70510  0.51530  0.56280  1.0000 -0.9283992844
O   O69       1.0  0.57040  0.01960  0.16010  1.0000 -0.9231313514
O   O70       1.0  0.42960  0.51960  0.33990  1.0000 -0.9231313514
O   O71       1.0  0.42960  0.98040  0.83990  1.0000 -0.9231313514
O   O72       1.0  0.57040  0.48040  0.66010  1.0000 -0.9231313514
O   O73       1.0  0.74280  0.93650  0.21470  1.0000 -0.8629297215
O   O74       1.0  0.25720  0.43650  0.28530  1.0000 -0.8629297215
O   O75       1.0  0.25720  0.06350  0.78530  1.0000 -0.8629297215
O   O76       1.0  0.74280  0.56350  0.71470  1.0000 -0.8629297215
