# DDEC6 charges by PACMAN v1.1 (https://github.com/mtap-research/PACMAN-charge/)
data_2005[Zn][pcu]3[ASR]12
_chemical_formula_sum              "Zn4 H24 C36 N4 O16"
_cell_length_a       8.87372
_cell_length_b       8.87372
_cell_length_c       14.0404
_cell_angle_alpha    78.3882
_cell_angle_beta     101.612
_cell_angle_gamma    98.5095

_symmetry_space_group_name_H-M    "P 1"
_symmetry_Int_Tables_number       1

loop_
  _symmetry_equiv_pos_as_xyz
  'x, y, z'

loop_
  _atom_site_type_symbol
  _atom_site_label
  _atom_site_symmetry_multiplicity
  _atom_site_fract_x
  _atom_site_fract_y
  _atom_site_fract_z
  _atom_site_occupancy
  _atom_site_charge
Zn  Zn1       1.0  0.23846  0.76154  0.58264  1.0000 0.823035136
Zn  Zn2       1.0  0.26892  0.73108  0.79925  1.0000 0.8285845669
Zn  Zn3       1.0  0.76154  0.23846  0.41736  1.0000 0.823035136
Zn  Zn4       1.0  0.73108  0.26892  0.20075  1.0000 0.8285845669
H   H1        1.0  0.77860  0.73440  0.79320  1.0000 0.1324553342
H   H2        1.0  0.26560  0.22140  0.79320  1.0000 0.1324553342
H   H3        1.0  0.73170  0.76810  0.58980  1.0000 0.1451685579
H   H4        1.0  0.23190  0.26830  0.58980  1.0000 0.1451685579
H   H5        1.0  0.07450  0.58670  0.42460  1.0000 0.1159052242
H   H6        1.0  0.41330  0.92550  0.42460  1.0000 0.1159052242
H   H7        1.0  0.08000  0.57440  0.26170  1.0000 0.1324553342
H   H8        1.0  0.42560  0.92000  0.26170  1.0000 0.1324553342
H   H9        1.0  0.10090  0.56810  0.12260  1.0000 0.1324553342
H   H10       1.0  0.43190  0.89910  0.12260  1.0000 0.1324553342
H   H11       1.0  0.11720  0.56800  0.96110  1.0000 0.1137567624
H   H12       1.0  0.43200  0.88280  0.96110  1.0000 0.1137567624
H   H13       1.0  0.73440  0.77860  0.20680  1.0000 0.1324553342
H   H14       1.0  0.22140  0.26560  0.20680  1.0000 0.1324553342
H   H15       1.0  0.76810  0.73170  0.41020  1.0000 0.1451685579
H   H16       1.0  0.26830  0.23190  0.41020  1.0000 0.1451685579
H   H17       1.0  0.58670  0.07450  0.57540  1.0000 0.1159052242
H   H18       1.0  0.92550  0.41330  0.57540  1.0000 0.1159052242
H   H19       1.0  0.57440  0.08000  0.73830  1.0000 0.1324553342
H   H20       1.0  0.92000  0.42560  0.73830  1.0000 0.1324553342
H   H21       1.0  0.56810  0.10090  0.87740  1.0000 0.1324553342
H   H22       1.0  0.89910  0.43190  0.87740  1.0000 0.1324553342
H   H23       1.0  0.56800  0.11720  0.03890  1.0000 0.1137567624
H   H24       1.0  0.88280  0.43200  0.03890  1.0000 0.1137567624
C   C1        1.0  0.55040  0.75620  0.71640  1.0000 0.607431397
C   C2        1.0  0.24380  0.44960  0.71640  1.0000 0.607431397
C   C3        1.0  0.71940  0.74640  0.72830  1.0000 -0.1983781704
C   C4        1.0  0.25360  0.28060  0.72830  1.0000 -0.1983781704
C   C5        1.0  0.79060  0.75340  0.65470  1.0000 -0.1782646363
C   C6        1.0  0.24660  0.20940  0.65470  1.0000 -0.1782646363
C   C7        1.0  0.95940  0.73980  0.66630  1.0000 0.607431397
C   C8        1.0  0.26020  0.04060  0.66630  1.0000 0.607431397
C   C9        1.0  0.14670  0.65630  0.39110  1.0000 0.091516033
C   C10       1.0  0.34370  0.85330  0.39110  1.0000 0.091516033
C   C11       1.0  0.15080  0.64700  0.29430  1.0000 -0.1782646363
C   C12       1.0  0.35300  0.84920  0.29430  1.0000 -0.1782646363
C   C13       1.0  0.25700  0.74300  0.24600  1.0000 0.1159052242
C   C14       1.0  0.26570  0.73430  0.14110  1.0000 0.1137567624
C   C15       1.0  0.17570  0.63950  0.09230  1.0000 -0.2175510561
C   C16       1.0  0.36050  0.82430  0.09230  1.0000 -0.2175510561
C   C17       1.0  0.18720  0.64120  0.99370  1.0000 0.091516033
C   C18       1.0  0.35880  0.81280  0.99370  1.0000 0.091516033
C   C19       1.0  0.75620  0.55040  0.28360  1.0000 0.607431397
C   C20       1.0  0.44960  0.24380  0.28360  1.0000 0.607431397
C   C21       1.0  0.74640  0.71940  0.27170  1.0000 -0.1983781704
C   C22       1.0  0.28060  0.25360  0.27170  1.0000 -0.1983781704
C   C23       1.0  0.75340  0.79060  0.34530  1.0000 -0.1782646363
C   C24       1.0  0.20940  0.24660  0.34530  1.0000 -0.1782646363
C   C25       1.0  0.73980  0.95940  0.33370  1.0000 0.607431397
C   C26       1.0  0.04060  0.26020  0.33370  1.0000 0.607431397
C   C27       1.0  0.65630  0.14670  0.60890  1.0000 0.091516033
C   C28       1.0  0.85330  0.34370  0.60890  1.0000 0.091516033
C   C29       1.0  0.64700  0.15080  0.70570  1.0000 -0.1782646363
C   C30       1.0  0.84920  0.35300  0.70570  1.0000 -0.1782646363
C   C31       1.0  0.74300  0.25700  0.75400  1.0000 0.1159052242
C   C32       1.0  0.73430  0.26570  0.85890  1.0000 0.1137567624
C   C33       1.0  0.63950  0.17570  0.90770  1.0000 -0.2175510561
C   C34       1.0  0.82430  0.36050  0.90770  1.0000 -0.2175510561
C   C35       1.0  0.64120  0.18720  0.00630  1.0000 0.091516033
C   C36       1.0  0.81280  0.35880  0.00630  1.0000 0.091516033
N   N1        1.0  0.24060  0.75940  0.43880  1.0000 -0.1983781704
N   N2        1.0  0.27550  0.72450  0.94540  1.0000 -0.0855830459
N   N3        1.0  0.75940  0.24060  0.56120  1.0000 -0.1983781704
N   N4        1.0  0.72450  0.27550  0.05460  1.0000 -0.0855830459
O   O1        1.0  0.47210  0.77210  0.63220  1.0000 -0.5312072931
O   O2        1.0  0.22790  0.52790  0.63220  1.0000 -0.5312072931
O   O3        1.0  0.49810  0.74430  0.79580  1.0000 -0.5624087898
O   O4        1.0  0.25570  0.50190  0.79580  1.0000 -0.5624087898
O   O5        1.0  0.03540  0.72180  0.75260  1.0000 -0.5714697687
O   O6        1.0  0.27820  0.96460  0.75260  1.0000 -0.5714697687
O   O7        1.0  0.01000  0.74700  0.58840  1.0000 -0.5312072931
O   O8        1.0  0.25300  0.99000  0.58840  1.0000 -0.5312072931
O   O9        1.0  0.77210  0.47210  0.36780  1.0000 -0.5312072931
O   O10       1.0  0.52790  0.22790  0.36780  1.0000 -0.5312072931
O   O11       1.0  0.74430  0.49810  0.20420  1.0000 -0.5624087898
O   O12       1.0  0.50190  0.25570  0.20420  1.0000 -0.5624087898
O   O13       1.0  0.72180  0.03540  0.24740  1.0000 -0.5714697687
O   O14       1.0  0.96460  0.27820  0.24740  1.0000 -0.5714697687
O   O15       1.0  0.74700  0.01000  0.41160  1.0000 -0.5312072931
O   O16       1.0  0.99000  0.25300  0.41160  1.0000 -0.5312072931
