# DDEC6 charges by PACMAN v1.1 (https://github.com/mtap-research/PACMAN-charge/)
data_2005[Mn][ins]3[ASR]1
_chemical_formula_sum              "Mn4 H28 C36 N4 O16"
_cell_length_a       7.413
_cell_length_b       23.889
_cell_length_c       10.3156
_cell_angle_alpha    90
_cell_angle_beta     133.672
_cell_angle_gamma    90

_symmetry_space_group_name_H-M    "P 1"
_symmetry_Int_Tables_number       1

loop_
  _symmetry_equiv_pos_as_xyz
  'x, y, z'

loop_
  _atom_site_type_symbol
  _atom_site_label
  _atom_site_symmetry_multiplicity
  _atom_site_fract_x
  _atom_site_fract_y
  _atom_site_fract_z
  _atom_site_occupancy
  _atom_site_charge
Mn  Mn1       1.0  0.50990  0.28479  0.14487  1.0000 0.9552044673
Mn  Mn2       1.0  0.49010  0.78479  0.35513  1.0000 0.9552044673
Mn  Mn3       1.0  0.49010  0.71521  0.85513  1.0000 0.9552044673
Mn  Mn4       1.0  0.50990  0.21521  0.64487  1.0000 0.9552044673
H   H1        1.0  0.81180  0.12760  0.15640  1.0000 0.1527478673
H   H2        1.0  0.18820  0.62760  0.34360  1.0000 0.1527478673
H   H3        1.0  0.18820  0.87240  0.84360  1.0000 0.1527478673
H   H4        1.0  0.81180  0.37240  0.65640  1.0000 0.1527478673
H   H5        1.0  0.61500  0.14780  0.16090  1.0000 0.1527478673
H   H6        1.0  0.38500  0.64780  0.33910  1.0000 0.1527478673
H   H7        1.0  0.38500  0.85220  0.83910  1.0000 0.1527478673
H   H8        1.0  0.61500  0.35220  0.66090  1.0000 0.1527478673
H   H9        1.0  0.38920  0.40480  0.95810  1.0000 0.1076625763
H   H10       1.0  0.61080  0.90480  0.54190  1.0000 0.1076625763
H   H11       1.0  0.61080  0.59520  0.04190  1.0000 0.1076625763
H   H12       1.0  0.38920  0.09520  0.45810  1.0000 0.1076625763
H   H13       1.0  0.55260  0.47240  0.90500  1.0000 0.1316077514
H   H14       1.0  0.44740  0.97240  0.59500  1.0000 0.1316077514
H   H15       1.0  0.44740  0.52760  0.09500  1.0000 0.1316077514
H   H16       1.0  0.55260  0.02760  0.40500  1.0000 0.1316077514
H   H17       1.0  0.16600  0.38470  0.18220  1.0000 0.1527478673
H   H18       1.0  0.83400  0.88470  0.31780  1.0000 0.1527478673
H   H19       1.0  0.83400  0.61530  0.81780  1.0000 0.1527478673
H   H20       1.0  0.16600  0.11530  0.68220  1.0000 0.1527478673
H   H21       1.0  0.99070  0.31830  0.22070  1.0000 0.1316077514
H   H22       1.0  0.00930  0.81830  0.27930  1.0000 0.1316077514
H   H23       1.0  0.00930  0.68170  0.77930  1.0000 0.1316077514
H   H24       1.0  0.99070  0.18170  0.72070  1.0000 0.1316077514
H   H25       1.0  0.17890  0.46630  0.08950  1.0000 0.1403586818
H   H26       1.0  0.82110  0.96630  0.41050  1.0000 0.1403586818
H   H27       1.0  0.82110  0.53370  0.91050  1.0000 0.1403586818
H   H28       1.0  0.17890  0.03370  0.58950  1.0000 0.1403586818
C   C1        1.0  0.93300  0.19626  0.31970  1.0000 0.6621651007
C   C2        1.0  0.06700  0.69626  0.18030  1.0000 0.6621651007
C   C3        1.0  0.06700  0.80374  0.68030  1.0000 0.6621651007
C   C4        1.0  0.93300  0.30374  0.81970  1.0000 0.6621651007
C   C5        1.0  0.73360  0.16042  0.15500  1.0000 -0.5171727287
C   C6        1.0  0.26640  0.66042  0.34500  1.0000 -0.5171727287
C   C7        1.0  0.26640  0.83958  0.84500  1.0000 -0.5171727287
C   C8        1.0  0.73360  0.33958  0.65500  1.0000 -0.5171727287
C   C9        1.0  0.59380  0.19209  0.97920  1.0000 0.6621651007
C   C10       1.0  0.40620  0.69209  0.52080  1.0000 0.6621651007
C   C11       1.0  0.40620  0.80791  0.02080  1.0000 0.6621651007
C   C12       1.0  0.59380  0.30791  0.47920  1.0000 0.6621651007
C   C13       1.0  0.54960  0.40010  0.00530  1.0000 0.0866322396
C   C14       1.0  0.45040  0.90010  0.49470  1.0000 0.0866322396
C   C15       1.0  0.45040  0.59990  0.99470  1.0000 0.0866322396
C   C16       1.0  0.54960  0.09990  0.50530  1.0000 0.0866322396
C   C17       1.0  0.64910  0.44140  0.97420  1.0000 -0.2363394173
C   C18       1.0  0.35090  0.94140  0.52580  1.0000 -0.2363394173
C   C19       1.0  0.35090  0.55860  0.02580  1.0000 -0.2363394173
C   C20       1.0  0.64910  0.05860  0.47420  1.0000 -0.2363394173
C   C21       1.0  0.88610  0.43710  0.04390  1.0000 0.1227945304
C   C22       1.0  0.11390  0.93710  0.45610  1.0000 0.1227945304
C   C23       1.0  0.11390  0.56290  0.95610  1.0000 0.1227945304
C   C24       1.0  0.88610  0.06290  0.54390  1.0000 0.1227945304
C   C25       1.0  0.00550  0.39050  0.13410  1.0000 -0.1941215293
C   C26       1.0  0.99450  0.89050  0.36590  1.0000 -0.1941215293
C   C27       1.0  0.99450  0.60950  0.86590  1.0000 -0.1941215293
C   C28       1.0  0.00550  0.10950  0.63410  1.0000 -0.1941215293
C   C29       1.0  0.89880  0.35050  0.15820  1.0000 0.101736444
C   C30       1.0  0.10120  0.85050  0.34180  1.0000 0.101736444
C   C31       1.0  0.10120  0.64950  0.84180  1.0000 0.101736444
C   C32       1.0  0.89880  0.14950  0.65820  1.0000 0.101736444
C   C33       1.0  0.01920  0.47860  0.03090  1.0000 -0.0955787422
C   C34       1.0  0.98080  0.97860  0.46910  1.0000 -0.0948851602
C   C35       1.0  0.98080  0.52140  0.96910  1.0000 -0.0948851602
C   C36       1.0  0.01920  0.02140  0.53090  1.0000 -0.0948851602
N   N1        1.0  0.67460  0.35443  0.09910  1.0000 -0.2106834697
N   N2        1.0  0.32540  0.85443  0.40090  1.0000 -0.2106834697
N   N3        1.0  0.32540  0.64557  0.90090  1.0000 -0.2106834697
N   N4        1.0  0.67460  0.14557  0.59910  1.0000 -0.2106834697
O   O1        1.0  0.86970  0.24248  0.33790  1.0000 -0.574627866
O   O2        1.0  0.13030  0.74248  0.16210  1.0000 -0.574627866
O   O3        1.0  0.13030  0.75752  0.66210  1.0000 -0.574627866
O   O4        1.0  0.86970  0.25752  0.83790  1.0000 -0.574627866
O   O5        1.0  0.15070  0.17713  0.42910  1.0000 -0.574627866
O   O6        1.0  0.84930  0.67713  0.07090  1.0000 -0.574627866
O   O7        1.0  0.84930  0.82287  0.57090  1.0000 -0.574627866
O   O8        1.0  0.15070  0.32287  0.92910  1.0000 -0.574627866
O   O9        1.0  0.60310  0.17264  0.87080  1.0000 -0.574627866
O   O10       1.0  0.39690  0.67264  0.62920  1.0000 -0.574627866
O   O11       1.0  0.39690  0.82736  0.12920  1.0000 -0.574627866
O   O12       1.0  0.60310  0.32736  0.37080  1.0000 -0.574627866
O   O13       1.0  0.47590  0.23563  0.95170  1.0000 -0.5829189466
O   O14       1.0  0.52410  0.73563  0.54830  1.0000 -0.5829189466
O   O15       1.0  0.52410  0.76437  0.04830  1.0000 -0.5829189466
O   O16       1.0  0.47590  0.26437  0.45170  1.0000 -0.5829189466
