# DDEC6 charges by PACMAN v1.1 (https://github.com/mtap-research/PACMAN-charge/)
data_2005[Nd][nan]3[ASR]3
_chemical_formula_sum              "Nd2 H24 C18 O12"
_cell_length_a       9.241
_cell_length_b       9.74595
_cell_length_c       10.661
_cell_angle_alpha    112.288
_cell_angle_beta     84.68
_cell_angle_gamma    118.265

_symmetry_space_group_name_H-M    "P 1"
_symmetry_Int_Tables_number       1

loop_
  _symmetry_equiv_pos_as_xyz
  'x, y, z'

loop_
  _atom_site_type_symbol
  _atom_site_label
  _atom_site_symmetry_multiplicity
  _atom_site_fract_x
  _atom_site_fract_y
  _atom_site_fract_z
  _atom_site_occupancy
  _atom_site_charge
Nd  Nd1       1.0  0.22031  0.45649  0.98161  1.0000 2.0842830708
Nd  Nd2       1.0  0.77969  0.54351  0.01839  1.0000 2.0887100269
H   H1        1.0  0.41170  0.96270  0.87210  1.0000 0.1309660743
H   H2        1.0  0.58830  0.03730  0.12790  1.0000 0.1309660743
H   H3        1.0  0.43600  0.96700  0.72720  1.0000 0.1238040646
H   H4        1.0  0.56400  0.03300  0.27280  1.0000 0.1238040646
H   H5        1.0  0.43380  0.69980  0.61050  1.0000 0.076187255
H   H6        1.0  0.56620  0.30020  0.38950  1.0000 0.076187255
H   H7        1.0  0.36180  0.65970  0.75060  1.0000 0.0877945617
H   H8        1.0  0.63820  0.34030  0.24940  1.0000 0.0877945617
H   H9        1.0  0.45520  0.46230  0.61800  1.0000 0.1309660743
H   H10       1.0  0.54480  0.53770  0.38200  1.0000 0.1309660743
H   H11       1.0  0.63820  0.62200  0.62610  1.0000 0.1309660743
H   H12       1.0  0.36180  0.37800  0.37390  1.0000 0.1309660743
H   H13       1.0  0.88410  0.27710  0.56950  1.0000 0.1381634792
H   H14       1.0  0.11590  0.72290  0.43050  1.0000 0.1381634792
H   H15       1.0  0.82330  0.40620  0.64330  1.0000 0.1381634792
H   H16       1.0  0.17670  0.59380  0.35670  1.0000 0.1381634792
H   H17       1.0  0.67640  0.93990  0.73610  1.0000 0.0877945617
H   H18       1.0  0.32360  0.06010  0.26390  1.0000 0.0877945617
H   H19       1.0  0.62100  0.90540  0.86500  1.0000 0.1030154006
H   H20       1.0  0.37900  0.09460  0.13500  1.0000 0.1030154006
H   H21       1.0  0.12590  0.47790  0.53660  1.0000 0.1030154006
H   H22       1.0  0.87410  0.52210  0.46340  1.0000 0.1030154006
H   H23       1.0  0.09850  0.63280  0.63270  1.0000 0.0877945617
H   H24       1.0  0.90150  0.36720  0.36730  1.0000 0.0877945617
C   C1        1.0  0.59070  0.58520  0.80946  1.0000 0.6937851479
C   C2        1.0  0.40930  0.41480  0.19054  1.0000 0.6937851479
C   C3        1.0  0.48680  0.98650  0.81010  1.0000 -0.3159321974
C   C4        1.0  0.51320  0.01350  0.18990  1.0000 -0.3159321974
C   C5        1.0  0.46450  0.69940  0.70150  1.0000 -0.1589856501
C   C6        1.0  0.53550  0.30060  0.29850  1.0000 -0.1589856501
C   C7        1.0  0.00780  0.40510  0.74947  1.0000 0.6694168617
C   C8        1.0  0.99220  0.59490  0.25053  1.0000 0.6694168617
C   C9        1.0  0.54450  0.58730  0.67920  1.0000 -0.3325424771
C   C10       1.0  0.45550  0.41270  0.32080  1.0000 -0.3325424771
C   C11       1.0  0.92180  0.38430  0.62580  1.0000 -0.3325424771
C   C12       1.0  0.07820  0.61570  0.37420  1.0000 -0.3325424771
C   C13       1.0  0.59440  0.17480  0.87790  1.0000 0.6178444197
C   C14       1.0  0.40560  0.82520  0.12210  1.0000 0.6178444197
C   C15       1.0  0.57850  0.88490  0.78510  1.0000 -0.1242472211
C   C16       1.0  0.42150  0.11510  0.21490  1.0000 -0.1242472211
C   C17       1.0  0.04160  0.50550  0.56120  1.0000 -0.1343627776
C   C18       1.0  0.95840  0.49450  0.43880  1.0000 -0.1343627776
O   O1        1.0  0.48340  0.54890  0.88918  1.0000 -0.7003750036
O   O2        1.0  0.51660  0.45110  0.11082  1.0000 -0.7003750036
O   O3        1.0  0.97184  0.46680  0.86715  1.0000 -0.7065291236
O   O4        1.0  0.02816  0.53320  0.13285  1.0000 -0.7065291236
O   O5        1.0  0.69479  0.23722  0.98116  1.0000 -0.6455024312
O   O6        1.0  0.30521  0.76278  0.01884  1.0000 -0.6455024312
O   O7        1.0  0.73658  0.61690  0.83381  1.0000 -0.6694633494
O   O8        1.0  0.26342  0.38310  0.16619  1.0000 -0.6694633494
O   O9        1.0  0.57929  0.27039  0.83198  1.0000 -0.6428456286
O   O10       1.0  0.42071  0.72961  0.16802  1.0000 -0.6428456286
O   O11       1.0  0.12220  0.36630  0.73615  1.0000 -0.6428456286
O   O12       1.0  0.87780  0.63370  0.26385  1.0000 -0.6428456286
