# DDEC6 charges by PACMAN v1.1 (https://github.com/mtap-research/PACMAN-charge/)
data_2005[Ag][dia]3[ASR]1
_chemical_formula_sum              "Ag2 H68 C76 N8"
_cell_length_a       13.5835
_cell_length_b       13.5835
_cell_length_c       16.501
_cell_angle_alpha    60.1979
_cell_angle_beta     119.802
_cell_angle_gamma    102.378

_symmetry_space_group_name_H-M    "P 1"
_symmetry_Int_Tables_number       1

loop_
  _symmetry_equiv_pos_as_xyz
  'x, y, z'

loop_
  _atom_site_type_symbol
  _atom_site_label
  _atom_site_symmetry_multiplicity
  _atom_site_fract_x
  _atom_site_fract_y
  _atom_site_fract_z
  _atom_site_occupancy
  _atom_site_charge
Ag  Ag1       1.0  0.93100  0.93100  0.75000  1.0000 0.1971385574
Ag  Ag2       1.0  0.06900  0.06900  0.25000  1.0000 0.1971385574
H   H1        1.0  0.16920  0.03220  0.86550  1.0000 0.0917457748
H   H2        1.0  0.03220  0.16920  0.63450  1.0000 0.0917457748
H   H3        1.0  0.36630  0.99450  0.95780  1.0000 0.1300840123
H   H4        1.0  0.99450  0.36630  0.54220  1.0000 0.1300840123
H   H5        1.0  0.11240  0.72580  0.89300  1.0000 0.0917457748
H   H6        1.0  0.72580  0.11240  0.60700  1.0000 0.0917457748
H   H7        1.0  0.30510  0.67950  0.98670  1.0000 0.1300840123
H   H8        1.0  0.67950  0.30510  0.51330  1.0000 0.1300840123
H   H9        1.0  0.39140  0.88580  0.82790  1.0000 0.1368742929
H   H10       1.0  0.88580  0.39140  0.67210  1.0000 0.1368742929
H   H11       1.0  0.50080  0.87200  0.82120  1.0000 0.1300840123
H   H12       1.0  0.87200  0.50080  0.67880  1.0000 0.1300840123
H   H13       1.0  0.48380  0.98140  0.82640  1.0000 0.1300840123
H   H14       1.0  0.98140  0.48380  0.67360  1.0000 0.1300840123
H   H15       1.0  0.42670  0.77630  0.17570  1.0000 0.1222018248
H   H16       1.0  0.77630  0.42670  0.32430  1.0000 0.1222018248
H   H17       1.0  0.53400  0.69700  0.27840  1.0000 0.1300840123
H   H18       1.0  0.69700  0.53400  0.22160  1.0000 0.1300840123
H   H19       1.0  0.43650  0.64650  0.20400  1.0000 0.1300840123
H   H20       1.0  0.64650  0.43650  0.29600  1.0000 0.1300840123
H   H21       1.0  0.87240  0.69420  0.25610  1.0000 0.1300840123
H   H22       1.0  0.69420  0.87240  0.24390  1.0000 0.1300840123
H   H23       1.0  0.87690  0.78890  0.15000  1.0000 0.1222018248
H   H24       1.0  0.78890  0.87690  0.35000  1.0000 0.1222018248
H   H25       1.0  0.84650  0.66190  0.16660  1.0000 0.1368742929
H   H26       1.0  0.66190  0.84650  0.33340  1.0000 0.1368742929
H   H27       1.0  0.73070  0.00550  0.91720  1.0000 0.1300840123
H   H28       1.0  0.00550  0.73070  0.58280  1.0000 0.1300840123
H   H29       1.0  0.83020  0.04320  0.82340  1.0000 0.0960817563
H   H30       1.0  0.04320  0.83020  0.67660  1.0000 0.0960817563
H   H31       1.0  0.70710  0.68410  0.96460  1.0000 0.1368742929
H   H32       1.0  0.68410  0.70710  0.53540  1.0000 0.1368742929
H   H33       1.0  0.79780  0.73180  0.86320  1.0000 0.0917457748
H   H34       1.0  0.73180  0.79780  0.63680  1.0000 0.0917457748
H   H35       1.0  0.83080  0.96780  0.13450  1.0000 0.0917457748
H   H36       1.0  0.96780  0.83080  0.36550  1.0000 0.0917457748
H   H37       1.0  0.63370  0.00550  0.04220  1.0000 0.1300840123
H   H38       1.0  0.00550  0.63370  0.45780  1.0000 0.1300840123
H   H39       1.0  0.88760  0.27420  0.10700  1.0000 0.0917457748
H   H40       1.0  0.27420  0.88760  0.39300  1.0000 0.0917457748
H   H41       1.0  0.69490  0.32050  0.01330  1.0000 0.1300840123
H   H42       1.0  0.32050  0.69490  0.48670  1.0000 0.1300840123
H   H43       1.0  0.60860  0.11420  0.17210  1.0000 0.1368742929
H   H44       1.0  0.11420  0.60860  0.32790  1.0000 0.1368742929
H   H45       1.0  0.49920  0.12800  0.17880  1.0000 0.1300840123
H   H46       1.0  0.12800  0.49920  0.32120  1.0000 0.1300840123
H   H47       1.0  0.51620  0.01860  0.17360  1.0000 0.1300840123
H   H48       1.0  0.01860  0.51620  0.32640  1.0000 0.1300840123
H   H49       1.0  0.57330  0.22370  0.82430  1.0000 0.1222018248
H   H50       1.0  0.22370  0.57330  0.67570  1.0000 0.1222018248
H   H51       1.0  0.46600  0.30300  0.72160  1.0000 0.1300840123
H   H52       1.0  0.30300  0.46600  0.77840  1.0000 0.1300840123
H   H53       1.0  0.56350  0.35350  0.79600  1.0000 0.1300840123
H   H54       1.0  0.35350  0.56350  0.70400  1.0000 0.1300840123
H   H55       1.0  0.12760  0.30580  0.74390  1.0000 0.1300840123
H   H56       1.0  0.30580  0.12760  0.75610  1.0000 0.1300840123
H   H57       1.0  0.12310  0.21110  0.85000  1.0000 0.1222018248
H   H58       1.0  0.21110  0.12310  0.65000  1.0000 0.1222018248
H   H59       1.0  0.15350  0.33810  0.83340  1.0000 0.1368742929
H   H60       1.0  0.33810  0.15350  0.66667  1.0000 0.1368742929
H   H61       1.0  0.26930  0.99450  0.08280  1.0000 0.1300840123
H   H62       1.0  0.99450  0.26930  0.41720  1.0000 0.1300840123
H   H63       1.0  0.16980  0.95680  0.17660  1.0000 0.0960817563
H   H64       1.0  0.95680  0.16980  0.32340  1.0000 0.0960817563
H   H65       1.0  0.29290  0.31590  0.03540  1.0000 0.1368742929
H   H66       1.0  0.31590  0.29290  0.46460  1.0000 0.1368742929
H   H67       1.0  0.20220  0.26820  0.13680  1.0000 0.0917457748
H   H68       1.0  0.26820  0.20220  0.36320  1.0000 0.0917457748
C   C1        1.0  0.19690  0.95970  0.88850  1.0000 0.0693538272
C   C2        1.0  0.95970  0.19690  0.61150  1.0000 0.0693538272
C   C3        1.0  0.31600  0.93800  0.94430  1.0000 -0.2022648532
C   C4        1.0  0.93800  0.31600  0.55570  1.0000 -0.2022648532
C   C5        1.0  0.16420  0.78220  0.90480  1.0000 0.0153447559
C   C6        1.0  0.78220  0.16420  0.59520  1.0000 0.0141418374
C   C7        1.0  0.27980  0.75420  0.96060  1.0000 -0.1919523085
C   C8        1.0  0.75420  0.27980  0.53940  1.0000 -0.1919523085
C   C9        1.0  0.35720  0.83320  0.97830  1.0000 0.1300840123
C   C10       1.0  0.83320  0.35720  0.52170  1.0000 0.1300840123
C   C11       1.0  0.48260  0.80680  0.03200  1.0000 -0.0805464329
C   C12       1.0  0.80680  0.48260  0.46800  1.0000 -0.0805464329
C   C13       1.0  0.53730  0.83730  0.97090  1.0000 0.0693538272
C   C14       1.0  0.83730  0.53730  0.52910  1.0000 0.0693538272
C   C15       1.0  0.65270  0.80970  0.02010  1.0000 -0.0733655577
C   C16       1.0  0.80970  0.65270  0.47990  1.0000 -0.0733655577
C   C17       1.0  0.71400  0.75180  0.13000  1.0000 0.0693538272
C   C18       1.0  0.75180  0.71400  0.37000  1.0000 0.0693538272
C   C19       1.0  0.65860  0.72160  0.19120  1.0000 -0.0441556701
C   C20       1.0  0.72160  0.65860  0.30880  1.0000 -0.0453031936
C   C21       1.0  0.54210  0.74890  0.14130  1.0000 0.0837628229
C   C22       1.0  0.74890  0.54210  0.35870  1.0000 0.0837628229
C   C23       1.0  0.47250  0.89970  0.85080  1.0000 -0.4553639793
C   C24       1.0  0.89970  0.47250  0.64920  1.0000 -0.4553639793
C   C25       1.0  0.47930  0.71410  0.20550  1.0000 -0.4546902025
C   C26       1.0  0.71410  0.47930  0.29450  1.0000 -0.4546902025
C   C27       1.0  0.83830  0.72150  0.18010  1.0000 -0.4765423739
C   C28       1.0  0.72150  0.83830  0.31990  1.0000 -0.4765423739
C   C29       1.0  0.71290  0.83950  0.95500  1.0000 0.1300840123
C   C30       1.0  0.83950  0.71290  0.54500  1.0000 0.1300840123
C   C31       1.0  0.74630  0.94650  0.90960  1.0000 -0.2022648532
C   C32       1.0  0.94650  0.74630  0.59040  1.0000 -0.2022648532
C   C33       1.0  0.80350  0.96930  0.85160  1.0000 0.043827303
C   C34       1.0  0.96930  0.80350  0.64840  1.0000 0.043827303
C   C35       1.0  0.73140  0.75920  0.93630  1.0000 -0.2022648532
C   C36       1.0  0.75920  0.73140  0.56370  1.0000 -0.2022648532
C   C37       1.0  0.78580  0.78820  0.87580  1.0000 0.043827303
C   C38       1.0  0.78820  0.78580  0.62420  1.0000 0.043827303
C   C39       1.0  0.80310  0.04030  0.11150  1.0000 0.0693538272
C   C40       1.0  0.04030  0.80310  0.38850  1.0000 0.0693538272
C   C41       1.0  0.68400  0.06200  0.05570  1.0000 -0.2022648532
C   C42       1.0  0.06200  0.68400  0.44430  1.0000 -0.2022648532
C   C43       1.0  0.83580  0.21780  0.09520  1.0000 0.0141418374
C   C44       1.0  0.21780  0.83580  0.40480  1.0000 0.0141418374
C   C45       1.0  0.72020  0.24580  0.03940  1.0000 -0.1919523085
C   C46       1.0  0.24580  0.72020  0.46060  1.0000 -0.1919523085
C   C47       1.0  0.64280  0.16680  0.02170  1.0000 0.1300840123
C   C48       1.0  0.16680  0.64280  0.47830  1.0000 0.1300840123
C   C49       1.0  0.51740  0.19320  0.96800  1.0000 -0.0805464329
C   C50       1.0  0.19320  0.51740  0.53200  1.0000 -0.0805464329
C   C51       1.0  0.46270  0.16270  0.02910  1.0000 0.0693538272
C   C52       1.0  0.16270  0.46270  0.47090  1.0000 0.0693538272
C   C53       1.0  0.34730  0.19030  0.97990  1.0000 -0.0733655577
C   C54       1.0  0.19030  0.34730  0.52010  1.0000 -0.0733655577
C   C55       1.0  0.28600  0.24820  0.87000  1.0000 0.0693538272
C   C56       1.0  0.24820  0.28600  0.63000  1.0000 0.0693538272
C   C57       1.0  0.34140  0.27840  0.80880  1.0000 -0.0453031936
C   C58       1.0  0.27840  0.34140  0.69120  1.0000 -0.0441556701
C   C59       1.0  0.45790  0.25110  0.85870  1.0000 0.0837628229
C   C60       1.0  0.25110  0.45790  0.64130  1.0000 0.0837628229
C   C61       1.0  0.52750  0.10030  0.14920  1.0000 -0.4546902025
C   C62       1.0  0.10030  0.52750  0.35080  1.0000 -0.4546902025
C   C63       1.0  0.52070  0.28590  0.79450  1.0000 -0.4553639793
C   C64       1.0  0.28590  0.52070  0.70550  1.0000 -0.4546902025
C   C65       1.0  0.16170  0.27850  0.81990  1.0000 -0.4765423739
C   C66       1.0  0.27850  0.16170  0.68010  1.0000 -0.4765423739
C   C67       1.0  0.28710  0.16050  0.04500  1.0000 0.1300840123
C   C68       1.0  0.16050  0.28710  0.45500  1.0000 0.1300840123
C   C69       1.0  0.25370  0.05350  0.09040  1.0000 -0.2022648532
C   C70       1.0  0.05350  0.25370  0.40960  1.0000 -0.2022648532
C   C71       1.0  0.19650  0.03070  0.14840  1.0000 0.043827303
C   C72       1.0  0.03070  0.19650  0.35160  1.0000 0.043827303
C   C73       1.0  0.26860  0.24080  0.06370  1.0000 -0.2022648532
C   C74       1.0  0.24080  0.26860  0.43630  1.0000 -0.2022648532
C   C75       1.0  0.21420  0.21180  0.12420  1.0000 0.043827303
C   C76       1.0  0.21180  0.21420  0.37580  1.0000 0.043827303
N   N1        1.0  0.12270  0.88630  0.86670  1.0000 -0.2179300429
N   N2        1.0  0.88630  0.12270  0.63330  1.0000 -0.2179300429
N   N3        1.0  0.82170  0.89050  0.83490  1.0000 -0.2179300429
N   N4        1.0  0.89050  0.82170  0.66510  1.0000 -0.2179300429
N   N5        1.0  0.87730  0.11370  0.13330  1.0000 -0.2179300429
N   N6        1.0  0.11370  0.87730  0.36670  1.0000 -0.2179300429
N   N7        1.0  0.17830  0.10950  0.16510  1.0000 -0.2179300429
N   N8        1.0  0.10950  0.17830  0.33490  1.0000 -0.2179300429
