# DDEC6 charges by PACMAN v1.1 (https://github.com/mtap-research/PACMAN-charge/)
data_2006[CuW][nan]3[ASR]1
_chemical_formula_sum              "Cu8 H56 W4 C56 S16 N16"
_cell_length_a       13.8934
_cell_length_b       13.8934
_cell_length_c       19.611
_cell_angle_alpha    63.5108
_cell_angle_beta     116.489
_cell_angle_gamma    133.217

_symmetry_space_group_name_H-M    "P 1"
_symmetry_Int_Tables_number       1

loop_
  _symmetry_equiv_pos_as_xyz
  'x, y, z'

loop_
  _atom_site_type_symbol
  _atom_site_label
  _atom_site_symmetry_multiplicity
  _atom_site_fract_x
  _atom_site_fract_y
  _atom_site_fract_z
  _atom_site_occupancy
  _atom_site_charge
Cu  Cu1       1.0  0.59235  0.25035  0.60499  1.0000 0.2639880482
Cu  Cu2       1.0  0.25035  0.59235  0.89501  1.0000 0.2639880482
Cu  Cu3       1.0  0.40765  0.74965  0.39501  1.0000 0.2639880482
Cu  Cu4       1.0  0.74965  0.40765  0.10499  1.0000 0.2639880482
Cu  Cu5       1.0  0.40667  0.91889  0.74686  1.0000 0.3070564125
Cu  Cu6       1.0  0.91889  0.40667  0.75314  1.0000 0.3070564125
Cu  Cu7       1.0  0.59333  0.08111  0.25314  1.0000 0.3070564125
Cu  Cu8       1.0  0.08111  0.59333  0.24686  1.0000 0.3070564125
H   H1        1.0  0.05230  0.29890  0.98760  1.0000 0.0997348319
H   H2        1.0  0.29890  0.05230  0.51240  1.0000 0.0997348319
H   H3        1.0  0.94770  0.70110  0.01240  1.0000 0.0997348319
H   H4        1.0  0.70110  0.94770  0.48760  1.0000 0.0997348319
H   H5        1.0  0.23340  0.64100  0.03780  1.0000 0.1285435809
H   H6        1.0  0.64100  0.23340  0.46220  1.0000 0.1285435809
H   H7        1.0  0.76660  0.35900  0.96220  1.0000 0.1285435809
H   H8        1.0  0.35900  0.76660  0.53780  1.0000 0.1285435809
H   H9        1.0  0.09900  0.45680  0.13560  1.0000 0.1285435809
H   H10       1.0  0.45680  0.09900  0.36440  1.0000 0.1285435809
H   H11       1.0  0.90100  0.54320  0.86440  1.0000 0.1285435809
H   H12       1.0  0.54320  0.90100  0.63560  1.0000 0.1285435809
H   H13       1.0  0.89380  0.19040  0.13550  1.0000 0.1285435809
H   H14       1.0  0.19040  0.89380  0.36450  1.0000 0.1285435809
H   H15       1.0  0.10620  0.80960  0.86450  1.0000 0.1285435809
H   H16       1.0  0.80960  0.10620  0.63550  1.0000 0.1285435809
H   H17       1.0  0.88900  0.13140  0.07930  1.0000 0.1215339791
H   H18       1.0  0.13140  0.88900  0.42070  1.0000 0.1215339791
H   H19       1.0  0.11100  0.86860  0.92070  1.0000 0.1215339791
H   H20       1.0  0.86860  0.11100  0.57930  1.0000 0.1215339791
H   H21       1.0  0.99750  0.16230  0.27020  1.0000 0.1285435809
H   H22       1.0  0.16230  0.99750  0.22980  1.0000 0.1285435809
H   H23       1.0  0.00250  0.83770  0.72980  1.0000 0.1285435809
H   H24       1.0  0.83770  0.00250  0.77020  1.0000 0.1285435809
H   H25       1.0  0.06740  0.09440  0.12460  1.0000 0.1098144207
H   H26       1.0  0.09440  0.06740  0.37540  1.0000 0.1098144207
H   H27       1.0  0.93260  0.90560  0.87540  1.0000 0.1098144207
H   H28       1.0  0.90560  0.93260  0.62460  1.0000 0.1098144207
H   H29       1.0  0.51680  0.70900  0.02760  1.0000 0.1098144207
H   H30       1.0  0.70900  0.51680  0.47240  1.0000 0.1098144207
H   H31       1.0  0.48320  0.29100  0.97240  1.0000 0.1098144207
H   H32       1.0  0.29100  0.48320  0.52760  1.0000 0.1098144207
H   H33       1.0  0.44670  0.58050  0.85580  1.0000 0.1285435809
H   H34       1.0  0.58050  0.44670  0.64420  1.0000 0.1285435809
H   H35       1.0  0.55330  0.41950  0.14420  1.0000 0.1285435809
H   H36       1.0  0.41950  0.55330  0.35580  1.0000 0.1285435809
H   H37       1.0  0.67760  0.66080  0.93230  1.0000 0.1285435809
H   H38       1.0  0.66080  0.67760  0.56770  1.0000 0.1285435809
H   H39       1.0  0.32240  0.33920  0.06770  1.0000 0.1285435809
H   H40       1.0  0.33920  0.32240  0.43230  1.0000 0.1285435809
H   H41       1.0  0.74980  0.78520  0.09700  1.0000 0.1285435809
H   H42       1.0  0.78520  0.74980  0.40300  1.0000 0.1285435809
H   H43       1.0  0.25020  0.21480  0.90300  1.0000 0.1285435809
H   H44       1.0  0.21480  0.25020  0.59700  1.0000 0.1285435809
H   H45       1.0  0.77630  0.69110  0.09490  1.0000 0.1285435809
H   H46       1.0  0.69110  0.77630  0.40510  1.0000 0.1285435809
H   H47       1.0  0.22370  0.30890  0.90510  1.0000 0.1285435809
H   H48       1.0  0.30890  0.22370  0.59490  1.0000 0.1285435809
H   H49       1.0  0.79990  0.97570  0.94960  1.0000 0.1215339791
H   H50       1.0  0.97570  0.79990  0.55040  1.0000 0.1215339791
H   H51       1.0  0.20010  0.02430  0.05040  1.0000 0.1215339791
H   H52       1.0  0.02430  0.20010  0.44960  1.0000 0.1215339791
H   H53       1.0  0.00970  0.83190  0.09940  1.0000 0.1285435809
H   H54       1.0  0.83190  0.00970  0.40060  1.0000 0.1285435809
H   H55       1.0  0.99030  0.16810  0.90060  1.0000 0.1285435809
H   H56       1.0  0.16810  0.99030  0.59940  1.0000 0.1285435809
W   W1        1.0  0.15562  0.66890  0.74474  1.0000 0.805660422
W   W2        1.0  0.66890  0.15562  0.75526  1.0000 0.805660422
W   W3        1.0  0.84438  0.33110  0.25526  1.0000 0.805660422
W   W4        1.0  0.33110  0.84438  0.24474  1.0000 0.804345027
C   C1        1.0  0.08230  0.36310  0.01240  1.0000 0.0786364417
C   C2        1.0  0.36310  0.08230  0.48760  1.0000 0.0786364417
C   C3        1.0  0.91770  0.63690  0.98760  1.0000 0.0786364417
C   C4        1.0  0.63690  0.91770  0.51240  1.0000 0.0786364417
C   C5        1.0  0.17980  0.54740  0.03990  1.0000 -0.0530505773
C   C6        1.0  0.54740  0.17980  0.46010  1.0000 -0.0530505773
C   C7        1.0  0.82020  0.45260  0.96010  1.0000 -0.0530505773
C   C8        1.0  0.45260  0.82020  0.53990  1.0000 -0.0530505773
C   C9        1.0  0.10590  0.44710  0.09330  1.0000 -0.0762937363
C   C10       1.0  0.44710  0.10590  0.40670  1.0000 -0.0762937363
C   C11       1.0  0.89410  0.55290  0.90670  1.0000 -0.0762937363
C   C12       1.0  0.55290  0.89410  0.59330  1.0000 -0.0762937363
C   C13       1.0  0.95020  0.19160  0.11670  1.0000 -0.1699605134
C   C14       1.0  0.19160  0.95020  0.38330  1.0000 -0.1699605134
C   C15       1.0  0.04980  0.80840  0.88330  1.0000 -0.1699605134
C   C16       1.0  0.80840  0.04980  0.61670  1.0000 -0.1699605134
C   C17       1.0  0.02100  0.13620  0.18580  1.0000 0.0997348319
C   C18       1.0  0.13620  0.02100  0.31420  1.0000 0.0997348319
C   C19       1.0  0.97900  0.86380  0.81420  1.0000 0.0997348319
C   C20       1.0  0.86380  0.97900  0.68580  1.0000 0.0997348319
C   C21       1.0  0.03070  0.12830  0.26160  1.0000 -0.1399241335
C   C22       1.0  0.12830  0.03070  0.23840  1.0000 -0.1399241335
C   C23       1.0  0.96930  0.87170  0.73840  1.0000 -0.1399241335
C   C24       1.0  0.87170  0.96930  0.76160  1.0000 -0.1399241335
C   C25       1.0  0.07150  0.08810  0.17600  1.0000 -0.1399241335
C   C26       1.0  0.08810  0.07150  0.32400  1.0000 -0.1399241335
C   C27       1.0  0.92850  0.91190  0.82400  1.0000 -0.1399241335
C   C28       1.0  0.91190  0.92850  0.67600  1.0000 -0.1399241335
C   C29       1.0  0.52780  0.68660  0.99380  1.0000 0.0786364417
C   C30       1.0  0.68660  0.52780  0.50620  1.0000 0.0786364417
C   C31       1.0  0.47220  0.31340  0.00620  1.0000 0.0786364417
C   C32       1.0  0.31340  0.47220  0.49380  1.0000 0.0786364417
C   C33       1.0  0.49020  0.61700  0.90070  1.0000 -0.0293849852
C   C34       1.0  0.61700  0.49020  0.59930  1.0000 -0.0293849852
C   C35       1.0  0.50980  0.38300  0.09930  1.0000 -0.0293849852
C   C36       1.0  0.38300  0.50980  0.40070  1.0000 -0.0293849852
C   C37       1.0  0.61670  0.66090  0.94230  1.0000 -0.0964608524
C   C38       1.0  0.66090  0.61670  0.55770  1.0000 -0.0964608524
C   C39       1.0  0.38330  0.33910  0.05770  1.0000 -0.0964608524
C   C40       1.0  0.33910  0.38330  0.44230  1.0000 -0.0964608524
C   C41       1.0  0.76200  0.76080  0.06270  1.0000 -0.1699605134
C   C42       1.0  0.76080  0.76200  0.43730  1.0000 -0.1699605134
C   C43       1.0  0.23800  0.23920  0.93730  1.0000 -0.1699605134
C   C44       1.0  0.23920  0.23800  0.56270  1.0000 -0.1699605134
C   C45       1.0  0.88520  0.88460  0.02910  1.0000 0.0892216324
C   C46       1.0  0.88460  0.88520  0.47090  1.0000 0.0892216324
C   C47       1.0  0.11480  0.11540  0.97090  1.0000 0.0892216324
C   C48       1.0  0.11540  0.11480  0.52910  1.0000 0.0892216324
C   C49       1.0  0.88170  0.98530  0.97030  1.0000 -0.1399241335
C   C50       1.0  0.98530  0.88170  0.52970  1.0000 -0.1399241335
C   C51       1.0  0.11830  0.01470  0.02970  1.0000 -0.1399241335
C   C52       1.0  0.01470  0.11830  0.47030  1.0000 -0.1399241335
C   C53       1.0  0.00540  0.90040  0.05880  1.0000 -0.149106219
C   C54       1.0  0.90040  0.00540  0.44120  1.0000 -0.149106219
C   C55       1.0  0.99460  0.09960  0.94120  1.0000 -0.149106219
C   C56       1.0  0.09960  0.99460  0.55880  1.0000 -0.149106219
S   S1        1.0  0.61216  0.95132  0.79921  1.0000 -0.4745764133
S   S2        1.0  0.95132  0.61216  0.70079  1.0000 -0.4745764133
S   S3        1.0  0.38784  0.04868  0.20079  1.0000 -0.4745764133
S   S4        1.0  0.04868  0.38784  0.29921  1.0000 -0.4745764133
S   S5        1.0  0.26839  0.78719  0.83679  1.0000 -0.4813814458
S   S6        1.0  0.78719  0.26839  0.66321  1.0000 -0.4813814458
S   S7        1.0  0.73161  0.21281  0.16321  1.0000 -0.4813814458
S   S8        1.0  0.21281  0.73161  0.33679  1.0000 -0.4813814458
S   S9        1.0  0.47867  0.13913  0.70284  1.0000 -0.4864645895
S   S10       1.0  0.13913  0.47867  0.79716  1.0000 -0.4864645895
S   S11       1.0  0.52133  0.86087  0.29716  1.0000 -0.4864645895
S   S12       1.0  0.86087  0.52133  0.20284  1.0000 -0.4864645895
S   S13       1.0  0.79466  0.26720  0.84922  1.0000 -0.4586384442
S   S14       1.0  0.26720  0.79466  0.65078  1.0000 -0.4586384442
S   S15       1.0  0.20534  0.73280  0.15078  1.0000 -0.4586384442
S   S16       1.0  0.73280  0.20534  0.34922  1.0000 -0.4586384442
N   N1        1.0  0.16680  0.49480  0.98830  1.0000 -0.2400798794
N   N2        1.0  0.49480  0.16680  0.51170  1.0000 -0.2400798794
N   N3        1.0  0.83320  0.50520  0.01170  1.0000 -0.2400798794
N   N4        1.0  0.50520  0.83320  0.48830  1.0000 -0.2400798794
N   N5        1.0  0.04310  0.32930  0.07600  1.0000 0.0425403005
N   N6        1.0  0.32930  0.04310  0.42400  1.0000 0.0425403005
N   N7        1.0  0.95690  0.67070  0.92400  1.0000 0.0425403005
N   N8        1.0  0.67070  0.95690  0.57600  1.0000 0.0425403005
N   N9        1.0  0.43500  0.63320  0.93320  1.0000 -0.2218792733
N   N10       1.0  0.63320  0.43500  0.56680  1.0000 -0.2218792733
N   N11       1.0  0.56500  0.36680  0.06680  1.0000 -0.2218792733
N   N12       1.0  0.36680  0.56500  0.43320  1.0000 -0.2218792733
N   N13       1.0  0.63990  0.70490  0.00120  1.0000 0.0425403005
N   N14       1.0  0.70490  0.63990  0.49880  1.0000 0.0425403005
N   N15       1.0  0.36010  0.29510  0.99880  1.0000 0.0425403005
N   N16       1.0  0.29510  0.36010  0.50120  1.0000 0.0425403005
