# DDEC6 charges by PACMAN v1.1 (https://github.com/mtap-research/PACMAN-charge/)
data_2006[V][nan]3[ASR]1
_chemical_formula_sum              "V8 P8 H28 C12 O28"
_cell_length_a       9.2679
_cell_length_b       9.2679
_cell_length_c       18.7813
_cell_angle_alpha    77.9367
_cell_angle_beta     102.063
_cell_angle_gamma    114.083

_symmetry_space_group_name_H-M    "P 1"
_symmetry_Int_Tables_number       1

loop_
  _symmetry_equiv_pos_as_xyz
  'x, y, z'

loop_
  _atom_site_type_symbol
  _atom_site_label
  _atom_site_symmetry_multiplicity
  _atom_site_fract_x
  _atom_site_fract_y
  _atom_site_fract_z
  _atom_site_occupancy
  _atom_site_charge
V   V1        1.0  0.78134  0.27990  0.71512  1.0000 1.5534960975
V   V2        1.0  0.27990  0.78134  0.78488  1.0000 1.5534960975
V   V3        1.0  0.21866  0.72010  0.28488  1.0000 1.5575093974
V   V4        1.0  0.72010  0.21866  0.21512  1.0000 1.5534960975
V   V5        1.0  0.27882  0.94084  0.58570  1.0000 1.6000799883
V   V6        1.0  0.94084  0.27882  0.91430  1.0000 1.6000799883
V   V7        1.0  0.72118  0.05916  0.41430  1.0000 1.6000799883
V   V8        1.0  0.05916  0.72118  0.08570  1.0000 1.6000799883
P   P1        1.0  0.67028  0.07330  0.58018  1.0000 1.3800242592
P   P2        1.0  0.07330  0.67028  0.91982  1.0000 1.3800242592
P   P3        1.0  0.32972  0.92670  0.41982  1.0000 1.3800242592
P   P4        1.0  0.92670  0.32972  0.08018  1.0000 1.3800242592
P   P5        1.0  0.98820  0.65110  0.65966  1.0000 1.3638356675
P   P6        1.0  0.65110  0.98820  0.84034  1.0000 1.3638356675
P   P7        1.0  0.01180  0.34890  0.34034  1.0000 1.3638356675
P   P8        1.0  0.34890  0.01180  0.15966  1.0000 1.3638356675
H   H1        1.0  0.59480  0.80780  0.57000  1.0000 0.1374302456
H   H2        1.0  0.80780  0.59480  0.93000  1.0000 0.1374302456
H   H3        1.0  0.40520  0.19220  0.43000  1.0000 0.1374302456
H   H4        1.0  0.19220  0.40520  0.07000  1.0000 0.1374302456
H   H5        1.0  0.61320  0.83000  0.65400  1.0000 0.1374302456
H   H6        1.0  0.83000  0.61320  0.84600  1.0000 0.1374302456
H   H7        1.0  0.38680  0.17000  0.34600  1.0000 0.1374302456
H   H8        1.0  0.17000  0.38680  0.15400  1.0000 0.1374302456
H   H9        1.0  0.88940  0.90860  0.66790  1.0000 0.1003043924
H   H10       1.0  0.90860  0.88940  0.83210  1.0000 0.1003043924
H   H11       1.0  0.11060  0.09140  0.33210  1.0000 0.1003043924
H   H12       1.0  0.09140  0.11060  0.16790  1.0000 0.1003043924
H   H13       1.0  0.88730  0.92370  0.58110  1.0000 0.0776666265
H   H14       1.0  0.92370  0.88730  0.91890  1.0000 0.0776666265
H   H15       1.0  0.11270  0.07630  0.41890  1.0000 0.0776666265
H   H16       1.0  0.07630  0.11270  0.08110  1.0000 0.0776666265
H   H17       1.0  0.75700  0.64720  0.58400  1.0000 0.1374302456
H   H18       1.0  0.64720  0.75700  0.91600  1.0000 0.1374302456
H   H19       1.0  0.24300  0.35280  0.41600  1.0000 0.1374302456
H   H20       1.0  0.35280  0.24300  0.08400  1.0000 0.1374302456
H   H21       1.0  0.73440  0.62540  0.66810  1.0000 0.130186205
H   H22       1.0  0.62540  0.73440  0.83190  1.0000 0.130186205
H   H23       1.0  0.26560  0.37460  0.33190  1.0000 0.130186205
H   H24       1.0  0.37460  0.26560  0.16810  1.0000 0.130186205
H   H25       1.0  0.97200  0.42600  0.79970  1.0000 0.3885517318
H   H26       1.0  0.42600  0.97200  0.70030  1.0000 0.3885517318
H   H27       1.0  0.02800  0.57400  0.20030  1.0000 0.3885517318
H   H28       1.0  0.57400  0.02800  0.29970  1.0000 0.3885517318
C   C1        1.0  0.66332  0.87430  0.60851  1.0000 -0.5309727665
C   C2        1.0  0.87430  0.66332  0.89149  1.0000 -0.5309727665
C   C3        1.0  0.33668  0.12570  0.39149  1.0000 -0.5309727665
C   C4        1.0  0.12570  0.33668  0.10851  1.0000 -0.5309727665
C   C5        1.0  0.82760  0.86220  0.62271  1.0000 -0.0780212998
C   C6        1.0  0.86220  0.82760  0.87729  1.0000 -0.0780212998
C   C7        1.0  0.17240  0.13780  0.37729  1.0000 -0.0780212998
C   C8        1.0  0.13780  0.17240  0.12271  1.0000 -0.0780212998
C   C9        1.0  0.80812  0.68788  0.63152  1.0000 -0.5309727665
C   C10       1.0  0.68788  0.80812  0.86848  1.0000 -0.5309727665
C   C11       1.0  0.19188  0.31212  0.36848  1.0000 -0.5309727665
C   C12       1.0  0.31212  0.19188  0.13152  1.0000 -0.5309727665
O   O1        1.0  0.10188  0.73536  0.60226  1.0000 -0.8261078488
O   O2        1.0  0.73536  0.10188  0.89774  1.0000 -0.8261078488
O   O3        1.0  0.89812  0.26464  0.39774  1.0000 -0.8261078488
O   O4        1.0  0.26464  0.89812  0.10226  1.0000 -0.8261078488
O   O5        1.0  0.50556  0.07288  0.57836  1.0000 -0.8808886136
O   O6        1.0  0.07288  0.50556  0.92164  1.0000 -0.8808886136
O   O7        1.0  0.49444  0.92712  0.42164  1.0000 -0.8808886136
O   O8        1.0  0.92712  0.49444  0.07836  1.0000 -0.8808886136
O   O9        1.0  0.73104  0.13596  0.50539  1.0000 -0.8135050785
O   O10       1.0  0.13596  0.73104  0.99461  1.0000 -0.8135050785
O   O11       1.0  0.26896  0.86404  0.49461  1.0000 -0.8135050785
O   O12       1.0  0.86404  0.26896  0.00539  1.0000 -0.8221858989
O   O13       1.0  0.79317  0.18261  0.63413  1.0000 -0.788078795
O   O14       1.0  0.18261  0.79317  0.86587  1.0000 -0.788078795
O   O15       1.0  0.20683  0.81739  0.36587  1.0000 -0.788078795
O   O16       1.0  0.81739  0.20683  0.13413  1.0000 -0.788078795
O   O17       1.0  0.05958  0.70936  0.73450  1.0000 -0.8526666563
O   O18       1.0  0.70936  0.05958  0.76550  1.0000 -0.8526666563
O   O19       1.0  0.94042  0.29064  0.26550  1.0000 -0.8526666563
O   O20       1.0  0.29064  0.94042  0.23450  1.0000 -0.8526666563
O   O21       1.0  0.94203  0.47113  0.66521  1.0000 -0.8221858989
O   O22       1.0  0.47113  0.94203  0.83479  1.0000 -0.8261078488
O   O23       1.0  0.05797  0.52887  0.33479  1.0000 -0.8221858989
O   O24       1.0  0.52887  0.05797  0.16521  1.0000 -0.8221858989
O   O25       1.0  0.91611  0.34893  0.80745  1.0000 -0.8808886136
O   O26       1.0  0.34893  0.91611  0.69255  1.0000 -0.8808886136
O   O27       1.0  0.08389  0.65107  0.19255  1.0000 -0.8808886136
O   O28       1.0  0.65107  0.08389  0.30745  1.0000 -0.8808886136
