# DDEC6 charges by PACMAN v1.1 (https://github.com/mtap-research/PACMAN-charge/)
data_2006[Zn][sod]3[ASR]1
_chemical_formula_sum              "Zn6 H60 C48 N24"
_cell_length_a       14.7328
_cell_length_b       14.7328
_cell_length_c       14.7328
_cell_angle_alpha    109.471
_cell_angle_beta     109.471
_cell_angle_gamma    109.471

_symmetry_space_group_name_H-M    "P 1"
_symmetry_Int_Tables_number       1

loop_
  _symmetry_equiv_pos_as_xyz
  'x, y, z'

loop_
  _atom_site_type_symbol
  _atom_site_label
  _atom_site_symmetry_multiplicity
  _atom_site_fract_x
  _atom_site_fract_y
  _atom_site_fract_z
  _atom_site_occupancy
  _atom_site_charge
Zn  Zn1       1.0  0.75000  0.25000  0.50000  1.0000 0.6661723601
Zn  Zn2       1.0  0.25000  0.75000  0.50000  1.0000 0.6629629629
Zn  Zn3       1.0  0.50000  0.75000  0.25000  1.0000 0.6629629629
Zn  Zn4       1.0  0.50000  0.25000  0.75000  1.0000 0.6661723601
Zn  Zn5       1.0  0.25000  0.50000  0.75000  1.0000 0.6661723601
Zn  Zn6       1.0  0.75000  0.50000  0.25000  1.0000 0.6661723601
H   H1        1.0  0.89702  0.42689  0.77938  1.0000 0.0832658756
H   H2        1.0  0.64751  0.11764  0.22062  1.0000 0.0832658756
H   H3        1.0  0.35249  0.57311  0.47013  1.0000 0.0832658756
H   H4        1.0  0.10298  0.88236  0.52987  1.0000 0.0832658756
H   H5        1.0  0.77938  0.89702  0.42689  1.0000 0.0832658756
H   H6        1.0  0.22062  0.64751  0.11764  1.0000 0.0832658756
H   H7        1.0  0.47013  0.35249  0.57311  1.0000 0.0832658756
H   H8        1.0  0.52987  0.10298  0.88236  1.0000 0.0832658756
H   H9        1.0  0.42689  0.77938  0.89702  1.0000 0.0832658756
H   H10       1.0  0.11764  0.22062  0.64751  1.0000 0.0832658756
H   H11       1.0  0.57311  0.47013  0.35249  1.0000 0.0832658756
H   H12       1.0  0.88236  0.52987  0.10298  1.0000 0.0832658756
H   H13       1.0  0.42689  0.89702  0.77938  1.0000 0.0832658756
H   H14       1.0  0.11764  0.64751  0.22062  1.0000 0.0832658756
H   H15       1.0  0.57311  0.35249  0.47013  1.0000 0.0832658756
H   H16       1.0  0.88236  0.10298  0.52987  1.0000 0.0832658756
H   H17       1.0  0.89702  0.77938  0.42689  1.0000 0.0832658756
H   H18       1.0  0.64751  0.22062  0.11764  1.0000 0.0832658756
H   H19       1.0  0.35249  0.47013  0.57311  1.0000 0.0832658756
H   H20       1.0  0.10298  0.52987  0.88236  1.0000 0.0832658756
H   H21       1.0  0.77938  0.42689  0.89702  1.0000 0.0832658756
H   H22       1.0  0.22062  0.11764  0.64751  1.0000 0.0832658756
H   H23       1.0  0.47013  0.57311  0.35249  1.0000 0.0832658756
H   H24       1.0  0.52987  0.88236  0.10298  1.0000 0.0832658756
H   H25       1.0  0.55724  0.47162  0.80108  1.0000 0.1299708044
H   H26       1.0  0.51832  0.53901  0.90142  1.0000 0.1299708044
H   H27       1.0  0.47743  0.54236  0.76911  1.0000 0.1299708044
H   H28       1.0  0.92398  0.23226  0.45027  1.0000 0.1299708044
H   H29       1.0  0.07867  0.31311  0.52703  1.0000 0.1299708044
H   H30       1.0  0.99736  0.37325  0.46971  1.0000 0.1299708044
H   H31       1.0  0.90306  0.52379  0.53401  1.0000 0.1299708044
H   H32       1.0  0.77638  0.47504  0.54680  1.0000 0.1299708044
H   H33       1.0  0.79217  0.55415  0.47217  1.0000 0.1299708044
H   H34       1.0  0.24638  0.77518  0.73297  1.0000 0.1239130582
H   H35       1.0  0.17362  0.64698  0.73629  1.0000 0.1352840225
H   H36       1.0  0.10839  0.65921  0.61212  1.0000 0.1299708044
H   H37       1.0  0.97931  0.46099  0.36240  1.0000 0.1299708044
H   H38       1.0  0.08562  0.52838  0.32946  1.0000 0.1299708044
H   H39       1.0  0.93507  0.45764  0.22676  1.0000 0.1299708044
H   H40       1.0  0.51447  0.04467  0.26931  1.0000 0.1239130582
H   H41       1.0  0.49488  0.04467  0.38778  1.0000 0.1299708044
H   H42       1.0  0.43766  0.91065  0.26153  1.0000 0.1352840225
H   H43       1.0  0.54811  0.77880  0.47442  1.0000 0.1299708044
H   H44       1.0  0.47248  0.78947  0.55308  1.0000 0.1299708044
H   H45       1.0  0.53240  0.90334  0.52549  1.0000 0.1299708044
H   H46       1.0  0.68301  0.21053  0.76361  1.0000 0.1299708044
H   H47       1.0  0.76931  0.22120  0.69562  1.0000 0.1299708044
H   H48       1.0  0.62905  0.09666  0.62215  1.0000 0.1299708044
H   H49       1.0  0.38778  0.04467  0.49488  1.0000 0.1299708044
H   H50       1.0  0.26931  0.04467  0.51447  1.0000 0.1239130582
H   H51       1.0  0.26153  0.91065  0.43766  1.0000 0.1352840225
H   H52       1.0  0.30134  0.52496  0.07176  1.0000 0.1299708044
H   H53       1.0  0.37927  0.47621  0.01022  1.0000 0.1299708044
H   H54       1.0  0.23802  0.44585  0.91802  1.0000 0.1299708044
H   H55       1.0  0.76556  0.68689  0.21392  1.0000 0.1299708044
H   H56       1.0  0.69172  0.76774  0.21801  1.0000 0.1299708044
H   H57       1.0  0.62410  0.62675  0.09645  1.0000 0.1299708044
H   H58       1.0  0.52663  0.35302  0.08930  1.0000 0.1352840225
H   H59       1.0  0.47120  0.22482  0.95779  1.0000 0.1239130582
H   H60       1.0  0.44918  0.34079  0.95291  1.0000 0.1299708044
C   C1        1.0  0.94440  0.41500  0.73320  1.0000 -0.0519345144
C   C2        1.0  0.68180  0.21120  0.26680  1.0000 -0.0519345144
C   C3        1.0  0.31820  0.58500  0.52940  1.0000 -0.0519345144
C   C4        1.0  0.05560  0.78880  0.47060  1.0000 -0.0519345144
C   C5        1.0  0.73320  0.94440  0.41500  1.0000 -0.0519345144
C   C6        1.0  0.26680  0.68180  0.21120  1.0000 -0.0519345144
C   C7        1.0  0.52940  0.31820  0.58500  1.0000 -0.0519345144
C   C8        1.0  0.47060  0.05560  0.78880  1.0000 -0.0519345144
C   C9        1.0  0.41500  0.73320  0.94440  1.0000 -0.0519345144
C   C10       1.0  0.21120  0.26680  0.68180  1.0000 -0.0519345144
C   C11       1.0  0.58500  0.52940  0.31820  1.0000 -0.0519345144
C   C12       1.0  0.78880  0.47060  0.05560  1.0000 -0.0519345144
C   C13       1.0  0.41500  0.94440  0.73320  1.0000 -0.0519345144
C   C14       1.0  0.21120  0.68180  0.26680  1.0000 -0.0519345144
C   C15       1.0  0.58500  0.31820  0.52940  1.0000 -0.0519345144
C   C16       1.0  0.78880  0.05560  0.47060  1.0000 -0.0519345144
C   C17       1.0  0.94440  0.73320  0.41500  1.0000 -0.0519345144
C   C18       1.0  0.68180  0.26680  0.21120  1.0000 -0.0519345144
C   C19       1.0  0.31820  0.52940  0.58500  1.0000 -0.0519345144
C   C20       1.0  0.05560  0.47060  0.78880  1.0000 -0.0519345144
C   C21       1.0  0.73320  0.41500  0.94440  1.0000 -0.0519345144
C   C22       1.0  0.26680  0.21120  0.68180  1.0000 -0.0519345144
C   C23       1.0  0.52940  0.58500  0.31820  1.0000 -0.0519345144
C   C24       1.0  0.47060  0.78880  0.05560  1.0000 -0.0519345144
C   C25       1.0  0.00000  0.36875  0.61465  1.0000 0.3625304836
C   C26       1.0  0.75410  0.38535  0.38535  1.0000 0.3625304836
C   C27       1.0  0.24590  0.63125  0.63125  1.0000 0.3625304836
C   C28       1.0  0.00000  0.61465  0.36875  1.0000 0.3625304836
C   C29       1.0  0.61465  0.00000  0.36875  1.0000 0.3625304836
C   C30       1.0  0.38535  0.75410  0.38535  1.0000 0.3625304836
C   C31       1.0  0.63125  0.24590  0.63125  1.0000 0.3625304836
C   C32       1.0  0.36875  0.00000  0.61465  1.0000 0.3651878732
C   C33       1.0  0.36875  0.61465  0.00000  1.0000 0.3625304836
C   C34       1.0  0.38535  0.38535  0.75410  1.0000 0.3625304836
C   C35       1.0  0.63125  0.63125  0.24590  1.0000 0.3625304836
C   C36       1.0  0.61465  0.36875  0.00000  1.0000 0.3651878732
C   C37       1.0  1.00000  0.31900  0.50940  1.0000 -0.4218505623
C   C38       1.0  0.80960  0.49060  0.49060  1.0000 -0.4218505623
C   C39       1.0  0.19040  0.68100  0.68100  1.0000 -0.4218505623
C   C40       1.0  1.00000  0.50940  0.31900  1.0000 -0.4218505623
C   C41       1.0  0.50940  0.00000  0.31900  1.0000 -0.4218505623
C   C42       1.0  0.49060  0.80960  0.49060  1.0000 -0.4218505623
C   C43       1.0  0.68100  0.19040  0.68100  1.0000 -0.4218505623
C   C44       1.0  0.31900  0.00000  0.50940  1.0000 -0.4218505623
C   C45       1.0  0.31900  0.50940  0.00000  1.0000 -0.4218505623
C   C46       1.0  0.49060  0.49060  0.80960  1.0000 -0.4218505623
C   C47       1.0  0.68100  0.68100  0.19040  1.0000 -0.4218505623
C   C48       1.0  0.50940  0.31900  0.00000  1.0000 -0.4218505623
N   N1        1.0  0.90717  0.34890  0.62133  1.0000 -0.3627595271
N   N2        1.0  0.72757  0.28584  0.37867  1.0000 -0.3627595271
N   N3        1.0  0.27243  0.65110  0.55827  1.0000 -0.3627595271
N   N4        1.0  0.09283  0.71416  0.44173  1.0000 -0.3627595271
N   N5        1.0  0.62133  0.90717  0.34890  1.0000 -0.3627595271
N   N6        1.0  0.37867  0.72757  0.28584  1.0000 -0.3656515581
N   N7        1.0  0.55827  0.27243  0.65110  1.0000 -0.3627595271
N   N8        1.0  0.44173  0.09283  0.71416  1.0000 -0.3627595271
N   N9        1.0  0.34890  0.62133  0.90717  1.0000 -0.3627595271
N   N10       1.0  0.28584  0.37867  0.72757  1.0000 -0.3627595271
N   N11       1.0  0.65110  0.55827  0.27243  1.0000 -0.3627595271
N   N12       1.0  0.71416  0.44173  0.09283  1.0000 -0.3627595271
N   N13       1.0  0.34890  0.90717  0.62133  1.0000 -0.3627595271
N   N14       1.0  0.28584  0.72757  0.37867  1.0000 -0.3627595271
N   N15       1.0  0.65110  0.27243  0.55827  1.0000 -0.3627595271
N   N16       1.0  0.71416  0.09283  0.44173  1.0000 -0.3627595271
N   N17       1.0  0.90717  0.62133  0.34890  1.0000 -0.3627595271
N   N18       1.0  0.72757  0.37867  0.28584  1.0000 -0.3627595271
N   N19       1.0  0.27243  0.55827  0.65110  1.0000 -0.3627595271
N   N20       1.0  0.09283  0.44173  0.71416  1.0000 -0.3656515581
N   N21       1.0  0.62133  0.34890  0.90717  1.0000 -0.3627595271
N   N22       1.0  0.37867  0.28584  0.72757  1.0000 -0.3627595271
N   N23       1.0  0.55827  0.65110  0.27243  1.0000 -0.3627595271
N   N24       1.0  0.44173  0.71416  0.09283  1.0000 -0.3627595271
