# DDEC6 charges by PACMAN v1.1 (https://github.com/mtap-research/PACMAN-charge/)
data_2006[Nd][nan]3[ASR]1
_chemical_formula_sum              "Nd4 H72 C106 S2 N6 O26"
_cell_length_a       15.156
_cell_length_b       15.657
_cell_length_c       26.967
_cell_angle_alpha    81.603
_cell_angle_beta     78.042
_cell_angle_gamma    73.529

_symmetry_space_group_name_H-M    "P 1"
_symmetry_Int_Tables_number       1

loop_
  _symmetry_equiv_pos_as_xyz
  'x, y, z'

loop_
  _atom_site_type_symbol
  _atom_site_label
  _atom_site_symmetry_multiplicity
  _atom_site_fract_x
  _atom_site_fract_y
  _atom_site_fract_z
  _atom_site_occupancy
  _atom_site_charge
Nd  Nd1       1.0  0.13391  0.77203  0.20757  1.0000 2.05261652
Nd  Nd2       1.0  0.86609  0.22797  0.79243  1.0000 2.05261652
Nd  Nd3       1.0  0.04501  0.14412  0.67448  1.0000 2.0289524031
Nd  Nd4       1.0  0.95499  0.85588  0.32552  1.0000 2.0289524031
H   H1        1.0  0.01600  0.79310  0.06400  1.0000 0.1607177079
H   H2        1.0  0.98400  0.20690  0.93600  1.0000 0.1607177079
H   H3        1.0  0.05180  0.85250  0.01630  1.0000 0.1505722187
H   H4        1.0  0.94820  0.14750  0.98370  1.0000 0.1505722187
H   H5        1.0  0.97460  0.89720  0.06010  1.0000 0.1607177079
H   H6        1.0  0.02540  0.10280  0.93990  1.0000 0.1607177079
H   H7        1.0  0.17260  0.98310  0.06970  1.0000 0.1607177079
H   H8        1.0  0.82740  0.01690  0.93030  1.0000 0.1607177079
H   H9        1.0  0.06680  0.01100  0.06450  1.0000 0.1607177079
H   H10       1.0  0.93320  0.98900  0.93550  1.0000 0.1607177079
H   H11       1.0  0.14320  0.96820  0.01990  1.0000 0.1607177079
H   H12       1.0  0.85680  0.03180  0.98010  1.0000 0.1607177079
H   H13       1.0  0.16550  0.44160  0.23130  1.0000 0.1219228992
H   H14       1.0  0.83450  0.55840  0.76870  1.0000 0.1219228992
H   H15       1.0  0.17300  0.30680  0.20360  1.0000 0.1308481454
H   H16       1.0  0.82700  0.69320  0.79640  1.0000 0.1308481454
H   H17       1.0  0.09240  0.43100  0.07170  1.0000 0.1219228992
H   H18       1.0  0.90760  0.56900  0.92830  1.0000 0.1219228992
H   H19       1.0  0.08360  0.56570  0.10080  1.0000 0.1219228992
H   H20       1.0  0.91640  0.43430  0.89920  1.0000 0.1219228992
H   H21       1.0  0.05240  0.26440  0.84300  1.0000 0.1308481454
H   H22       1.0  0.94760  0.73560  0.15700  1.0000 0.1308481454
H   H23       1.0  0.12780  0.29020  0.89980  1.0000 0.1219228992
H   H24       1.0  0.87220  0.70980  0.10020  1.0000 0.1219228992
H   H25       1.0  0.36910  0.13000  0.83470  1.0000 0.1308481454
H   H26       1.0  0.63090  0.87000  0.16530  1.0000 0.1308481454
H   H27       1.0  0.29030  0.10090  0.77750  1.0000 0.1308481454
H   H28       1.0  0.70970  0.89910  0.22250  1.0000 0.1308481454
H   H29       1.0  0.22970  0.36680  0.63000  1.0000 0.1308481454
H   H30       1.0  0.77030  0.63320  0.37000  1.0000 0.1308481454
H   H31       1.0  0.30700  0.46590  0.58030  1.0000 0.1308481454
H   H32       1.0  0.69300  0.53410  0.41970  1.0000 0.1308481454
H   H33       1.0  0.21300  0.42250  0.45870  1.0000 0.1308481454
H   H34       1.0  0.78700  0.57750  0.54130  1.0000 0.1308481454
H   H35       1.0  0.13710  0.32470  0.50970  1.0000 0.1219228992
H   H36       1.0  0.86290  0.67530  0.49030  1.0000 0.1219228992
H   H37       1.0  0.52730  0.34830  0.82800  1.0000 0.1308481454
H   H38       1.0  0.47270  0.65170  0.17200  1.0000 0.1308481454
H   H39       1.0  0.60980  0.11190  0.90390  1.0000 0.1219228992
H   H40       1.0  0.39020  0.88810  0.09610  1.0000 0.1219228992
H   H41       1.0  0.16480  0.98600  0.17490  1.0000 0.1379537863
H   H42       1.0  0.83520  0.01400  0.82510  1.0000 0.1379537863
H   H43       1.0  0.21040  0.09870  0.12040  1.0000 0.1219228992
H   H44       1.0  0.78960  0.90130  0.87960  1.0000 0.1219228992
H   H45       1.0  0.45600  0.37000  0.50010  1.0000 0.1308481454
H   H46       1.0  0.54400  0.63000  0.49990  1.0000 0.1308481454
H   H47       1.0  0.39650  0.63620  0.48790  1.0000 0.1308481454
H   H48       1.0  0.60350  0.36380  0.51210  1.0000 0.1308481454
H   H49       1.0  0.14950  0.60200  0.47270  1.0000 0.1308481454
H   H50       1.0  0.85050  0.39800  0.52730  1.0000 0.1308481454
H   H51       1.0  0.09370  0.68060  0.40110  1.0000 0.1308481454
H   H52       1.0  0.90630  0.31940  0.59890  1.0000 0.1308481454
H   H53       1.0  0.35380  0.64000  0.32610  1.0000 0.1308481454
H   H54       1.0  0.64620  0.36000  0.67390  1.0000 0.1308481454
H   H55       1.0  0.40830  0.55810  0.39630  1.0000 0.1308481454
H   H56       1.0  0.59170  0.44190  0.60370  1.0000 0.1308481454
H   H57       1.0  0.16340  0.16300  0.97190  1.0000 0.1219228992
H   H58       1.0  0.83660  0.83700  0.02810  1.0000 0.1219228992
H   H59       1.0  0.09980  0.18860  0.05330  1.0000 0.1219228992
H   H60       1.0  0.90020  0.81140  0.94670  1.0000 0.1219228992
H   H61       1.0  0.28410  0.31900  0.06130  1.0000 0.1308481454
H   H62       1.0  0.71590  0.68100  0.93870  1.0000 0.1308481454
H   H63       1.0  0.34970  0.29740  0.98000  1.0000 0.1308481454
H   H64       1.0  0.65030  0.70260  0.02000  1.0000 0.1308481454
H   H65       1.0  0.37250  0.34530  0.85660  1.0000 0.1308481454
H   H66       1.0  0.62750  0.65470  0.14340  1.0000 0.1308481454
H   H67       1.0  0.45820  0.10840  0.93430  1.0000 0.1308481454
H   H68       1.0  0.54180  0.89160  0.06570  1.0000 0.1308481454
H   H69       1.0  0.00690  0.28180  0.19490  1.0000 0.1308481454
H   H70       1.0  0.99310  0.71820  0.80510  1.0000 0.1308481454
H   H71       1.0  0.96190  0.16850  0.25290  1.0000 0.1219228992
H   H72       1.0  0.03810  0.83150  0.74710  1.0000 0.1219228992
C   C1        1.0  0.12830  0.60620  0.18050  1.0000 0.5596977306
C   C2        1.0  0.87170  0.39380  0.81950  1.0000 0.5596977306
C   C3        1.0  0.03000  0.84960  0.05240  1.0000 -0.6011820125
C   C4        1.0  0.97000  0.15040  0.94760  1.0000 -0.6011820125
C   C5        1.0  0.12690  0.51890  0.16580  1.0000 -0.040162226
C   C6        1.0  0.87310  0.48110  0.83420  1.0000 -0.040162226
C   C7        1.0  0.12570  0.96790  0.05620  1.0000 -0.6011820125
C   C8        1.0  0.87430  0.03210  0.94380  1.0000 -0.6011820125
C   C9        1.0  0.15200  0.43920  0.19950  1.0000 -0.0702662681
C   C10       1.0  0.84800  0.56080  0.80050  1.0000 -0.0702662681
C   C11       1.0  0.15530  0.35920  0.18270  1.0000 -0.2033150561
C   C12       1.0  0.84470  0.64080  0.81730  1.0000 -0.2033150561
C   C13       1.0  0.13360  0.35350  0.13640  1.0000 0.180105908
C   C14       1.0  0.86640  0.64650  0.86360  1.0000 0.180105908
C   C15       1.0  0.10670  0.43290  0.10330  1.0000 -0.2085600487
C   C16       1.0  0.89330  0.56710  0.89670  1.0000 -0.2085600487
C   C17       1.0  0.10330  0.51300  0.12100  1.0000 -0.0798169488
C   C18       1.0  0.89670  0.48700  0.87900  1.0000 -0.0798169488
C   C19       1.0  0.11710  0.16280  0.76380  1.0000 0.6093171668
C   C20       1.0  0.88290  0.83720  0.23620  1.0000 0.6093171668
C   C21       1.0  0.16440  0.18140  0.80320  1.0000 -0.0210763149
C   C22       1.0  0.83560  0.81860  0.19680  1.0000 -0.0210763149
C   C23       1.0  0.11580  0.23710  0.84150  1.0000 -0.0702662681
C   C24       1.0  0.88420  0.76290  0.15850  1.0000 -0.0702662681
C   C25       1.0  0.16030  0.25080  0.87550  1.0000 -0.1789175115
C   C26       1.0  0.83970  0.74920  0.12450  1.0000 -0.1789175115
C   C27       1.0  0.25700  0.20720  0.87630  1.0000 0.180105908
C   C28       1.0  0.74300  0.79280  0.12370  1.0000 0.180105908
C   C29       1.0  0.30500  0.15500  0.83730  1.0000 -0.2033150561
C   C30       1.0  0.69500  0.84500  0.16270  1.0000 -0.2033150561
C   C31       1.0  0.25840  0.13970  0.80220  1.0000 -0.0798169488
C   C32       1.0  0.74160  0.86030  0.19780  1.0000 -0.0798169488
C   C33       1.0  0.12340  0.27630  0.60950  1.0000 0.5596977306
C   C34       1.0  0.87660  0.72370  0.39050  1.0000 0.5596977306
C   C35       1.0  0.17360  0.33900  0.57640  1.0000 -0.0491355042
C   C36       1.0  0.82640  0.66100  0.42360  1.0000 -0.0491355042
C   C37       1.0  0.22560  0.37910  0.59560  1.0000 -0.0798169488
C   C38       1.0  0.77440  0.62090  0.40440  1.0000 -0.0798169488
C   C39       1.0  0.27320  0.43800  0.56580  1.0000 -0.2085600487
C   C40       1.0  0.72680  0.56200  0.43420  1.0000 -0.2085600487
C   C41       1.0  0.26950  0.45480  0.51330  1.0000 0.1673347076
C   C42       1.0  0.73050  0.54520  0.48670  1.0000 0.1673347076
C   C43       1.0  0.21660  0.41170  0.49320  1.0000 -0.2085600487
C   C44       1.0  0.78340  0.58830  0.50680  1.0000 -0.2085600487
C   C45       1.0  0.17040  0.35390  0.52370  1.0000 -0.0798169488
C   C46       1.0  0.82960  0.64610  0.47630  1.0000 -0.0798169488
C   C47       1.0  0.68310  0.23110  0.84430  1.0000 0.5657499266
C   C48       1.0  0.31690  0.76890  0.15570  1.0000 0.5657499266
C   C49       1.0  0.51320  0.29950  0.84910  1.0000 -0.0798169488
C   C50       1.0  0.48680  0.70050  0.15090  1.0000 -0.0798169488
C   C51       1.0  0.58350  0.23000  0.86360  1.0000 -0.0312676577
C   C52       1.0  0.41650  0.77000  0.13640  1.0000 -0.0312676577
C   C53       1.0  0.56170  0.15940  0.89440  1.0000 -0.0905636417
C   C54       1.0  0.43830  0.84060  0.10560  1.0000 -0.0905636417
C   C55       1.0  0.02790  0.99200  0.25920  1.0000 0.6093171668
C   C56       1.0  0.97210  0.00800  0.74080  1.0000 0.6151645613
C   C57       1.0  0.05950  0.06490  0.21830  1.0000 -0.0060070262
C   C58       1.0  0.94050  0.93510  0.78170  1.0000 -0.0060070262
C   C59       1.0  0.13290  0.04530  0.17950  1.0000 -0.0798169488
C   C60       1.0  0.86710  0.95470  0.82050  1.0000 -0.0798169488
C   C61       1.0  0.16020  0.11290  0.14690  1.0000 -0.1789175115
C   C62       1.0  0.83980  0.88710  0.85310  1.0000 -0.1789175115
C   C63       1.0  0.40910  0.50580  0.49120  1.0000 0.1505722187
C   C64       1.0  0.59090  0.49420  0.50880  1.0000 0.1505722187
C   C65       1.0  0.47300  0.42270  0.49970  1.0000 -0.1704519148
C   C66       1.0  0.52700  0.57730  0.50030  1.0000 -0.1704519148
C   C67       1.0  0.43820  0.58050  0.49250  1.0000 -0.1704519148
C   C68       1.0  0.56180  0.41950  0.50750  1.0000 -0.1704519148
C   C69       1.0  0.28580  0.56350  0.44110  1.0000 0.1673347076
C   C70       1.0  0.71420  0.43650  0.55890  1.0000 0.1673347076
C   C71       1.0  0.19120  0.60660  0.44250  1.0000 -0.1928824924
C   C72       1.0  0.80880  0.39340  0.55750  1.0000 -0.1928824924
C   C73       1.0  0.15750  0.65620  0.39990  1.0000 -0.0702662681
C   C74       1.0  0.84250  0.34380  0.60010  1.0000 -0.0702662681
C   C75       1.0  0.31150  0.63140  0.35550  1.0000 -0.0702662681
C   C76       1.0  0.68850  0.36860  0.64450  1.0000 -0.0702662681
C   C77       1.0  0.34420  0.58090  0.39770  1.0000 -0.2033150561
C   C78       1.0  0.65580  0.41910  0.60230  1.0000 -0.2033150561
C   C79       1.0  0.18100  0.71770  0.31180  1.0000 0.6093171668
C   C80       1.0  0.81900  0.28230  0.68820  1.0000 0.6093171668
C   C81       1.0  0.21900  0.66870  0.35620  1.0000 -0.0583095568
C   C82       1.0  0.78100  0.33130  0.64380  1.0000 -0.0583095568
C   C83       1.0  0.26150  0.23300  0.96540  1.0000 0.1379537863
C   C84       1.0  0.73850  0.76700  0.03460  1.0000 0.1308481454
C   C85       1.0  0.18690  0.19630  0.98930  1.0000 -0.1538364196
C   C86       1.0  0.81310  0.80370  0.01070  1.0000 -0.1538364196
C   C87       1.0  0.15070  0.21090  0.03800  1.0000 -0.1538364196
C   C88       1.0  0.84930  0.78910  0.96200  1.0000 -0.1538364196
C   C89       1.0  0.18280  0.25570  0.06680  1.0000 0.1379537863
C   C90       1.0  0.81720  0.74430  0.93320  1.0000 0.1379537863
C   C91       1.0  0.25940  0.28830  0.04300  1.0000 -0.1602410766
C   C92       1.0  0.74060  0.71170  0.95700  1.0000 -0.1602410766
C   C93       1.0  0.29780  0.27630  0.99450  1.0000 -0.1602410766
C   C94       1.0  0.70220  0.72370  0.00550  1.0000 -0.1602410766
C   C95       1.0  0.42050  0.29740  0.86580  1.0000 -0.1928824924
C   C96       1.0  0.57950  0.70260  0.13420  1.0000 -0.1928824924
C   C97       1.0  0.39960  0.22260  0.89670  1.0000 0.1505722187
C   C98       1.0  0.60040  0.77740  0.10330  1.0000 0.1505722187
C   C99       1.0  0.47090  0.15620  0.91190  1.0000 -0.1789175115
C   C100      1.0  0.52910  0.84380  0.08810  1.0000 -0.1789175115
C   C101      1.0  0.11580  0.19860  0.15280  1.0000 0.1607177079
C   C102      1.0  0.88420  0.80140  0.84720  1.0000 0.1607177079
C   C103      1.0  0.03890  0.22220  0.19180  1.0000 -0.1928824924
C   C104      1.0  0.96110  0.77780  0.80820  1.0000 -0.1928824924
C   C105      1.0  0.01110  0.15470  0.22590  1.0000 -0.0798169488
C   C106      1.0  0.98890  0.84530  0.77410  1.0000 -0.0798169488
S   S1        1.0  0.11580  0.86030  0.08283  1.0000 0.7499410046
S   S2        1.0  0.88420  0.13970  0.91717  1.0000 0.7499410046
N   N1        1.0  0.13900  0.27030  0.11820  1.0000 -0.1704519148
N   N2        1.0  0.86100  0.72970  0.88180  1.0000 -0.1704519148
N   N3        1.0  0.30300  0.22100  0.91280  1.0000 -0.1704519148
N   N4        1.0  0.69700  0.77900  0.08720  1.0000 -0.1704519148
N   N5        1.0  0.32210  0.51160  0.48270  1.0000 -0.1602410766
N   N6        1.0  0.67790  0.48840  0.51730  1.0000 -0.1602410766
O   O1        1.0  0.14550  0.60890  0.22640  1.0000 -0.6529749798
O   O2        1.0  0.85450  0.39110  0.77360  1.0000 -0.6529749798
O   O3        1.0  0.11040  0.67590  0.14950  1.0000 -0.6592838036
O   O4        1.0  0.88960  0.32410  0.85050  1.0000 -0.6592838036
O   O5        1.0  0.15850  0.10410  0.73440  1.0000 -0.5841477084
O   O6        1.0  0.84150  0.89590  0.26560  1.0000 -0.587807523
O   O7        1.0  0.03560  0.20960  0.76050  1.0000 -0.6900977063
O   O8        1.0  0.96440  0.79040  0.23950  1.0000 -0.6900977063
O   O9        1.0  0.07360  0.23970  0.59170  1.0000 -0.6592838036
O   O10       1.0  0.92640  0.76030  0.40830  1.0000 -0.6592838036
O   O11       1.0  0.13300  0.25900  0.65460  1.0000 -0.587807523
O   O12       1.0  0.86700  0.74100  0.34540  1.0000 -0.587807523
O   O13       1.0  0.07220  0.90960  0.24889  1.0000 -0.7650532293
O   O14       1.0  0.92780  0.09040  0.75111  1.0000 -0.7650532293
O   O15       1.0  0.95750  0.01220  0.29240  1.0000 -0.6129231619
O   O16       1.0  0.04250  0.98780  0.70760  1.0000 -0.6129231619
O   O17       1.0  0.74370  0.15660  0.83750  1.0000 -0.6529749798
O   O18       1.0  0.25630  0.84340  0.16250  1.0000 -0.6529749798
O   O19       1.0  0.70400  0.30380  0.83560  1.0000 -0.587807523
O   O20       1.0  0.29600  0.69620  0.16440  1.0000 -0.587807523
O   O21       1.0  0.09720  0.73840  0.30870  1.0000 -0.682754563
O   O22       1.0  0.90280  0.26160  0.69130  1.0000 -0.682754563
O   O23       1.0  0.23870  0.73540  0.27180  1.0000 -0.6011820125
O   O24       1.0  0.76130  0.26460  0.72820  1.0000 -0.587807523
O   O25       1.0  0.06770  0.87110  0.13790  1.0000 -0.682754563
O   O26       1.0  0.93230  0.12890  0.86210  1.0000 -0.682754563
