# DDEC6 charges by PACMAN v1.1 (https://github.com/mtap-research/PACMAN-charge/)
data_2006[Co][rob]3[ASR]1
_chemical_formula_sum              "Co2 H48 C60 N12 O12"
_cell_length_a       12.5251
_cell_length_b       12.5251
_cell_length_c       19.564
_cell_angle_alpha    75.6402
_cell_angle_beta     104.36
_cell_angle_gamma    111.296

_symmetry_space_group_name_H-M    "P 1"
_symmetry_Int_Tables_number       1

loop_
  _symmetry_equiv_pos_as_xyz
  'x, y, z'

loop_
  _atom_site_type_symbol
  _atom_site_label
  _atom_site_symmetry_multiplicity
  _atom_site_fract_x
  _atom_site_fract_y
  _atom_site_fract_z
  _atom_site_occupancy
  _atom_site_charge
Co  Co1       1.0  0.50000  0.00000  0.50000  1.0000 0.9117382864
Co  Co2       1.0  0.00000  0.50000  0.00000  1.0000 0.9117382864
H   H1        1.0  0.18790  0.81210  0.45350  1.0000 0.1208473527
H   H2        1.0  0.81210  0.18790  0.04650  1.0000 0.1208473527
H   H3        1.0  0.81210  0.18790  0.54650  1.0000 0.1208473527
H   H4        1.0  0.18790  0.81210  0.95350  1.0000 0.1208473527
H   H5        1.0  0.09440  0.69940  0.36680  1.0000 0.1208473527
H   H6        1.0  0.69940  0.09440  0.13320  1.0000 0.1208473527
H   H7        1.0  0.90560  0.30060  0.63320  1.0000 0.1208473527
H   H8        1.0  0.30060  0.90560  0.86680  1.0000 0.1208473527
H   H9        1.0  0.26560  0.94960  0.22650  1.0000 0.1208473527
H   H10       1.0  0.94960  0.26560  0.27350  1.0000 0.1281092903
H   H11       1.0  0.73440  0.05040  0.77350  1.0000 0.1208473527
H   H12       1.0  0.05040  0.73440  0.72650  1.0000 0.1208473527
H   H13       1.0  0.36060  0.05540  0.31620  1.0000 0.1281092903
H   H14       1.0  0.05540  0.36060  0.18380  1.0000 0.1281092903
H   H15       1.0  0.63940  0.94460  0.68380  1.0000 0.1281092903
H   H16       1.0  0.94460  0.63940  0.81620  1.0000 0.1281092903
H   H17       1.0  0.89840  0.50080  0.20160  1.0000 0.1208473527
H   H18       1.0  0.50080  0.89840  0.29840  1.0000 0.1208473527
H   H19       1.0  0.10160  0.49920  0.79840  1.0000 0.1208473527
H   H20       1.0  0.49920  0.10160  0.70160  1.0000 0.1208473527
H   H21       1.0  0.99070  0.61390  0.28790  1.0000 0.1281092903
H   H22       1.0  0.61390  0.99070  0.21210  1.0000 0.1281092903
H   H23       1.0  0.00930  0.38610  0.71210  1.0000 0.1281092903
H   H24       1.0  0.38610  0.00930  0.78790  1.0000 0.1281092903
H   H25       1.0  0.19440  0.83480  0.15180  1.0000 0.1281092903
H   H26       1.0  0.83480  0.19440  0.34820  1.0000 0.1281092903
H   H27       1.0  0.80560  0.16520  0.84820  1.0000 0.1281092903
H   H28       1.0  0.16520  0.80560  0.65180  1.0000 0.1281092903
H   H29       1.0  0.09610  0.71950  0.06660  1.0000 0.1208473527
H   H30       1.0  0.71950  0.09610  0.43340  1.0000 0.1208473527
H   H31       1.0  0.90390  0.28050  0.93340  1.0000 0.1208473527
H   H32       1.0  0.28050  0.90390  0.56660  1.0000 0.1208473527
H   H33       1.0  0.71960  0.35880  0.48960  1.0000 0.1145476407
H   H34       1.0  0.35880  0.71960  0.01040  1.0000 0.1145476407
H   H35       1.0  0.28040  0.64120  0.51040  1.0000 0.1145476407
H   H36       1.0  0.64120  0.28040  0.98960  1.0000 0.1145476407
H   H37       1.0  0.68520  0.51300  0.50900  1.0000 0.1281092903
H   H38       1.0  0.51300  0.68520  0.99100  1.0000 0.1281092903
H   H39       1.0  0.31480  0.48700  0.49100  1.0000 0.1281092903
H   H40       1.0  0.48700  0.31480  0.00900  1.0000 0.1281092903
H   H41       1.0  0.34670  0.34950  0.47000  1.0000 0.1281092903
H   H42       1.0  0.34950  0.34670  0.03000  1.0000 0.1281092903
H   H43       1.0  0.65330  0.65050  0.53000  1.0000 0.1281092903
H   H44       1.0  0.65050  0.65330  0.97000  1.0000 0.1281092903
H   H45       1.0  0.38440  0.19540  0.45160  1.0000 0.1281092903
H   H46       1.0  0.19540  0.38440  0.04840  1.0000 0.1281092903
H   H47       1.0  0.61560  0.80460  0.54840  1.0000 0.1281092903
H   H48       1.0  0.80460  0.61560  0.95160  1.0000 0.1281092903
C   C1        1.0  0.20510  0.83910  0.40740  1.0000 -0.0572858699
C   C2        1.0  0.83910  0.20510  0.09260  1.0000 -0.0572858699
C   C3        1.0  0.79490  0.16090  0.59260  1.0000 -0.0572858699
C   C4        1.0  0.16090  0.79490  0.90740  1.0000 -0.0572858699
C   C5        1.0  0.14850  0.77210  0.35530  1.0000 -0.1965643303
C   C6        1.0  0.77210  0.14850  0.14470  1.0000 -0.1965643303
C   C7        1.0  0.85150  0.22790  0.64470  1.0000 -0.1903773951
C   C8        1.0  0.22790  0.85150  0.85530  1.0000 -0.1965643303
C   C9        1.0  0.17000  0.80980  0.28709  1.0000 0.0868387768
C   C10       1.0  0.80980  0.17000  0.21291  1.0000 0.0868387768
C   C11       1.0  0.83000  0.19020  0.71291  1.0000 0.0868387768
C   C12       1.0  0.19020  0.83000  0.78709  1.0000 0.0868387768
C   C13       1.0  0.24990  0.91910  0.27280  1.0000 -0.1965643303
C   C14       1.0  0.91910  0.24990  0.22720  1.0000 -0.1965643303
C   C15       1.0  0.75010  0.08090  0.72720  1.0000 -0.1965643303
C   C16       1.0  0.08090  0.75010  0.77280  1.0000 -0.1965643303
C   C17       1.0  0.30600  0.98240  0.32630  1.0000 -0.0572858699
C   C18       1.0  0.98240  0.30600  0.17370  1.0000 -0.0572858699
C   C19       1.0  0.69400  0.01760  0.67370  1.0000 -0.0572858699
C   C20       1.0  0.01760  0.69400  0.82630  1.0000 -0.0572858699
C   C21       1.0  0.95980  0.56840  0.19200  1.0000 -0.0796878612
C   C22       1.0  0.56840  0.95980  0.30800  1.0000 -0.0796878612
C   C23       1.0  0.04020  0.43160  0.80800  1.0000 -0.0796878612
C   C24       1.0  0.43160  0.04020  0.69200  1.0000 -0.0796878612
C   C25       1.0  0.01490  0.63570  0.24370  1.0000 -0.1903773951
C   C26       1.0  0.63570  0.01490  0.25630  1.0000 -0.1903773951
C   C27       1.0  0.98510  0.36430  0.75630  1.0000 -0.1903773951
C   C28       1.0  0.36430  0.98510  0.74370  1.0000 -0.1903773951
C   C29       1.0  0.10670  0.73650  0.23011  1.0000 0.0868387768
C   C30       1.0  0.73650  0.10670  0.26989  1.0000 0.0868387768
C   C31       1.0  0.89330  0.26350  0.76989  1.0000 0.0868387768
C   C32       1.0  0.26350  0.89330  0.73011  1.0000 0.0868387768
C   C33       1.0  0.13480  0.76620  0.16300  1.0000 -0.1903773951
C   C34       1.0  0.76620  0.13480  0.33700  1.0000 -0.1903773951
C   C35       1.0  0.86520  0.23380  0.83700  1.0000 -0.1903773951
C   C36       1.0  0.23380  0.86520  0.66300  1.0000 -0.1903773951
C   C37       1.0  0.07670  0.69710  0.11210  1.0000 -0.0520595679
C   C38       1.0  0.69710  0.07670  0.38790  1.0000 -0.0520595679
C   C39       1.0  0.92330  0.30290  0.88790  1.0000 -0.0520595679
C   C40       1.0  0.30290  0.92330  0.61210  1.0000 -0.0520595679
C   C41       1.0  0.64340  0.35640  0.48600  1.0000 -0.0918395495
C   C42       1.0  0.35640  0.64340  0.01400  1.0000 -0.0918395495
C   C43       1.0  0.35660  0.64360  0.51400  1.0000 -0.0918395495
C   C44       1.0  0.64360  0.35660  0.98600  1.0000 -0.0918395495
C   C45       1.0  0.62230  0.44830  0.49770  1.0000 -0.184401994
C   C46       1.0  0.44830  0.62230  0.00230  1.0000 -0.1903773951
C   C47       1.0  0.37770  0.55170  0.50230  1.0000 -0.1903773951
C   C48       1.0  0.55170  0.37770  0.99770  1.0000 -0.1903773951
C   C49       1.0  0.51300  0.45020  0.49370  1.0000 0.0789588248
C   C50       1.0  0.45020  0.51300  0.00630  1.0000 0.0789588248
C   C51       1.0  0.48700  0.54980  0.50630  1.0000 0.0789588248
C   C52       1.0  0.54980  0.48700  0.99370  1.0000 0.0789588248
C   C53       1.0  0.42340  0.35240  0.47490  1.0000 -0.1903773951
C   C54       1.0  0.35240  0.42340  0.02510  1.0000 -0.1903773951
C   C55       1.0  0.57660  0.64760  0.52510  1.0000 -0.1903773951
C   C56       1.0  0.64760  0.57660  0.97490  1.0000 -0.1903773951
C   C57       1.0  0.44610  0.26050  0.46360  1.0000 -0.0368584431
C   C58       1.0  0.26050  0.44610  0.03640  1.0000 -0.0368584431
C   C59       1.0  0.55390  0.73950  0.53640  1.0000 -0.0368584431
C   C60       1.0  0.73950  0.55390  0.96360  1.0000 -0.0368584431
N   N1        1.0  0.28397  0.94171  0.39257  1.0000 0.2802835876
N   N2        1.0  0.94171  0.28397  0.10743  1.0000 0.2802835876
N   N3        1.0  0.71603  0.05829  0.60743  1.0000 0.2802835876
N   N4        1.0  0.05829  0.71603  0.89257  1.0000 0.2802835876
N   N5        1.0  0.99201  0.59759  0.12808  1.0000 0.2802835876
N   N6        1.0  0.59759  0.99201  0.37192  1.0000 0.2802835876
N   N7        1.0  0.00799  0.40241  0.87192  1.0000 0.2802835876
N   N8        1.0  0.40241  0.00799  0.62808  1.0000 0.2802835876
N   N9        1.0  0.55438  0.26154  0.46920  1.0000 0.2884430835
N   N10       1.0  0.26154  0.55438  0.03080  1.0000 0.2884430835
N   N11       1.0  0.44562  0.73846  0.53080  1.0000 0.2884430835
N   N12       1.0  0.73846  0.44562  0.96920  1.0000 0.2884430835
O   O1        1.0  0.33792  0.00500  0.44475  1.0000 -0.5097566595
O   O2        1.0  0.00500  0.33792  0.05525  1.0000 -0.5097566595
O   O3        1.0  0.66208  0.99500  0.55525  1.0000 -0.5097566595
O   O4        1.0  0.99500  0.66208  0.94475  1.0000 -0.5097566595
O   O5        1.0  0.93477  0.52621  0.08067  1.0000 -0.5178069672
O   O6        1.0  0.52621  0.93477  0.41933  1.0000 -0.5178069672
O   O7        1.0  0.06523  0.47379  0.91933  1.0000 -0.5178069672
O   O8        1.0  0.47379  0.06523  0.58067  1.0000 -0.5178069672
O   O9        1.0  0.57815  0.17293  0.45822  1.0000 -0.4925929656
O   O10       1.0  0.17293  0.57815  0.04178  1.0000 -0.4925929656
O   O11       1.0  0.42185  0.82707  0.54178  1.0000 -0.4925929656
O   O12       1.0  0.82707  0.42185  0.95822  1.0000 -0.4925929656
