# DDEC6 charges by PACMAN v1.1 (https://github.com/mtap-research/PACMAN-charge/)
data_2006[V][nan]3[ASR]2
_chemical_formula_sum              "V8 P8 H28 C12 O28"
_cell_length_a       9.15612
_cell_length_b       9.15612
_cell_length_c       18.5903
_cell_angle_alpha    78.8022
_cell_angle_beta     101.198
_cell_angle_gamma    112.21

_symmetry_space_group_name_H-M    "P 1"
_symmetry_Int_Tables_number       1

loop_
  _symmetry_equiv_pos_as_xyz
  'x, y, z'

loop_
  _atom_site_type_symbol
  _atom_site_label
  _atom_site_symmetry_multiplicity
  _atom_site_fract_x
  _atom_site_fract_y
  _atom_site_fract_z
  _atom_site_occupancy
  _atom_site_charge
V   V1        1.0  0.45558  0.77608  0.91606  1.0000 1.5472724719
V   V2        1.0  0.77608  0.45558  0.58394  1.0000 1.5472724719
V   V3        1.0  0.54442  0.22392  0.08394  1.0000 1.5472724719
V   V4        1.0  0.22392  0.54442  0.41606  1.0000 1.5472724719
V   V5        1.0  0.29858  0.79438  0.71606  1.0000 1.5333791656
V   V6        1.0  0.79438  0.29858  0.78394  1.0000 1.5333791656
V   V7        1.0  0.70142  0.20562  0.28394  1.0000 1.5333791656
V   V8        1.0  0.20562  0.70142  0.21606  1.0000 1.5333791656
P   P1        1.0  0.40799  0.83527  0.07779  1.0000 1.3839394433
P   P2        1.0  0.83527  0.40799  0.42221  1.0000 1.3839394433
P   P3        1.0  0.59201  0.16473  0.92221  1.0000 1.3839394433
P   P4        1.0  0.16473  0.59201  0.57779  1.0000 1.3839394433
P   P5        1.0  0.83209  0.50523  0.16428  1.0000 1.3651702983
P   P6        1.0  0.50523  0.83209  0.33572  1.0000 1.3651702983
P   P7        1.0  0.16791  0.49477  0.83572  1.0000 1.3651702983
P   P8        1.0  0.49477  0.16791  0.66428  1.0000 1.3651702983
H   H1        1.0  0.67690  0.90490  0.07580  1.0000 0.1452713369
H   H2        1.0  0.90490  0.67690  0.42420  1.0000 0.1452713369
H   H3        1.0  0.32310  0.09510  0.92420  1.0000 0.1452713369
H   H4        1.0  0.09510  0.32310  0.57580  1.0000 0.1452713369
H   H5        1.0  0.64130  0.88610  0.15860  1.0000 0.1368472448
H   H6        1.0  0.88610  0.64130  0.34140  1.0000 0.1368472448
H   H7        1.0  0.35870  0.11390  0.84140  1.0000 0.1368472448
H   H8        1.0  0.11390  0.35870  0.65860  1.0000 0.1368472448
H   H9        1.0  0.85040  0.75520  0.17990  1.0000 0.1337165965
H   H10       1.0  0.75520  0.85040  0.32010  1.0000 0.1337165965
H   H11       1.0  0.14960  0.24480  0.82010  1.0000 0.1337165965
H   H12       1.0  0.24480  0.14960  0.67990  1.0000 0.1337165965
H   H13       1.0  0.84120  0.74460  0.09440  1.0000 0.1368472448
H   H14       1.0  0.74460  0.84120  0.40560  1.0000 0.1368472448
H   H15       1.0  0.15880  0.25540  0.90560  1.0000 0.1368472448
H   H16       1.0  0.25540  0.15880  0.59440  1.0000 0.1368472448
H   H17       1.0  0.56980  0.61240  0.17230  1.0000 0.1017026884
H   H18       1.0  0.61240  0.56980  0.32770  1.0000 0.1017026884
H   H19       1.0  0.43020  0.38760  0.82770  1.0000 0.1017026884
H   H20       1.0  0.38760  0.43020  0.67230  1.0000 0.1017026884
H   H21       1.0  0.56370  0.61330  0.08550  1.0000 0.0800909383
H   H22       1.0  0.61330  0.56370  0.41450  1.0000 0.0800909383
H   H23       1.0  0.43630  0.38670  0.91450  1.0000 0.0800909383
H   H24       1.0  0.38670  0.43630  0.58550  1.0000 0.0800909383
H   H25       1.0  0.49200  0.92000  0.80400  1.0000 0.381494893
H   H26       1.0  0.92000  0.49200  0.69600  1.0000 0.381494893
H   H27       1.0  0.50800  0.08000  0.19600  1.0000 0.381494893
H   H28       1.0  0.08000  0.50800  0.30400  1.0000 0.381494893
C   C1        1.0  0.60500  0.83700  0.11230  1.0000 -0.5379779951
C   C2        1.0  0.83700  0.60500  0.38770  1.0000 -0.5379779951
C   C3        1.0  0.39500  0.16300  0.88770  1.0000 -0.5379779951
C   C4        1.0  0.16300  0.39500  0.61230  1.0000 -0.5379779951
C   C5        1.0  0.79430  0.68790  0.14010  1.0000 -0.5273143517
C   C6        1.0  0.68790  0.79430  0.35990  1.0000 -0.5273143517
C   C7        1.0  0.20570  0.31210  0.85990  1.0000 -0.5273143517
C   C8        1.0  0.31210  0.20570  0.64010  1.0000 -0.5273143517
C   C9        1.0  0.62020  0.67280  0.12780  1.0000 -0.0725377759
C   C10       1.0  0.67280  0.62020  0.37220  1.0000 -0.0725377759
C   C11       1.0  0.37980  0.32720  0.87220  1.0000 -0.0725377759
C   C12       1.0  0.32720  0.37980  0.62780  1.0000 -0.0725377759
O   O1        1.0  0.36288  0.78572  0.00013  1.0000 -0.8076805638
O   O2        1.0  0.78572  0.36288  0.49987  1.0000 -0.8076805638
O   O3        1.0  0.63712  0.21428  0.99987  1.0000 -0.8076805638
O   O4        1.0  0.21428  0.63712  0.50013  1.0000 -0.8076805638
O   O5        1.0  0.74771  0.39829  0.10387  1.0000 -0.8289191442
O   O6        1.0  0.39829  0.74771  0.39613  1.0000 -0.8289191442
O   O7        1.0  0.25229  0.60171  0.89613  1.0000 -0.8289191442
O   O8        1.0  0.60171  0.25229  0.60387  1.0000 -0.8289191442
O   O9        1.0  0.44090  0.84590  0.80845  1.0000 -0.8430867212
O   O10       1.0  0.84590  0.44090  0.69155  1.0000 -0.8430867212
O   O11       1.0  0.55910  0.15410  0.19155  1.0000 -0.8430867212
O   O12       1.0  0.15410  0.55910  0.30845  1.0000 -0.8430867212
O   O13       1.0  0.40266  0.99894  0.07841  1.0000 -0.8667322116
O   O14       1.0  0.99894  0.40266  0.42159  1.0000 -0.8667322116
O   O15       1.0  0.59734  0.00106  0.92159  1.0000 -0.8667322116
O   O16       1.0  0.00106  0.59734  0.57841  1.0000 -0.8667322116
O   O17       1.0  0.28879  0.70841  0.12580  1.0000 -0.7846255617
O   O18       1.0  0.70841  0.28879  0.37420  1.0000 -0.7846255617
O   O19       1.0  0.71121  0.29159  0.87420  1.0000 -0.7846255617
O   O20       1.0  0.29159  0.71121  0.62580  1.0000 -0.7846255617
O   O21       1.0  0.01106  0.54514  0.16968  1.0000 -0.8226431476
O   O22       1.0  0.54514  0.01106  0.33032  1.0000 -0.8226431476
O   O23       1.0  0.98894  0.45486  0.83032  1.0000 -0.8226431476
O   O24       1.0  0.45486  0.98894  0.66968  1.0000 -0.8226431476
O   O25       1.0  0.77219  0.42901  0.23887  1.0000 -0.8542148488
O   O26       1.0  0.42901  0.77219  0.26113  1.0000 -0.8542148488
O   O27       1.0  0.22781  0.57099  0.76113  1.0000 -0.8542148488
O   O28       1.0  0.57099  0.22781  0.73887  1.0000 -0.8542148488
