# DDEC6 charges by PACMAN v1.1 (https://github.com/mtap-research/PACMAN-charge/)
data_2006[Co][nan]3[ASR]2
_chemical_formula_sum              "Co6 H16 C28 N4 O20"
_cell_length_a       11.1482
_cell_length_b       11.1482
_cell_length_c       10.7738
_cell_angle_alpha    77.5125
_cell_angle_beta     102.487
_cell_angle_gamma    99.9866

_symmetry_space_group_name_H-M    "P 1"
_symmetry_Int_Tables_number       1

loop_
  _symmetry_equiv_pos_as_xyz
  'x, y, z'

loop_
  _atom_site_type_symbol
  _atom_site_label
  _atom_site_symmetry_multiplicity
  _atom_site_fract_x
  _atom_site_fract_y
  _atom_site_fract_z
  _atom_site_occupancy
  _atom_site_charge
Co  Co1       1.0  0.06611  0.87893  0.05241  1.0000 0.9646459718
Co  Co2       1.0  0.87893  0.06611  0.44759  1.0000 0.9661695857
Co  Co3       1.0  0.93389  0.12107  0.94759  1.0000 0.9661695857
Co  Co4       1.0  0.12107  0.93389  0.55241  1.0000 0.9646459718
Co  Co5       1.0  0.90852  0.90852  0.25000  1.0000 1.0595530171
Co  Co6       1.0  0.09148  0.09148  0.75000  1.0000 1.0595530171
H   H1        1.0  0.83400  0.90200  0.01900  1.0000 0.377359112
H   H2        1.0  0.90200  0.83400  0.48100  1.0000 0.377359112
H   H3        1.0  0.16600  0.09800  0.98100  1.0000 0.377359112
H   H4        1.0  0.09800  0.16600  0.51900  1.0000 0.377359112
H   H5        1.0  0.45220  0.95980  0.36100  1.0000 0.1522649985
H   H6        1.0  0.95980  0.45220  0.13900  1.0000 0.1522649985
H   H7        1.0  0.54780  0.04020  0.63900  1.0000 0.1522649985
H   H8        1.0  0.04020  0.54780  0.86100  1.0000 0.1522649985
H   H9        1.0  0.52700  0.86300  0.06100  1.0000 0.1325551916
H   H10       1.0  0.86300  0.52700  0.43900  1.0000 0.1325551916
H   H11       1.0  0.47300  0.13700  0.93900  1.0000 0.1325551916
H   H12       1.0  0.13700  0.47300  0.56100  1.0000 0.1325551916
H   H13       1.0  0.31400  0.82600  0.97900  1.0000 0.1125131429
H   H14       1.0  0.82600  0.31400  0.52100  1.0000 0.1125131429
H   H15       1.0  0.68600  0.17400  0.02100  1.0000 0.1125131429
H   H16       1.0  0.17400  0.68600  0.47900  1.0000 0.1125131429
C   C1        1.0  0.30329  0.91193  0.23670  1.0000 0.1001303543
C   C2        1.0  0.91193  0.30329  0.26330  1.0000 0.1001303543
C   C3        1.0  0.69671  0.08807  0.76330  1.0000 0.1001303543
C   C4        1.0  0.08807  0.69671  0.73670  1.0000 0.1001303543
C   C5        1.0  0.42822  0.93414  0.28940  1.0000 -0.1453601632
C   C6        1.0  0.93414  0.42822  0.21060  1.0000 -0.1453601632
C   C7        1.0  0.57178  0.06586  0.71060  1.0000 -0.1453601632
C   C8        1.0  0.06586  0.57178  0.78940  1.0000 -0.1453601632
C   C9        1.0  0.51432  0.91724  0.22120  1.0000 0.0224522634
C   C10       1.0  0.91724  0.51432  0.27880  1.0000 0.0224522634
C   C11       1.0  0.48568  0.08276  0.77880  1.0000 0.0224522634
C   C12       1.0  0.08276  0.48568  0.72120  1.0000 0.0224522634
C   C13       1.0  0.47183  0.87537  0.10520  1.0000 -0.1562260788
C   C14       1.0  0.87537  0.47183  0.39480  1.0000 -0.1562260788
C   C15       1.0  0.52817  0.12463  0.89480  1.0000 -0.1562260788
C   C16       1.0  0.12463  0.52817  0.60520  1.0000 -0.1562260788
C   C17       1.0  0.34539  0.85741  0.05830  1.0000 0.086320718
C   C18       1.0  0.85741  0.34539  0.44170  1.0000 0.086320718
C   C19       1.0  0.65461  0.14259  0.94170  1.0000 0.086320718
C   C20       1.0  0.14259  0.65461  0.55830  1.0000 0.086320718
C   C21       1.0  0.20339  0.92883  0.30300  1.0000 0.5614471931
C   C22       1.0  0.92883  0.20339  0.19700  1.0000 0.5614471931
C   C23       1.0  0.79661  0.07117  0.69700  1.0000 0.5614471931
C   C24       1.0  0.07117  0.79661  0.80300  1.0000 0.5614471931
C   C25       1.0  0.65291  0.94237  0.26980  1.0000 0.5684476394
C   C26       1.0  0.94237  0.65291  0.23020  1.0000 0.5684476394
C   C27       1.0  0.34709  0.05763  0.73020  1.0000 0.5684476394
C   C28       1.0  0.05763  0.34709  0.76980  1.0000 0.5684476394
N   N1        1.0  0.26195  0.87663  0.12150  1.0000 -0.2606837999
N   N2        1.0  0.87663  0.26195  0.37850  1.0000 -0.2606837999
N   N3        1.0  0.73805  0.12337  0.87850  1.0000 -0.2606837999
N   N4        1.0  0.12337  0.73805  0.62150  1.0000 -0.2606837999
O   O1        1.0  0.09621  0.92775  0.23473  1.0000 -0.5722058814
O   O2        1.0  0.92775  0.09621  0.26527  1.0000 -0.5722058814
O   O3        1.0  0.90379  0.07225  0.76527  1.0000 -0.5722058814
O   O4        1.0  0.07225  0.90379  0.73473  1.0000 -0.5722058814
O   O5        1.0  0.23098  0.94020  0.41813  1.0000 -0.5010660093
O   O6        1.0  0.94020  0.23098  0.08187  1.0000 -0.5010660093
O   O7        1.0  0.76902  0.05980  0.58187  1.0000 -0.5010660093
O   O8        1.0  0.05980  0.76902  0.91813  1.0000 -0.5010660093
O   O9        1.0  0.69003  0.01823  0.34556  1.0000 -0.5593597095
O   O10       1.0  0.01823  0.69003  0.15444  1.0000 -0.5593597095
O   O11       1.0  0.30997  0.98177  0.65444  1.0000 -0.5593597095
O   O12       1.0  0.98177  0.30997  0.84556  1.0000 -0.5593597095
O   O13       1.0  0.71846  0.88590  0.22770  1.0000 -0.5593597095
O   O14       1.0  0.88590  0.71846  0.27230  1.0000 -0.5593597095
O   O15       1.0  0.28154  0.11410  0.77230  1.0000 -0.5593597095
O   O16       1.0  0.11410  0.28154  0.72770  1.0000 -0.5593597095
O   O17       1.0  0.89863  0.94015  0.05017  1.0000 -0.8544135492
O   O18       1.0  0.94015  0.89863  0.44983  1.0000 -0.8544135492
O   O19       1.0  0.10137  0.05985  0.94983  1.0000 -0.8544135492
O   O20       1.0  0.05985  0.10137  0.55017  1.0000 -0.8544135492
