# DDEC6 charges by PACMAN v1.1 (https://github.com/mtap-research/PACMAN-charge/)
data_2006[Co][mot]3[ASR]1
_chemical_formula_sum              "Co2 H22 C36 N4 O9"
_cell_length_a       12.9347
_cell_length_b       12.9347
_cell_length_c       11.375
_cell_angle_alpha    75.6047
_cell_angle_beta     104.395
_cell_angle_gamma    142.479

_symmetry_space_group_name_H-M    "P 1"
_symmetry_Int_Tables_number       1

loop_
  _symmetry_equiv_pos_as_xyz
  'x, y, z'

loop_
  _atom_site_type_symbol
  _atom_site_label
  _atom_site_symmetry_multiplicity
  _atom_site_fract_x
  _atom_site_fract_y
  _atom_site_fract_z
  _atom_site_occupancy
  _atom_site_charge
Co  Co1       1.0  0.30669  0.67709  0.06344  1.0000 0.7980342756
Co  Co2       1.0  0.67709  0.30669  0.93656  1.0000 0.7980342756
H   H1        1.0  0.90060  0.86020  0.18630  1.0000 0.1422524627
H   H2        1.0  0.86020  0.90060  0.81370  1.0000 0.1422524627
H   H3        1.0  0.11390  0.90230  0.28190  1.0000 0.1114177046
H   H4        1.0  0.90230  0.11390  0.71810  1.0000 0.1114177046
H   H5        1.0  0.17180  0.80820  0.20510  1.0000 0.1204249027
H   H6        1.0  0.80820  0.17180  0.79490  1.0000 0.1204249027
H   H7        1.0  0.32500  0.85340  0.80220  1.0000 0.1035282218
H   H8        1.0  0.85340  0.32500  0.19780  1.0000 0.1035282218
H   H9        1.0  0.33200  0.85420  0.60680  1.0000 0.1204249027
H   H10       1.0  0.85420  0.33200  0.39320  1.0000 0.1204249027
H   H11       1.0  0.29900  0.51280  0.69890  1.0000 0.1422524627
H   H12       1.0  0.51280  0.29900  0.30110  1.0000 0.1422524627
H   H13       1.0  0.28430  0.50670  0.90120  1.0000 0.1204249027
H   H14       1.0  0.50670  0.28430  0.09880  1.0000 0.1204249027
H   H15       1.0  0.50860  0.93380  0.47460  1.0000 0.1204249027
H   H16       1.0  0.93380  0.50860  0.52540  1.0000 0.1204249027
H   H17       1.0  0.53870  0.95590  0.27390  1.0000 0.1114177046
H   H18       1.0  0.95590  0.53870  0.72610  1.0000 0.1114177046
H   H19       1.0  0.12690  0.44590  0.27420  1.0000 0.1114177046
H   H20       1.0  0.44590  0.12690  0.72580  1.0000 0.1114177046
H   H21       1.0  0.09720  0.42400  0.47490  1.0000 0.1299124609
H   H22       1.0  0.42400  0.09720  0.52510  1.0000 0.1299124609
C   C1        1.0  0.04970  0.65950  0.00570  1.0000 0.5485010694
C   C2        1.0  0.65950  0.04970  0.99430  1.0000 0.5485010694
C   C3        1.0  0.00760  0.72000  0.05230  1.0000 -0.0393604015
C   C4        1.0  0.72000  0.00760  0.94770  1.0000 -0.0393604015
C   C5        1.0  0.87640  0.68400  0.00130  1.0000 -0.1367809374
C   C6        1.0  0.68400  0.87640  0.99870  1.0000 -0.1367809374
C   C7        1.0  0.84160  0.74520  0.04920  1.0000 0.2185998212
C   C8        1.0  0.74520  0.84160  0.95080  1.0000 0.2185998212
C   C9        1.0  0.92580  0.82360  0.15330  1.0000 -0.1817026113
C   C10       1.0  0.82360  0.92580  0.84670  1.0000 -0.1817026113
C   C11       1.0  0.05370  0.84810  0.21030  1.0000 -0.0857629378
C   C12       1.0  0.84810  0.05370  0.78970  1.0000 -0.0857629378
C   C13       1.0  0.09070  0.79510  0.16360  1.0000 -0.150800233
C   C14       1.0  0.79510  0.09070  0.83640  1.0000 -0.150800233
C   C15       1.0  0.31730  0.78170  0.78250  1.0000 0.0895687119
C   C16       1.0  0.78170  0.31730  0.21750  1.0000 0.0895687119
C   C17       1.0  0.32160  0.78240  0.66550  1.0000 -0.207317685
C   C18       1.0  0.78240  0.32160  0.33450  1.0000 -0.207317685
C   C19       1.0  0.31120  0.67940  0.62930  1.0000 0.1035282218
C   C20       1.0  0.67940  0.31120  0.37070  1.0000 0.1035282218
C   C21       1.0  0.30130  0.58010  0.71890  1.0000 -0.1817026113
C   C22       1.0  0.58010  0.30130  0.28110  1.0000 -0.1817026113
C   C23       1.0  0.29450  0.57790  0.84150  1.0000 0.0849540259
C   C24       1.0  0.57790  0.29450  0.15850  1.0000 0.0895687119
C   C25       1.0  0.29990  0.67670  0.49470  1.0000 0.1035282218
C   C26       1.0  0.67670  0.29990  0.50530  1.0000 0.1035282218
C   C27       1.0  0.43220  0.83600  0.43450  1.0000 -0.1981520702
C   C28       1.0  0.83600  0.43220  0.56550  1.0000 -0.1981520702
C   C29       1.0  0.45010  0.84930  0.31420  1.0000 0.1035282218
C   C30       1.0  0.84930  0.45010  0.68580  1.0000 0.1035282218
C   C31       1.0  0.20350  0.54370  0.31440  1.0000 0.060351501
C   C32       1.0  0.54370  0.20350  0.68560  1.0000 0.060351501
C   C33       1.0  0.18570  0.53070  0.43460  1.0000 -0.1981520702
C   C34       1.0  0.53070  0.18570  0.56540  1.0000 -0.1981520702
C   C35       1.0  0.77680  0.60580  0.88270  1.0000 0.598419721
C   C36       1.0  0.60580  0.77680  0.11730  1.0000 0.598419721
N   N1        1.0  0.33590  0.70330  0.25420  1.0000 -0.2615771343
N   N2        1.0  0.70330  0.33590  0.74580  1.0000 -0.2615771343
N   N3        1.0  0.30230  0.68130  0.87170  1.0000 -0.2667318334
N   N4        1.0  0.68130  0.30230  0.12830  1.0000 -0.2667318334
O   O1        1.0  0.18948  0.73272  0.03480  1.0000 -0.4721854527
O   O2        1.0  0.73272  0.18948  0.96520  1.0000 -0.4721854527
O   O3        1.0  0.93979  0.53541  0.94950  1.0000 -0.4721854527
O   O4        1.0  0.53541  0.93979  0.05050  1.0000 -0.4721854527
O   O5        1.0  0.84193  0.70547  0.79000  1.0000 -0.5156379987
O   O6        1.0  0.70547  0.84193  0.21000  1.0000 -0.5156379987
O   O7        1.0  0.64053  0.44307  0.88880  1.0000 -0.5830298115
O   O8        1.0  0.44307  0.64053  0.11120  1.0000 -0.5830298115
O   O9        1.0  0.70180  0.70180  0.00000  1.0000 -0.1882804532
