# DDEC6 charges by PACMAN v1.1 (https://github.com/mtap-research/PACMAN-charge/)
data_2006[Zn][dia]3[ASR]5
_chemical_formula_sum              "Zn12 H24 C24 O48"
_cell_length_a       11.2065
_cell_length_b       9.7744
_cell_length_c       18.3348
_cell_angle_alpha    90
_cell_angle_beta     126.61
_cell_angle_gamma    90

_symmetry_space_group_name_H-M    "P 1"
_symmetry_Int_Tables_number       1

loop_
  _symmetry_equiv_pos_as_xyz
  'x, y, z'

loop_
  _atom_site_type_symbol
  _atom_site_label
  _atom_site_symmetry_multiplicity
  _atom_site_fract_x
  _atom_site_fract_y
  _atom_site_fract_z
  _atom_site_occupancy
  _atom_site_charge
Zn  Zn1       1.0  0.62339  0.92099  0.86765  1.0000 0.9466531235
Zn  Zn2       1.0  0.37661  0.42099  0.63235  1.0000 0.9466531235
Zn  Zn3       1.0  0.37661  0.07901  0.13235  1.0000 0.9466531235
Zn  Zn4       1.0  0.62339  0.57901  0.36765  1.0000 0.9466531235
Zn  Zn5       1.0  0.42716  0.10828  0.68948  1.0000 0.9223954934
Zn  Zn6       1.0  0.57284  0.60828  0.81052  1.0000 0.9223954934
Zn  Zn7       1.0  0.57284  0.89172  0.31052  1.0000 0.9223954934
Zn  Zn8       1.0  0.42716  0.39172  0.18948  1.0000 0.9223954934
Zn  Zn9       1.0  0.50000  0.00000  0.00000  1.0000 0.9466531235
Zn  Zn10      1.0  0.50000  0.50000  0.50000  1.0000 0.9466531235
Zn  Zn11      1.0  0.00000  0.00000  0.00000  1.0000 0.9466531235
Zn  Zn12      1.0  0.00000  0.50000  0.50000  1.0000 0.9466531235
H   H1        1.0  0.50180  0.75750  0.63530  1.0000 0.0889839588
H   H2        1.0  0.49820  0.25750  0.86470  1.0000 0.0889839588
H   H3        1.0  0.49820  0.24250  0.36470  1.0000 0.0889839588
H   H4        1.0  0.50180  0.74250  0.13530  1.0000 0.0889839588
H   H5        1.0  0.20800  0.03890  0.73740  1.0000 0.0889839588
H   H6        1.0  0.79200  0.53890  0.76260  1.0000 0.0889839588
H   H7        1.0  0.79200  0.96110  0.26260  1.0000 0.0889839588
H   H8        1.0  0.20800  0.46110  0.23740  1.0000 0.0889839588
H   H9        1.0  0.50810  0.61530  0.95220  1.0000 0.0889839588
H   H10       1.0  0.49190  0.11530  0.54780  1.0000 0.0889839588
H   H11       1.0  0.49190  0.38470  0.04780  1.0000 0.0889839588
H   H12       1.0  0.50810  0.88470  0.45220  1.0000 0.0889839588
H   H13       1.0  0.75280  0.19780  0.77300  1.0000 0.0889839588
H   H14       1.0  0.24720  0.69780  0.72700  1.0000 0.0889839588
H   H15       1.0  0.24720  0.80220  0.22700  1.0000 0.0889839588
H   H16       1.0  0.75280  0.30220  0.27300  1.0000 0.0889839588
H   H17       1.0  0.76410  0.16240  0.06890  1.0000 0.0889839588
H   H18       1.0  0.23590  0.66240  0.43110  1.0000 0.0889839588
H   H19       1.0  0.23590  0.83760  0.93110  1.0000 0.0889839588
H   H20       1.0  0.76410  0.33760  0.56890  1.0000 0.0889839588
H   H21       1.0  0.98060  0.70100  0.99210  1.0000 0.0889839588
H   H22       1.0  0.01940  0.20100  0.50790  1.0000 0.0889839588
H   H23       1.0  0.01940  0.29900  0.00790  1.0000 0.0889839588
H   H24       1.0  0.98060  0.79900  0.49210  1.0000 0.0889839588
C   C1        1.0  0.50500  0.82870  0.67170  1.0000 0.4900813657
C   C2        1.0  0.49500  0.32870  0.82830  1.0000 0.4900813657
C   C3        1.0  0.49500  0.17130  0.32830  1.0000 0.4900813657
C   C4        1.0  0.50500  0.67130  0.17170  1.0000 0.4900813657
C   C5        1.0  0.30440  0.01800  0.79060  1.0000 0.4707386949
C   C6        1.0  0.69560  0.51800  0.70940  1.0000 0.4707386949
C   C7        1.0  0.69560  0.98200  0.20940  1.0000 0.4707386949
C   C8        1.0  0.30440  0.48200  0.29060  1.0000 0.4707386949
C   C9        1.0  0.51820  0.71010  0.94550  1.0000 0.4707386949
C   C10       1.0  0.48180  0.21010  0.55450  1.0000 0.4707386949
C   C11       1.0  0.48180  0.28990  0.05450  1.0000 0.4707386949
C   C12       1.0  0.51820  0.78990  0.44550  1.0000 0.4707386949
C   C13       1.0  0.77000  0.13380  0.81730  1.0000 0.4707386949
C   C14       1.0  0.23000  0.63380  0.68270  1.0000 0.4707386949
C   C15       1.0  0.23000  0.86620  0.18270  1.0000 0.4707386949
C   C16       1.0  0.77000  0.36620  0.31730  1.0000 0.4707386949
C   C17       1.0  0.77150  0.10610  0.02950  1.0000 0.4900813657
C   C18       1.0  0.22850  0.60610  0.47050  1.0000 0.4900813657
C   C19       1.0  0.22850  0.89390  0.97050  1.0000 0.4900813657
C   C20       1.0  0.77150  0.39390  0.52950  1.0000 0.4900813657
C   C21       1.0  0.87780  0.71920  0.94770  1.0000 0.4900813657
C   C22       1.0  0.12220  0.21920  0.55230  1.0000 0.4900813657
C   C23       1.0  0.12220  0.28080  0.05230  1.0000 0.4900813657
C   C24       1.0  0.87780  0.78080  0.44770  1.0000 0.4900813657
O   O1        1.0  0.56696  0.80100  0.75480  1.0000 -0.5414015494
O   O2        1.0  0.43304  0.30100  0.74520  1.0000 -0.5414015494
O   O3        1.0  0.43304  0.19900  0.24520  1.0000 -0.5414015494
O   O4        1.0  0.56696  0.69900  0.25480  1.0000 -0.5414015494
O   O5        1.0  0.44820  0.94017  0.63330  1.0000 -0.4974666294
O   O6        1.0  0.55180  0.44017  0.86670  1.0000 -0.4974666294
O   O7        1.0  0.55180  0.05983  0.36670  1.0000 -0.4974666294
O   O8        1.0  0.44820  0.55983  0.13330  1.0000 -0.4974666294
O   O9        1.0  0.40832  0.00515  0.78170  1.0000 -0.5460913421
O   O10       1.0  0.59168  0.50515  0.71830  1.0000 -0.5460913421
O   O11       1.0  0.59168  0.99485  0.21830  1.0000 -0.5460913421
O   O12       1.0  0.40832  0.49485  0.28170  1.0000 -0.5460913421
O   O13       1.0  0.31790  0.00571  0.86246  1.0000 -0.4974666294
O   O14       1.0  0.68210  0.50571  0.63754  1.0000 -0.4974666294
O   O15       1.0  0.68210  0.99429  0.13754  1.0000 -0.4974666294
O   O16       1.0  0.31790  0.49429  0.36246  1.0000 -0.4974666294
O   O17       1.0  0.53815  0.74300  0.88576  1.0000 -0.5460913421
O   O18       1.0  0.46185  0.24300  0.61424  1.0000 -0.5460913421
O   O19       1.0  0.46185  0.25700  0.11424  1.0000 -0.5460913421
O   O20       1.0  0.53815  0.75700  0.38576  1.0000 -0.5460913421
O   O21       1.0  0.51070  0.78892  0.99505  1.0000 -0.4974666294
O   O22       1.0  0.48930  0.28892  0.50495  1.0000 -0.4974666294
O   O23       1.0  0.48930  0.21108  0.00495  1.0000 -0.4974666294
O   O24       1.0  0.51070  0.71108  0.49505  1.0000 -0.4974666294
O   O25       1.0  0.65517  0.08479  0.80675  1.0000 -0.5414015494
O   O26       1.0  0.34483  0.58479  0.69325  1.0000 -0.5414015494
O   O27       1.0  0.34483  0.91521  0.19325  1.0000 -0.5414015494
O   O28       1.0  0.65517  0.41521  0.30675  1.0000 -0.5414015494
O   O29       1.0  0.90100  0.10713  0.87898  1.0000 -0.4822538536
O   O30       1.0  0.09900  0.60713  0.62102  1.0000 -0.4822538536
O   O31       1.0  0.09900  0.89287  0.12102  1.0000 -0.4822538536
O   O32       1.0  0.90100  0.39287  0.37898  1.0000 -0.4822538536
O   O33       1.0  0.66082  0.02672  0.97584  1.0000 -0.5460913421
O   O34       1.0  0.33918  0.52672  0.52416  1.0000 -0.5460913421
O   O35       1.0  0.33918  0.97328  0.02416  1.0000 -0.5460913421
O   O36       1.0  0.66082  0.47328  0.47584  1.0000 -0.5460913421
O   O37       1.0  0.88549  0.11646  0.03486  1.0000 -0.4974666294
O   O38       1.0  0.11451  0.61646  0.46514  1.0000 -0.4974666294
O   O39       1.0  0.11451  0.88354  0.96514  1.0000 -0.4974666294
O   O40       1.0  0.88549  0.38354  0.53486  1.0000 -0.4974666294
O   O41       1.0  0.83628  0.84434  0.93905  1.0000 -0.5414015494
O   O42       1.0  0.16372  0.34434  0.56095  1.0000 -0.5414015494
O   O43       1.0  0.16372  0.15566  0.06095  1.0000 -0.5414015494
O   O44       1.0  0.83628  0.65566  0.43905  1.0000 -0.5414015494
O   O45       1.0  0.79737  0.61969  0.90401  1.0000 -0.4974666294
O   O46       1.0  0.20263  0.11969  0.59599  1.0000 -0.4974666294
O   O47       1.0  0.20263  0.38031  0.09599  1.0000 -0.4974666294
O   O48       1.0  0.79737  0.88031  0.40401  1.0000 -0.4974666294
