# DDEC6 charges by PACMAN v1.1 (https://github.com/mtap-research/PACMAN-charge/)
data_2006[Cu][sra]3[ASR]1
_chemical_formula_sum              "Cu12 H172 C172 N16 O24"
_cell_length_a       12.77
_cell_length_b       30.195
_cell_length_c       16.428
_cell_angle_alpha    90
_cell_angle_beta     108.083
_cell_angle_gamma    90

_symmetry_space_group_name_H-M    "P 1"
_symmetry_Int_Tables_number       1

loop_
  _symmetry_equiv_pos_as_xyz
  'x, y, z'

loop_
  _atom_site_type_symbol
  _atom_site_label
  _atom_site_symmetry_multiplicity
  _atom_site_fract_x
  _atom_site_fract_y
  _atom_site_fract_z
  _atom_site_occupancy
  _atom_site_charge
Cu  Cu1       1.0  0.48590  0.65542  0.26947  1.0000 0.8198346864
Cu  Cu2       1.0  0.51410  0.15542  0.23053  1.0000 0.8198346864
Cu  Cu3       1.0  0.51410  0.34458  0.73053  1.0000 0.8198346864
Cu  Cu4       1.0  0.48590  0.84458  0.76947  1.0000 0.8198346864
Cu  Cu5       1.0  0.61954  0.88437  0.64601  1.0000 0.8333200435
Cu  Cu6       1.0  0.38046  0.38437  0.85399  1.0000 0.8333200435
Cu  Cu7       1.0  0.38046  0.11563  0.35399  1.0000 0.8333200435
Cu  Cu8       1.0  0.61954  0.61563  0.14601  1.0000 0.8333200435
Cu  Cu9       1.0  0.55345  0.05925  0.28040  1.0000 0.6885075863
Cu  Cu10      1.0  0.44655  0.55925  0.21960  1.0000 0.6885075863
Cu  Cu11      1.0  0.44655  0.94075  0.71960  1.0000 0.6885075863
Cu  Cu12      1.0  0.55345  0.44075  0.78040  1.0000 0.6885075863
H   H1        1.0  0.36620  0.68840  0.39140  1.0000 0.1079874853
H   H2        1.0  0.63380  0.18840  0.10860  1.0000 0.1079874853
H   H3        1.0  0.63380  0.31160  0.60860  1.0000 0.1079874853
H   H4        1.0  0.36620  0.81160  0.89140  1.0000 0.1079874853
H   H5        1.0  0.27250  0.75220  0.40570  1.0000 0.1392642269
H   H6        1.0  0.72750  0.25220  0.09430  1.0000 0.1392642269
H   H7        1.0  0.72750  0.24780  0.59430  1.0000 0.1392642269
H   H8        1.0  0.27250  0.74780  0.90570  1.0000 0.1392642269
H   H9        1.0  0.28740  0.79540  0.17810  1.0000 0.1392642269
H   H10       1.0  0.71260  0.29540  0.32190  1.0000 0.1392642269
H   H11       1.0  0.71260  0.20460  0.82190  1.0000 0.1392642269
H   H12       1.0  0.28740  0.70460  0.67810  1.0000 0.1392642269
H   H13       1.0  0.38110  0.73150  0.16380  1.0000 0.1195949883
H   H14       1.0  0.61890  0.23150  0.33620  1.0000 0.1195949883
H   H15       1.0  0.61890  0.26850  0.83620  1.0000 0.1195949883
H   H16       1.0  0.38110  0.76850  0.66380  1.0000 0.1195949883
H   H17       1.0  0.96100  0.79860  0.27370  1.0000 0.1308854598
H   H18       1.0  0.03900  0.29860  0.22630  1.0000 0.1308854598
H   H19       1.0  0.03900  0.20140  0.72630  1.0000 0.1308854598
H   H20       1.0  0.96100  0.70140  0.77370  1.0000 0.1308854598
H   H21       1.0  0.03640  0.77290  0.23050  1.0000 0.1308854598
H   H22       1.0  0.96360  0.27290  0.26950  1.0000 0.1308854598
H   H23       1.0  0.96360  0.22710  0.76950  1.0000 0.1308854598
H   H24       1.0  0.03640  0.72710  0.73050  1.0000 0.1308854598
H   H25       1.0  0.05900  0.76970  0.32970  1.0000 0.1308854598
H   H26       1.0  0.94100  0.26970  0.17030  1.0000 0.1308854598
H   H27       1.0  0.94100  0.23030  0.67030  1.0000 0.1308854598
H   H28       1.0  0.05900  0.73030  0.82970  1.0000 0.1308854598
H   H29       1.0  0.13810  0.97610  0.30290  1.0000 0.1195949883
H   H30       1.0  0.86190  0.47610  0.19710  1.0000 0.1195949883
H   H31       1.0  0.86190  0.02390  0.69710  1.0000 0.1195949883
H   H32       1.0  0.13810  0.52390  0.80290  1.0000 0.1195949883
H   H33       1.0  0.02720  0.95860  0.23930  1.0000 0.1308854598
H   H34       1.0  0.97280  0.45860  0.26070  1.0000 0.1308854598
H   H35       1.0  0.97280  0.04140  0.76070  1.0000 0.1308854598
H   H36       1.0  0.02720  0.54140  0.73930  1.0000 0.1308854598
H   H37       1.0  0.04540  0.95820  0.33820  1.0000 0.1308854598
H   H38       1.0  0.95460  0.45820  0.16180  1.0000 0.1308854598
H   H39       1.0  0.95460  0.04180  0.66180  1.0000 0.1308854598
H   H40       1.0  0.04540  0.54180  0.83820  1.0000 0.1308854598
H   H41       1.0  0.42990  0.82540  0.33800  1.0000 0.1308854598
H   H42       1.0  0.57010  0.32540  0.16200  1.0000 0.1308854598
H   H43       1.0  0.57010  0.17460  0.66200  1.0000 0.1308854598
H   H44       1.0  0.42990  0.67460  0.83800  1.0000 0.1308854598
H   H45       1.0  0.44000  0.87240  0.30080  1.0000 0.1195949883
H   H46       1.0  0.56000  0.37240  0.19920  1.0000 0.1195949883
H   H47       1.0  0.56000  0.12760  0.69920  1.0000 0.1195949883
H   H48       1.0  0.44000  0.62760  0.80080  1.0000 0.1195949883
H   H49       1.0  0.44500  0.86730  0.39690  1.0000 0.1392642269
H   H50       1.0  0.55500  0.36730  0.10310  1.0000 0.1392642269
H   H51       1.0  0.55500  0.13270  0.60310  1.0000 0.1392642269
H   H52       1.0  0.44500  0.63270  0.89690  1.0000 0.1392642269
H   H53       1.0  0.49740  0.01150  0.42310  1.0000 0.1016293014
H   H54       1.0  0.50260  0.51150  0.07690  1.0000 0.1016293014
H   H55       1.0  0.50260  0.98850  0.57690  1.0000 0.1016293014
H   H56       1.0  0.49740  0.48850  0.92310  1.0000 0.1016293014
H   H57       1.0  0.39010  0.99910  0.16700  1.0000 0.1079874853
H   H58       1.0  0.60990  0.49910  0.33300  1.0000 0.1079874853
H   H59       1.0  0.60990  0.00090  0.83300  1.0000 0.1079874853
H   H60       1.0  0.39010  0.50090  0.66700  1.0000 0.1079874853
H   H61       1.0  0.27150  0.94300  0.17870  1.0000 0.1392642269
H   H62       1.0  0.72850  0.44300  0.32130  1.0000 0.1392642269
H   H63       1.0  0.72850  0.05700  0.82130  1.0000 0.1392642269
H   H64       1.0  0.27150  0.55700  0.67870  1.0000 0.1392642269
H   H65       1.0  0.37880  0.95530  0.43490  1.0000 0.1392642269
H   H66       1.0  0.62120  0.45530  0.06510  1.0000 0.1392642269
H   H67       1.0  0.62120  0.04470  0.56510  1.0000 0.1392642269
H   H68       1.0  0.37880  0.54470  0.93490  1.0000 0.1392642269
H   H69       1.0  0.55730  0.87900  0.15370  1.0000 0.1308854598
H   H70       1.0  0.44270  0.37900  0.34630  1.0000 0.1308854598
H   H71       1.0  0.44270  0.12100  0.84630  1.0000 0.1308854598
H   H72       1.0  0.55730  0.62100  0.65370  1.0000 0.1308854598
H   H73       1.0  0.56170  0.85680  0.24100  1.0000 0.1392642269
H   H74       1.0  0.43830  0.35680  0.25900  1.0000 0.1392642269
H   H75       1.0  0.43830  0.14320  0.75900  1.0000 0.1392642269
H   H76       1.0  0.56170  0.64320  0.74100  1.0000 0.1392642269
H   H77       1.0  0.56900  0.90850  0.23460  1.0000 0.1308854598
H   H78       1.0  0.43100  0.40850  0.26540  1.0000 0.1308854598
H   H79       1.0  0.43100  0.09150  0.76540  1.0000 0.1308854598
H   H80       1.0  0.56900  0.59150  0.73460  1.0000 0.1308854598
H   H81       1.0  0.86670  0.87150  0.06280  1.0000 0.1308854598
H   H82       1.0  0.13330  0.37150  0.43720  1.0000 0.1308854598
H   H83       1.0  0.13330  0.12850  0.93720  1.0000 0.1308854598
H   H84       1.0  0.86670  0.62850  0.56280  1.0000 0.1308854598
H   H85       1.0  0.96830  0.89850  0.11930  1.0000 0.1308854598
H   H86       1.0  0.03170  0.39850  0.38070  1.0000 0.1308854598
H   H87       1.0  0.03170  0.10150  0.88070  1.0000 0.1308854598
H   H88       1.0  0.96830  0.60150  0.61930  1.0000 0.1308854598
H   H89       1.0  0.96960  0.84660  0.12260  1.0000 0.1308854598
H   H90       1.0  0.03040  0.34660  0.37740  1.0000 0.1308854598
H   H91       1.0  0.03040  0.15340  0.87740  1.0000 0.1308854598
H   H92       1.0  0.96960  0.65340  0.62260  1.0000 0.1308854598
H   H93       1.0  0.93240  0.87830  0.47160  1.0000 0.1308854598
H   H94       1.0  0.06760  0.37830  0.02840  1.0000 0.1308854598
H   H95       1.0  0.06760  0.12170  0.52840  1.0000 0.1308854598
H   H96       1.0  0.93240  0.62170  0.97160  1.0000 0.1308854598
H   H97       1.0  0.01400  0.84850  0.44160  1.0000 0.1392642269
H   H98       1.0  0.98600  0.34850  0.05840  1.0000 0.1392642269
H   H99       1.0  0.98600  0.15150  0.55840  1.0000 0.1392642269
H   H100      1.0  0.01400  0.65150  0.94160  1.0000 0.1392642269
H   H101      1.0  0.02570  0.90020  0.44180  1.0000 0.1392642269
H   H102      1.0  0.97430  0.40020  0.05820  1.0000 0.1392642269
H   H103      1.0  0.97430  0.09980  0.55820  1.0000 0.1392642269
H   H104      1.0  0.02570  0.59980  0.94180  1.0000 0.1392642269
H   H105      1.0  0.67770  0.95000  0.52970  1.0000 0.1079874853
H   H106      1.0  0.32230  0.45000  0.97030  1.0000 0.1079874853
H   H107      1.0  0.32230  0.05000  0.47030  1.0000 0.1079874853
H   H108      1.0  0.67770  0.55000  0.02970  1.0000 0.1079874853
H   H109      1.0  0.74110  0.94850  0.41180  1.0000 0.1392642269
H   H110      1.0  0.25890  0.44850  0.08820  1.0000 0.1392642269
H   H111      1.0  0.25890  0.05150  0.58820  1.0000 0.1392642269
H   H112      1.0  0.74110  0.55150  0.91180  1.0000 0.1392642269
H   H113      1.0  0.71700  0.81580  0.40470  1.0000 0.1392642269
H   H114      1.0  0.28300  0.31580  0.09530  1.0000 0.1392642269
H   H115      1.0  0.28300  0.18420  0.59530  1.0000 0.1392642269
H   H116      1.0  0.71700  0.68420  0.90470  1.0000 0.1392642269
H   H117      1.0  0.65360  0.81730  0.52260  1.0000 0.1195949883
H   H118      1.0  0.34640  0.31730  0.97740  1.0000 0.1195949883
H   H119      1.0  0.34640  0.18270  0.47740  1.0000 0.1195949883
H   H120      1.0  0.65360  0.68270  0.02260  1.0000 0.1195949883
H   H121      1.0  0.51780  0.91880  0.91730  1.0000 0.1016293014
H   H122      1.0  0.48220  0.41880  0.58270  1.0000 0.1016293014
H   H123      1.0  0.48220  0.08120  0.08270  1.0000 0.1016293014
H   H124      1.0  0.51780  0.58120  0.41730  1.0000 0.1016293014
H   H125      1.0  0.62430  0.93070  0.05820  1.0000 0.1308854598
H   H126      1.0  0.37570  0.43070  0.44180  1.0000 0.1308854598
H   H127      1.0  0.37570  0.06930  0.94180  1.0000 0.1308854598
H   H128      1.0  0.62430  0.56930  0.55820  1.0000 0.1308854598
H   H129      1.0  0.72920  0.80460  0.07480  1.0000 0.1392642269
H   H130      1.0  0.27080  0.30460  0.42520  1.0000 0.1392642269
H   H131      1.0  0.27080  0.19540  0.92520  1.0000 0.1392642269
H   H132      1.0  0.72920  0.69540  0.57480  1.0000 0.1392642269
H   H133      1.0  0.62270  0.79260  0.93390  1.0000 0.1079874853
H   H134      1.0  0.37730  0.29260  0.56610  1.0000 0.1079874853
H   H135      1.0  0.37730  0.20740  0.06610  1.0000 0.1079874853
H   H136      1.0  0.62270  0.70740  0.43390  1.0000 0.1079874853
H   H137      1.0  0.70270  0.76650  0.29070  1.0000 0.1392642269
H   H138      1.0  0.29730  0.26650  0.20930  1.0000 0.1392642269
H   H139      1.0  0.29730  0.23350  0.70930  1.0000 0.1392642269
H   H140      1.0  0.70270  0.73350  0.79070  1.0000 0.1392642269
H   H141      1.0  0.80930  0.74300  0.28390  1.0000 0.1625713999
H   H142      1.0  0.19070  0.24300  0.21610  1.0000 0.1625713999
H   H143      1.0  0.19070  0.25700  0.71610  1.0000 0.1625713999
H   H144      1.0  0.80930  0.75700  0.78390  1.0000 0.1625713999
H   H145      1.0  0.72490  0.76370  0.20210  1.0000 0.1516383646
H   H146      1.0  0.27510  0.26370  0.29790  1.0000 0.1516383646
H   H147      1.0  0.27510  0.23630  0.79790  1.0000 0.1516383646
H   H148      1.0  0.72490  0.73630  0.70210  1.0000 0.1516383646
H   H149      1.0  0.24440  0.64210  0.26280  1.0000 0.1195949883
H   H150      1.0  0.75560  0.14210  0.23720  1.0000 0.1195949883
H   H151      1.0  0.75560  0.35790  0.73720  1.0000 0.1195949883
H   H152      1.0  0.24440  0.85790  0.76280  1.0000 0.1195949883
H   H153      1.0  0.20950  0.60350  0.19620  1.0000 0.1308854598
H   H154      1.0  0.79050  0.10350  0.30380  1.0000 0.1308854598
H   H155      1.0  0.79050  0.39650  0.80380  1.0000 0.1308854598
H   H156      1.0  0.20950  0.89650  0.69620  1.0000 0.1308854598
H   H157      1.0  0.25500  0.59290  0.29430  1.0000 0.1195949883
H   H158      1.0  0.74500  0.09290  0.20570  1.0000 0.1195949883
H   H159      1.0  0.74500  0.40710  0.70570  1.0000 0.1195949883
H   H160      1.0  0.25500  0.90710  0.79430  1.0000 0.1195949883
H   H161      1.0  0.29520  0.82370  0.53080  1.0000 0.1516383646
H   H162      1.0  0.70480  0.32370  0.96920  1.0000 0.1516383646
H   H163      1.0  0.70480  0.17630  0.46920  1.0000 0.1516383646
H   H164      1.0  0.29520  0.67630  0.03080  1.0000 0.1516383646
H   H165      1.0  0.24720  0.86420  0.47100  1.0000 0.1516383646
H   H166      1.0  0.75280  0.36420  0.02900  1.0000 0.1516383646
H   H167      1.0  0.75280  0.13580  0.52900  1.0000 0.1516383646
H   H168      1.0  0.24720  0.63580  0.97100  1.0000 0.1516383646
H   H169      1.0  0.23520  0.86210  0.56310  1.0000 0.1625713999
H   H170      1.0  0.76480  0.36210  0.93690  1.0000 0.1625713999
H   H171      1.0  0.76480  0.13790  0.43690  1.0000 0.1625713999
H   H172      1.0  0.23520  0.63790  0.06310  1.0000 0.1625713999
C   C1        1.0  0.35040  0.70980  0.34860  1.0000 0.0629979274
C   C2        1.0  0.64960  0.20980  0.15140  1.0000 0.0629979274
C   C3        1.0  0.64960  0.29020  0.65140  1.0000 0.0629979274
C   C4        1.0  0.35040  0.79020  0.84860  1.0000 0.0629979274
C   C5        1.0  0.29430  0.74810  0.35720  1.0000 -0.1982862531
C   C6        1.0  0.70570  0.24810  0.14280  1.0000 -0.1982862531
C   C7        1.0  0.70570  0.25190  0.64280  1.0000 -0.1982862531
C   C8        1.0  0.29430  0.75190  0.85720  1.0000 -0.1982862531
C   C9        1.0  0.27070  0.78010  0.29340  1.0000 0.1392642269
C   C10       1.0  0.72930  0.28010  0.20660  1.0000 0.1392642269
C   C11       1.0  0.72930  0.21990  0.70660  1.0000 0.1392642269
C   C12       1.0  0.27070  0.71990  0.79340  1.0000 0.1392642269
C   C13       1.0  0.30320  0.77390  0.22090  1.0000 -0.1897962396
C   C14       1.0  0.69680  0.27390  0.27910  1.0000 -0.1897962396
C   C15       1.0  0.69680  0.22610  0.77910  1.0000 -0.1897962396
C   C16       1.0  0.30320  0.72610  0.72090  1.0000 -0.1897962396
C   C17       1.0  0.35930  0.73560  0.21230  1.0000 0.079091908
C   C18       1.0  0.64070  0.23560  0.28770  1.0000 0.079091908
C   C19       1.0  0.64070  0.26440  0.78770  1.0000 0.079091908
C   C20       1.0  0.35930  0.76440  0.71230  1.0000 0.079091908
C   C21       1.0  0.03480  0.78880  0.28070  1.0000 -0.4491892499
C   C22       1.0  0.96520  0.28880  0.21930  1.0000 -0.4491892499
C   C23       1.0  0.96520  0.21120  0.71930  1.0000 -0.4491892499
C   C24       1.0  0.03480  0.71120  0.78070  1.0000 -0.4491892499
C   C25       1.0  0.22230  0.82407  0.30510  1.0000 -0.0677840994
C   C26       1.0  0.77770  0.32407  0.19490  1.0000 -0.0677840994
C   C27       1.0  0.77770  0.17593  0.69490  1.0000 -0.0677840994
C   C28       1.0  0.22230  0.67593  0.80510  1.0000 -0.0677840994
C   C29       1.0  0.11020  0.82840  0.29350  1.0000 0.0715347248
C   C30       1.0  0.88980  0.32840  0.20650  1.0000 0.0715347248
C   C31       1.0  0.88980  0.17160  0.70650  1.0000 0.0715347248
C   C32       1.0  0.11020  0.67160  0.79350  1.0000 0.0715347248
C   C33       1.0  0.06390  0.87020  0.29130  1.0000 -0.0391191174
C   C34       1.0  0.93610  0.37020  0.20870  1.0000 -0.0391191174
C   C35       1.0  0.93610  0.12980  0.70870  1.0000 -0.0391191174
C   C36       1.0  0.06390  0.62980  0.79130  1.0000 -0.0391191174
C   C37       1.0  0.12970  0.90772  0.30070  1.0000 0.0715347248
C   C38       1.0  0.87030  0.40772  0.19930  1.0000 0.0715347248
C   C39       1.0  0.87030  0.09228  0.69930  1.0000 0.0715347248
C   C40       1.0  0.12970  0.59228  0.80070  1.0000 0.0715347248
C   C41       1.0  0.24180  0.90340  0.31230  1.0000 -0.0677840994
C   C42       1.0  0.75820  0.40340  0.18770  1.0000 -0.0677840994
C   C43       1.0  0.75820  0.09660  0.68770  1.0000 -0.0677840994
C   C44       1.0  0.24180  0.59660  0.81230  1.0000 -0.0677840994
C   C45       1.0  0.28810  0.86160  0.31450  1.0000 0.079091908
C   C46       1.0  0.71190  0.36160  0.18550  1.0000 0.079091908
C   C47       1.0  0.71190  0.13840  0.68550  1.0000 0.079091908
C   C48       1.0  0.28810  0.63840  0.81450  1.0000 0.079091908
C   C49       1.0  0.08050  0.95450  0.29470  1.0000 -0.4315031027
C   C50       1.0  0.91950  0.45450  0.20530  1.0000 -0.4315031027
C   C51       1.0  0.91950  0.04550  0.70530  1.0000 -0.4315031027
C   C52       1.0  0.08050  0.54550  0.79470  1.0000 -0.4315031027
C   C53       1.0  0.41210  0.85620  0.33990  1.0000 -0.4617800643
C   C54       1.0  0.58790  0.35620  0.16010  1.0000 -0.4617800643
C   C55       1.0  0.58790  0.14380  0.66010  1.0000 -0.4617800643
C   C56       1.0  0.41210  0.64380  0.83990  1.0000 -0.4617800643
C   C57       1.0  0.45220  0.99770  0.37420  1.0000 0.0505597363
C   C58       1.0  0.54780  0.49770  0.12580  1.0000 0.0505597363
C   C59       1.0  0.54780  0.00230  0.62580  1.0000 0.0505597363
C   C60       1.0  0.45220  0.50230  0.87420  1.0000 0.0505597363
C   C61       1.0  0.38780  0.99040  0.22070  1.0000 0.0629979274
C   C62       1.0  0.61220  0.49040  0.27930  1.0000 0.0629979274
C   C63       1.0  0.61220  0.00960  0.77930  1.0000 0.0629979274
C   C64       1.0  0.38780  0.50960  0.72070  1.0000 0.0629979274
C   C65       1.0  0.31680  0.95680  0.22770  1.0000 -0.1830050689
C   C66       1.0  0.68320  0.45680  0.27230  1.0000 -0.1830050689
C   C67       1.0  0.68320  0.04320  0.77230  1.0000 -0.1830050689
C   C68       1.0  0.31680  0.54320  0.72770  1.0000 -0.1830050689
C   C69       1.0  0.31340  0.94360  0.30790  1.0000 0.1392642269
C   C70       1.0  0.68660  0.44360  0.19210  1.0000 0.1392642269
C   C71       1.0  0.68660  0.05640  0.69210  1.0000 0.1392642269
C   C72       1.0  0.31340  0.55640  0.80790  1.0000 0.1392642269
C   C73       1.0  0.38110  0.96410  0.38120  1.0000 -0.1897962396
C   C74       1.0  0.61890  0.46410  0.11880  1.0000 -0.1897962396
C   C75       1.0  0.61890  0.03590  0.61880  1.0000 -0.1897962396
C   C76       1.0  0.38110  0.53590  0.88120  1.0000 -0.1897962396
C   C77       1.0  0.78320  0.87900  0.32310  1.0000 -0.077163652
C   C78       1.0  0.21680  0.37900  0.17690  1.0000 -0.077163652
C   C79       1.0  0.21680  0.12100  0.67690  1.0000 -0.077163652
C   C80       1.0  0.78320  0.62100  0.82310  1.0000 -0.077163652
C   C81       1.0  0.71450  0.87760  0.23890  1.0000 0.0898998114
C   C82       1.0  0.28550  0.37760  0.26110  1.0000 0.0898998114
C   C83       1.0  0.28550  0.12240  0.76110  1.0000 0.0898998114
C   C84       1.0  0.71450  0.62240  0.73890  1.0000 0.0898998114
C   C85       1.0  0.75950  0.87500  0.17210  1.0000 -0.0677840994
C   C86       1.0  0.24050  0.37500  0.32790  1.0000 -0.0677840994
C   C87       1.0  0.24050  0.12500  0.82790  1.0000 -0.0677840994
C   C88       1.0  0.75950  0.62500  0.67210  1.0000 -0.0677840994
C   C89       1.0  0.87320  0.87370  0.18950  1.0000 0.0715347248
C   C90       1.0  0.12680  0.37370  0.31050  1.0000 0.0715347248
C   C91       1.0  0.12680  0.12630  0.81050  1.0000 0.0715347248
C   C92       1.0  0.87320  0.62630  0.68950  1.0000 0.0715347248
C   C93       1.0  0.94190  0.87510  0.27380  1.0000 -0.0391191174
C   C94       1.0  0.05810  0.37510  0.22620  1.0000 -0.0391191174
C   C95       1.0  0.05810  0.12490  0.72620  1.0000 -0.0391191174
C   C96       1.0  0.94190  0.62490  0.77380  1.0000 -0.0391191174
C   C97       1.0  0.89680  0.87770  0.34060  1.0000 0.0715347248
C   C98       1.0  0.10320  0.37770  0.15940  1.0000 0.0715347248
C   C99       1.0  0.10320  0.12230  0.65940  1.0000 0.0715347248
C   C100      1.0  0.89680  0.62230  0.84060  1.0000 0.0715347248
C   C101      1.0  0.58890  0.88080  0.21480  1.0000 -0.4617800643
C   C102      1.0  0.41110  0.38080  0.28520  1.0000 -0.4617800643
C   C103      1.0  0.41110  0.11920  0.78520  1.0000 -0.4617800643
C   C104      1.0  0.58890  0.61920  0.71480  1.0000 -0.4617800643
C   C105      1.0  0.92420  0.87250  0.11680  1.0000 -0.4315031027
C   C106      1.0  0.07580  0.37250  0.38320  1.0000 -0.4315031027
C   C107      1.0  0.07580  0.12750  0.88320  1.0000 -0.4315031027
C   C108      1.0  0.92420  0.62750  0.61680  1.0000 -0.4315031027
C   C109      1.0  0.97440  0.87600  0.43240  1.0000 -0.4491892499
C   C110      1.0  0.02560  0.37600  0.06760  1.0000 -0.4491892499
C   C111      1.0  0.02560  0.12400  0.56760  1.0000 -0.4491892499
C   C112      1.0  0.97440  0.62400  0.93240  1.0000 -0.4491892499
C   C113      1.0  0.68560  0.92310  0.50460  1.0000 0.0505597363
C   C114      1.0  0.31440  0.42310  0.99540  1.0000 0.0505597363
C   C115      1.0  0.31440  0.07690  0.49540  1.0000 0.0505597363
C   C116      1.0  0.68560  0.57690  0.00460  1.0000 0.0505597363
C   C117      1.0  0.72360  0.92220  0.43400  1.0000 -0.1897962396
C   C118      1.0  0.27640  0.42220  0.06600  1.0000 -0.1897962396
C   C119      1.0  0.27640  0.07780  0.56600  1.0000 -0.1897962396
C   C120      1.0  0.72360  0.57780  0.93400  1.0000 -0.1897962396
C   C121      1.0  0.73530  0.88200  0.39660  1.0000 0.1392642269
C   C122      1.0  0.26470  0.38200  0.10340  1.0000 0.1392642269
C   C123      1.0  0.26470  0.11800  0.60340  1.0000 0.1392642269
C   C124      1.0  0.73530  0.61800  0.89660  1.0000 0.1392642269
C   C125      1.0  0.70910  0.84270  0.42980  1.0000 -0.1897962396
C   C126      1.0  0.29090  0.34270  0.07020  1.0000 -0.1897962396
C   C127      1.0  0.29090  0.15730  0.57020  1.0000 -0.1897962396
C   C128      1.0  0.70910  0.65730  0.92980  1.0000 -0.1897962396
C   C129      1.0  0.67110  0.84360  0.50040  1.0000 0.0898998114
C   C130      1.0  0.32890  0.34360  0.99960  1.0000 0.0898998114
C   C131      1.0  0.32890  0.15640  0.49960  1.0000 0.0898998114
C   C132      1.0  0.67110  0.65640  0.00040  1.0000 0.0898998114
C   C133      1.0  0.56020  0.89590  0.94890  1.0000 0.0715347248
C   C134      1.0  0.43980  0.39590  0.55110  1.0000 0.0715347248
C   C135      1.0  0.43980  0.10410  0.05110  1.0000 0.0715347248
C   C136      1.0  0.56020  0.60410  0.44890  1.0000 0.0715347248
C   C137      1.0  0.62400  0.90300  0.03330  1.0000 -0.1982862531
C   C138      1.0  0.37600  0.40300  0.46670  1.0000 -0.1982862531
C   C139      1.0  0.37600  0.09700  0.96670  1.0000 -0.1982862531
C   C140      1.0  0.62400  0.59700  0.53330  1.0000 -0.1982862531
C   C141      1.0  0.68730  0.86880  0.08050  1.0000 0.1392642269
C   C142      1.0  0.31270  0.36880  0.41950  1.0000 0.1392642269
C   C143      1.0  0.31270  0.13120  0.91950  1.0000 0.1392642269
C   C144      1.0  0.68730  0.63120  0.58050  1.0000 0.1392642269
C   C145      1.0  0.68680  0.82750  0.04320  1.0000 -0.1982862531
C   C146      1.0  0.31320  0.32750  0.45680  1.0000 -0.1982862531
C   C147      1.0  0.31320  0.17250  0.95680  1.0000 -0.1982862531
C   C148      1.0  0.68680  0.67250  0.54320  1.0000 -0.1982862531
C   C149      1.0  0.62300  0.82030  0.95880  1.0000 0.079091908
C   C150      1.0  0.37700  0.32030  0.54120  1.0000 0.079091908
C   C151      1.0  0.37700  0.17970  0.04120  1.0000 0.079091908
C   C152      1.0  0.62300  0.67970  0.45880  1.0000 0.079091908
C   C153      1.0  0.73270  0.74850  0.25500  1.0000 -0.6040331205
C   C154      1.0  0.26730  0.24850  0.24500  1.0000 -0.6040331205
C   C155      1.0  0.26730  0.25150  0.74500  1.0000 -0.6040331205
C   C156      1.0  0.73270  0.75150  0.75500  1.0000 -0.6040331205
C   C157      1.0  0.67300  0.70610  0.23710  1.0000 0.6885075863
C   C158      1.0  0.32700  0.20610  0.26290  1.0000 0.6885075863
C   C159      1.0  0.32700  0.29390  0.76290  1.0000 0.6885075863
C   C160      1.0  0.67300  0.79390  0.73710  1.0000 0.6885075863
C   C161      1.0  0.26080  0.61240  0.24990  1.0000 -0.2256680806
C   C162      1.0  0.73920  0.11240  0.25010  1.0000 -0.2256680806
C   C163      1.0  0.73920  0.38760  0.75010  1.0000 -0.2256680806
C   C164      1.0  0.26080  0.88760  0.74990  1.0000 -0.2256680806
C   C165      1.0  0.28220  0.85510  0.52920  1.0000 -0.5897281994
C   C166      1.0  0.71780  0.35510  0.97080  1.0000 -0.5897281994
C   C167      1.0  0.71780  0.14490  0.47080  1.0000 -0.5897281994
C   C168      1.0  0.28220  0.64490  0.02920  1.0000 -0.5897281994
C   C169      1.0  0.38900  0.87880  0.56410  1.0000 0.6695177327
C   C170      1.0  0.61100  0.37880  0.93590  1.0000 0.6695177327
C   C171      1.0  0.61100  0.12120  0.43590  1.0000 0.6695177327
C   C172      1.0  0.38900  0.62120  0.06410  1.0000 0.6695177327
N   N1        1.0  0.38300  0.70360  0.27620  1.0000 -0.2941968669
N   N2        1.0  0.61700  0.20360  0.22380  1.0000 -0.2941968669
N   N3        1.0  0.61700  0.29640  0.72380  1.0000 -0.2941968669
N   N4        1.0  0.38300  0.79640  0.77620  1.0000 -0.2941968669
N   N5        1.0  0.45550  0.01090  0.29390  1.0000 -0.2941968669
N   N6        1.0  0.54450  0.51090  0.20610  1.0000 -0.2941968669
N   N7        1.0  0.54450  0.98910  0.70610  1.0000 -0.2941968669
N   N8        1.0  0.45550  0.48910  0.79390  1.0000 -0.2941968669
N   N9        1.0  0.65940  0.88380  0.53780  1.0000 -0.2941968669
N   N10       1.0  0.34060  0.38380  0.96220  1.0000 -0.2941968669
N   N11       1.0  0.34060  0.11620  0.46220  1.0000 -0.2941968669
N   N12       1.0  0.65940  0.61620  0.03780  1.0000 -0.2941968669
N   N13       1.0  0.55970  0.85450  0.91170  1.0000 -0.2966424604
N   N14       1.0  0.44030  0.35450  0.58830  1.0000 -0.2966424604
N   N15       1.0  0.44030  0.14550  0.08830  1.0000 -0.2966424604
N   N16       1.0  0.55970  0.64550  0.41170  1.0000 -0.2966424604
O   O1        1.0  0.59650  0.70160  0.26970  1.0000 -0.5760798682
O   O2        1.0  0.40350  0.20160  0.23030  1.0000 -0.5760798682
O   O3        1.0  0.40350  0.29840  0.73030  1.0000 -0.5760798682
O   O4        1.0  0.59650  0.79840  0.76970  1.0000 -0.5760798682
O   O5        1.0  0.69900  0.67880  0.19220  1.0000 -0.5659982343
O   O6        1.0  0.30100  0.17880  0.30780  1.0000 -0.5659982343
O   O7        1.0  0.30100  0.32120  0.80780  1.0000 -0.5659982343
O   O8        1.0  0.69900  0.82120  0.69220  1.0000 -0.5659982343
O   O9        1.0  0.37310  0.61070  0.24420  1.0000 -0.4706914057
O   O10       1.0  0.62690  0.11070  0.25580  1.0000 -0.4706914057
O   O11       1.0  0.62690  0.38930  0.75580  1.0000 -0.4706914057
O   O12       1.0  0.37310  0.88930  0.74420  1.0000 -0.4706914057
O   O13       1.0  0.56520  0.60430  0.24340  1.0000 -0.8848749329
O   O14       1.0  0.43480  0.10430  0.25660  1.0000 -0.8848749329
O   O15       1.0  0.43480  0.39570  0.75660  1.0000 -0.8848749329
O   O16       1.0  0.56520  0.89570  0.74340  1.0000 -0.8848749329
O   O17       1.0  0.47890  0.85500  0.58770  1.0000 -0.5897281994
O   O18       1.0  0.52110  0.35500  0.91230  1.0000 -0.5897281994
O   O19       1.0  0.52110  0.14500  0.41230  1.0000 -0.5897281994
O   O20       1.0  0.47890  0.64500  0.08770  1.0000 -0.5897281994
O   O21       1.0  0.39020  0.92030  0.56780  1.0000 -0.6282294621
O   O22       1.0  0.60980  0.42030  0.93220  1.0000 -0.6282294621
O   O23       1.0  0.60980  0.07970  0.43220  1.0000 -0.6282294621
O   O24       1.0  0.39020  0.57970  0.06780  1.0000 -0.6282294621
