# DDEC6 charges by PACMAN v1.1 (https://github.com/mtap-research/PACMAN-charge/)
data_2006[Co][dia]3[ASR]2
_chemical_formula_sum              "Co8 H108 C176 N40 O24"
_cell_length_a       19.0033
_cell_length_b       19.0033
_cell_length_c       15.2861
_cell_angle_alpha    86.2685
_cell_angle_beta     93.7315
_cell_angle_gamma    54.8646

_symmetry_space_group_name_H-M    "P 1"
_symmetry_Int_Tables_number       1

loop_
  _symmetry_equiv_pos_as_xyz
  'x, y, z'

loop_
  _atom_site_type_symbol
  _atom_site_label
  _atom_site_symmetry_multiplicity
  _atom_site_fract_x
  _atom_site_fract_y
  _atom_site_fract_z
  _atom_site_occupancy
  _atom_site_charge
Co  Co1       1.0  0.11440  0.68402  0.93244  1.0000 0.7425077645
Co  Co2       1.0  0.31598  0.88560  0.43244  1.0000 0.7425077645
Co  Co3       1.0  0.38467  0.34283  0.49918  1.0000 0.7425077645
Co  Co4       1.0  0.65717  0.61533  0.99918  1.0000 0.7425077645
Co  Co5       1.0  0.98170  0.31006  0.21829  1.0000 0.8279221741
Co  Co6       1.0  0.68994  0.01830  0.71829  1.0000 0.8279221741
Co  Co7       1.0  0.04258  0.19274  0.61093  1.0000 0.7297222701
Co  Co8       1.0  0.80726  0.95742  0.11093  1.0000 0.7297222701
H   H1        1.0  0.26500  0.45900  0.85900  1.0000 0.139856926
H   H2        1.0  0.54100  0.73500  0.35900  1.0000 0.139856926
H   H3        1.0  0.39250  0.33010  0.83430  1.0000 0.1098701162
H   H4        1.0  0.66990  0.60750  0.33430  1.0000 0.1098701162
H   H5        1.0  0.50080  0.33780  0.80280  1.0000 0.120419513
H   H6        1.0  0.66220  0.49920  0.30280  1.0000 0.120419513
H   H7        1.0  0.50060  0.45700  0.81170  1.0000 0.1291284178
H   H8        1.0  0.54300  0.49940  0.31170  1.0000 0.1291284178
H   H9        1.0  0.96630  0.92970  0.91800  1.0000 0.139856926
H   H10       1.0  0.07030  0.03370  0.41800  1.0000 0.139856926
H   H11       1.0  0.93470  0.06910  0.91340  1.0000 0.1098701162
H   H12       1.0  0.93090  0.06530  0.41340  1.0000 0.1098701162
H   H13       1.0  0.04240  0.08980  0.92120  1.0000 0.1098701162
H   H14       1.0  0.91020  0.95760  0.42120  1.0000 0.1098701162
H   H15       1.0  0.18570  0.97570  0.90840  1.0000 0.120419513
H   H16       1.0  0.02430  0.81430  0.40840  1.0000 0.120419513
H   H17       1.0  0.08540  0.47360  0.05920  1.0000 0.1291284178
H   H18       1.0  0.52640  0.91460  0.55920  1.0000 0.1291284178
H   H19       1.0  0.19940  0.33320  0.29930  1.0000 0.120419513
H   H20       1.0  0.66680  0.80060  0.79930  1.0000 0.120419513
H   H21       1.0  0.25510  0.49610  0.20180  1.0000 0.1291284178
H   H22       1.0  0.50390  0.74490  0.70180  1.0000 0.1291284178
H   H23       1.0  0.18480  0.34740  0.50970  1.0000 0.139856926
H   H24       1.0  0.65260  0.81520  0.00970  1.0000 0.139856926
H   H25       1.0  0.04640  0.39640  0.54010  1.0000 0.1098701162
H   H26       1.0  0.60360  0.95360  0.04010  1.0000 0.1098701162
H   H27       1.0  0.96480  0.51880  0.60960  1.0000 0.1026266751
H   H28       1.0  0.48120  0.03520  0.10960  1.0000 0.1026266751
H   H29       1.0  0.01850  0.59670  0.65080  1.0000 0.139856926
H   H30       1.0  0.40330  0.98150  0.15080  1.0000 0.139856926
H   H31       1.0  0.57340  0.36260  0.51070  1.0000 0.1291284178
H   H32       1.0  0.63740  0.42660  0.01070  1.0000 0.1291284178
H   H33       1.0  0.64380  0.42780  0.53070  1.0000 0.1098701162
H   H34       1.0  0.57220  0.35620  0.03070  1.0000 0.1098701162
H   H35       1.0  0.57770  0.55870  0.58770  1.0000 0.120419513
H   H36       1.0  0.44130  0.42230  0.08770  1.0000 0.120419513
H   H37       1.0  0.43830  0.62990  0.62230  1.0000 0.1479985354
H   H38       1.0  0.37010  0.56170  0.12230  1.0000 0.1479985354
H   H39       1.0  0.48770  0.33710  0.29280  1.0000 0.139856926
H   H40       1.0  0.66290  0.51230  0.79280  1.0000 0.139856926
H   H41       1.0  0.59420  0.27840  0.19900  1.0000 0.1098701162
H   H42       1.0  0.72160  0.40580  0.69900  1.0000 0.1098701162
H   H43       1.0  0.73160  0.15440  0.24480  1.0000 0.120419513
H   H44       1.0  0.84560  0.26840  0.74480  1.0000 0.120419513
H   H45       1.0  0.76650  0.07970  0.38650  1.0000 0.1291284178
H   H46       1.0  0.92030  0.23350  0.88650  1.0000 0.1291284178
H   H47       1.0  0.29160  0.30300  0.69170  1.0000 0.1291284178
H   H48       1.0  0.69700  0.70840  0.19170  1.0000 0.1291284178
H   H49       1.0  0.29490  0.23810  0.82580  1.0000 0.1098701162
H   H50       1.0  0.76190  0.70510  0.32580  1.0000 0.1098701162
H   H51       1.0  0.42360  0.12060  0.90170  1.0000 0.1098701162
H   H52       1.0  0.87940  0.57640  0.40170  1.0000 0.1098701162
H   H53       1.0  0.55280  0.06260  0.84380  1.0000 0.1291284178
H   H54       1.0  0.93740  0.44720  0.34380  1.0000 0.1291284178
H   H55       1.0  0.81100  0.32880  0.23340  1.0000 0.1291284178
H   H56       1.0  0.67120  0.18900  0.73340  1.0000 0.1291284178
H   H57       1.0  0.69830  0.33270  0.28560  1.0000 0.1098701162
H   H58       1.0  0.66730  0.30170  0.78560  1.0000 0.1098701162
H   H59       1.0  0.70880  0.28460  0.43300  1.0000 0.1026266751
H   H60       1.0  0.71540  0.29120  0.93300  1.0000 0.1026266751
H   H61       1.0  0.82570  0.24410  0.53600  1.0000 0.139856926
H   H62       1.0  0.75590  0.17430  0.03600  1.0000 0.139856926
H   H63       1.0  0.32330  0.16330  0.37290  1.0000 0.1291284178
H   H64       1.0  0.83670  0.67670  0.87290  1.0000 0.1291284178
H   H65       1.0  0.43280  0.10120  0.48900  1.0000 0.120419513
H   H66       1.0  0.89880  0.56720  0.98900  1.0000 0.120419513
H   H67       1.0  0.40900  0.08220  0.63030  1.0000 0.120419513
H   H68       1.0  0.91780  0.59100  0.13030  1.0000 0.120419513
H   H69       1.0  0.27350  0.12530  0.66230  1.0000 0.1291284178
H   H70       1.0  0.87470  0.72650  0.16230  1.0000 0.1291284178
H   H71       1.0  0.24550  0.98410  0.71530  1.0000 0.1479985354
H   H72       1.0  0.01590  0.75450  0.21530  1.0000 0.1479985354
H   H73       1.0  0.37390  0.89430  0.81430  1.0000 0.120419513
H   H74       1.0  0.10570  0.62610  0.31430  1.0000 0.120419513
H   H75       1.0  0.39960  0.94420  0.93530  1.0000 0.1098701162
H   H76       1.0  0.05580  0.60040  0.43530  1.0000 0.1098701162
H   H77       1.0  0.29900  0.08560  0.97020  1.0000 0.139856926
H   H78       1.0  0.91440  0.70100  0.47020  1.0000 0.139856926
H   H79       1.0  0.83980  0.42000  0.52500  1.0000 0.139856926
H   H80       1.0  0.58000  0.16020  0.02500  1.0000 0.139856926
H   H81       1.0  0.73250  0.56230  0.52720  1.0000 0.120419513
H   H82       1.0  0.43770  0.26750  0.02720  1.0000 0.120419513
H   H83       1.0  0.72490  0.63230  0.64900  1.0000 0.120419513
H   H84       1.0  0.36770  0.27510  0.14900  1.0000 0.120419513
H   H85       1.0  0.82880  0.56100  0.76850  1.0000 0.1479985354
H   H86       1.0  0.43900  0.17120  0.26850  1.0000 0.1479985354
H   H87       1.0  0.92560  0.11180  0.15670  1.0000 0.1291284178
H   H88       1.0  0.88820  0.07440  0.65670  1.0000 0.1291284178
H   H89       1.0  0.18070  0.00990  0.16960  1.0000 0.120419513
H   H90       1.0  0.99010  0.81930  0.66960  1.0000 0.120419513
H   H91       1.0  0.10010  0.85730  0.14120  1.0000 0.1291284178
H   H92       1.0  0.14270  0.89990  0.64120  1.0000 0.1291284178
H   H93       1.0  0.28680  0.79620  0.89860  1.0000 0.3127368527
H   H94       1.0  0.20380  0.71320  0.39860  1.0000 0.3127368527
H   H95       1.0  0.38730  0.62990  0.86080  1.0000 0.3204212499
H   H96       1.0  0.37010  0.61270  0.36080  1.0000 0.3204212499
H   H97       1.0  0.30000  0.60940  0.62430  1.0000 0.3013535825
H   H98       1.0  0.39060  0.70000  0.12430  1.0000 0.3013535825
H   H99       1.0  0.17050  0.59290  0.64190  1.0000 0.3204212499
H   H100      1.0  0.40710  0.82950  0.14190  1.0000 0.3204212499
H   H101      1.0  0.68720  0.08880  0.53870  1.0000 0.3127368527
H   H102      1.0  0.91120  0.31280  0.03870  1.0000 0.3127368527
H   H103      1.0  0.14530  0.22910  0.33880  1.0000 0.3204212499
H   H104      1.0  0.77090  0.85470  0.83880  1.0000 0.3204212499
H   H105      1.0  0.98160  0.39180  0.83060  1.0000 0.3204212499
H   H106      1.0  0.60820  0.01840  0.33060  1.0000 0.3204212499
H   H107      1.0  0.13780  0.24000  0.89280  1.0000 0.3127368527
H   H108      1.0  0.76000  0.86220  0.39280  1.0000 0.3127368527
C   C1        1.0  0.30780  0.52940  0.86880  1.0000 0.139856926
C   C2        1.0  0.47060  0.69220  0.36880  1.0000 0.139856926
C   C3        1.0  0.31110  0.45410  0.86350  1.0000 -0.1497907402
C   C4        1.0  0.54590  0.68890  0.36350  1.0000 -0.1497907402
C   C5        1.0  0.38740  0.38140  0.83830  1.0000 -0.1197281871
C   C6        1.0  0.61860  0.61260  0.33830  1.0000 -0.1197281871
C   C7        1.0  0.45220  0.38680  0.82020  1.0000 -0.0984296954
C   C8        1.0  0.61320  0.54780  0.32020  1.0000 -0.0984296954
C   C9        1.0  0.45370  0.45670  0.82490  1.0000 -0.1789377654
C   C10       1.0  0.54330  0.54630  0.32490  1.0000 -0.1789377654
C   C11       1.0  0.37810  0.52950  0.85150  1.0000 0.1291284178
C   C12       1.0  0.47050  0.62190  0.35150  1.0000 0.1291284178
C   C13       1.0  0.09610  0.86930  0.91380  1.0000 0.1600490945
C   C14       1.0  0.13070  0.90390  0.41380  1.0000 0.1600490945
C   C15       1.0  0.00980  0.93820  0.91600  1.0000 -0.1575956965
C   C16       1.0  0.06180  0.99020  0.41600  1.0000 -0.1575956965
C   C17       1.0  0.99190  0.02130  0.91500  1.0000 -0.0921738483
C   C18       1.0  0.97870  0.00810  0.41500  1.0000 -0.0921738483
C   C19       1.0  0.05680  0.03460  0.91640  1.0000 -0.0984296954
C   C20       1.0  0.96540  0.94320  0.41640  1.0000 -0.0984296954
C   C21       1.0  0.14240  0.96700  0.91080  1.0000 -0.1789377654
C   C22       1.0  0.03300  0.85760  0.41080  1.0000 -0.1789377654
C   C23       1.0  0.15920  0.88520  0.90910  1.0000 0.1479985354
C   C24       1.0  0.11480  0.84080  0.40910  1.0000 0.1479985354
C   C25       1.0  0.27530  0.65510  0.88820  1.0000 0.2712022749
C   C26       1.0  0.34490  0.72470  0.38820  1.0000 0.2712022749
C   C27       1.0  0.21810  0.74630  0.90210  1.0000 0.2610593376
C   C28       1.0  0.25370  0.78190  0.40210  1.0000 0.2610593376
C   C29       1.0  0.15230  0.56330  0.05140  1.0000 0.5495971528
C   C30       1.0  0.43670  0.84770  0.55140  1.0000 0.5495971528
C   C31       1.0  0.16820  0.49500  0.12060  1.0000 -0.0223504671
C   C32       1.0  0.50500  0.83180  0.62060  1.0000 -0.0223504671
C   C33       1.0  0.12270  0.45830  0.11060  1.0000 -0.1124629143
C   C34       1.0  0.54170  0.87730  0.61060  1.0000 -0.1124629143
C   C35       1.0  0.13360  0.39820  0.17840  1.0000 -0.0258683587
C   C36       1.0  0.60180  0.86640  0.67840  1.0000 -0.0258683587
C   C37       1.0  0.08130  0.36310  0.16940  1.0000 0.5624430862
C   C38       1.0  0.63690  0.91870  0.66940  1.0000 0.5624430862
C   C39       1.0  0.19180  0.37360  0.25470  1.0000 -0.1197281871
C   C40       1.0  0.62640  0.80820  0.75470  1.0000 -0.1197281871
C   C41       1.0  0.23860  0.40940  0.26420  1.0000 -0.0223504671
C   C42       1.0  0.59060  0.76140  0.76420  1.0000 -0.0223504671
C   C43       1.0  0.29970  0.38170  0.34680  1.0000 0.5341323701
C   C44       1.0  0.61830  0.70030  0.84680  1.0000 0.5341323701
C   C45       1.0  0.22520  0.47120  0.19600  1.0000 -0.1197281871
C   C46       1.0  0.52880  0.77480  0.69600  1.0000 -0.1197281871
C   C47       1.0  0.18360  0.44420  0.56070  1.0000 0.139856926
C   C48       1.0  0.55580  0.81640  0.06070  1.0000 0.139856926
C   C49       1.0  0.15180  0.39700  0.53710  1.0000 -0.1575956965
C   C50       1.0  0.60300  0.84820  0.03710  1.0000 -0.1575956965
C   C51       1.0  0.06940  0.42640  0.55580  1.0000 -0.1282680345
C   C52       1.0  0.57360  0.93060  0.05580  1.0000 -0.1282680345
C   C53       1.0  0.02000  0.50060  0.59800  1.0000 -0.1197281871
C   C54       1.0  0.49940  0.98000  0.09800  1.0000 -0.1197281871
C   C55       1.0  0.05160  0.54740  0.62280  1.0000 -0.2002288761
C   C56       1.0  0.45260  0.94840  0.12280  1.0000 -0.2002288761
C   C57       1.0  0.13490  0.51790  0.60420  1.0000 0.1479985354
C   C58       1.0  0.48210  0.86510  0.10420  1.0000 0.1479985354
C   C59       1.0  0.46110  0.45750  0.55470  1.0000 0.139856926
C   C60       1.0  0.54250  0.53890  0.05470  1.0000 0.139856926
C   C61       1.0  0.54600  0.41560  0.53290  1.0000 -0.1789377654
C   C62       1.0  0.58440  0.45400  0.03290  1.0000 -0.1789377654
C   C63       1.0  0.58770  0.45470  0.54530  1.0000 -0.1197281871
C   C64       1.0  0.54530  0.41230  0.04530  1.0000 -0.1197281871
C   C65       1.0  0.54740  0.53440  0.57930  1.0000 -0.1124629143
C   C66       1.0  0.46560  0.45260  0.07930  1.0000 -0.1124629143
C   C67       1.0  0.46510  0.57670  0.60050  1.0000 -0.1682970828
C   C68       1.0  0.42330  0.53490  0.10050  1.0000 -0.1682970828
C   C69       1.0  0.42200  0.53740  0.58820  1.0000 0.1291284178
C   C70       1.0  0.46260  0.57800  0.08820  1.0000 0.1291284178
C   C71       1.0  0.25890  0.49490  0.58270  1.0000 0.2610593376
C   C72       1.0  0.50510  0.74110  0.08270  1.0000 0.2610593376
C   C73       1.0  0.33333  0.49890  0.58100  1.0000 0.2712022749
C   C74       1.0  0.50110  0.66667  0.08100  1.0000 0.2712022749
C   C75       1.0  0.56230  0.23870  0.39680  1.0000 0.139856926
C   C76       1.0  0.76130  0.43770  0.89680  1.0000 0.139856926
C   C77       1.0  0.54190  0.28550  0.31090  1.0000 -0.1575956965
C   C78       1.0  0.71450  0.45810  0.81090  1.0000 -0.1575956965
C   C79       1.0  0.60660  0.25060  0.25600  1.0000 -0.1197281871
C   C80       1.0  0.74940  0.39340  0.75600  1.0000 -0.1197281871
C   C81       1.0  0.68990  0.17490  0.28350  1.0000 -0.0984296954
C   C82       1.0  0.82510  0.31010  0.78350  1.0000 -0.0984296954
C   C83       1.0  0.71120  0.12980  0.36760  1.0000 -0.2002288761
C   C84       1.0  0.87020  0.28880  0.86760  1.0000 -0.2002288761
C   C85       1.0  0.64420  0.16400  0.42280  1.0000 0.1291284178
C   C86       1.0  0.83600  0.35580  0.92280  1.0000 0.1291284178
C   C87       1.0  0.42200  0.22360  0.68610  1.0000 0.1600490945
C   C88       1.0  0.77640  0.57800  0.18610  1.0000 0.1600490945
C   C89       1.0  0.34400  0.25580  0.72170  1.0000 -0.1682970828
C   C90       1.0  0.74420  0.65600  0.22170  1.0000 -0.1682970828
C   C91       1.0  0.34640  0.21660  0.80160  1.0000 -0.1197281871
C   C92       1.0  0.78340  0.65360  0.30160  1.0000 -0.1197281871
C   C93       1.0  0.42410  0.14530  0.84740  1.0000 -0.1197281871
C   C94       1.0  0.85470  0.57590  0.34740  1.0000 -0.1197281871
C   C95       1.0  0.50120  0.11080  0.81390  1.0000 -0.1575956965
C   C96       1.0  0.88920  0.49880  0.31390  1.0000 -0.1575956965
C   C97       1.0  0.49900  0.15200  0.73140  1.0000 0.1479985354
C   C98       1.0  0.84800  0.50100  0.23140  1.0000 0.1479985354
C   C99       1.0  0.56230  0.19110  0.52870  1.0000 0.2477127177
C   C100      1.0  0.80890  0.43770  0.02870  1.0000 0.2477127177
C   C101      1.0  0.52720  0.18580  0.60580  1.0000 0.2392167834
C   C102      1.0  0.81420  0.47280  0.10580  1.0000 0.2392167834
C   C103      1.0  0.88640  0.28780  0.35380  1.0000 0.1479985354
C   C104      1.0  0.71220  0.11360  0.85380  1.0000 0.1479985354
C   C105      1.0  0.81350  0.31310  0.29300  1.0000 -0.1682970828
C   C106      1.0  0.68690  0.18650  0.79300  1.0000 -0.1682970828
C   C107      1.0  0.74770  0.31390  0.32390  1.0000 -0.1197281871
C   C108      1.0  0.68610  0.25230  0.82390  1.0000 -0.1197281871
C   C109      1.0  0.75370  0.28610  0.41450  1.0000 -0.1197281871
C   C110      1.0  0.71390  0.24630  0.91450  1.0000 -0.1197281871
C   C111      1.0  0.82340  0.26080  0.47670  1.0000 -0.1789377654
C   C112      1.0  0.73920  0.17660  0.97670  1.0000 -0.1789377654
C   C113      1.0  0.89140  0.26240  0.44350  1.0000 0.1600490945
C   C114      1.0  0.73760  0.10860  0.94350  1.0000 0.1600490945
C   C115      1.0  0.23290  0.17750  0.44800  1.0000 0.139856926
C   C116      1.0  0.82250  0.76710  0.94800  1.0000 0.139856926
C   C117      1.0  0.31340  0.15460  0.43010  1.0000 -0.1575956965
C   C118      1.0  0.84540  0.68660  0.93010  1.0000 -0.1575956965
C   C119      1.0  0.37760  0.11860  0.49960  1.0000 -0.0742361011
C   C120      1.0  0.88140  0.62240  0.99960  1.0000 -0.0742361011
C   C121      1.0  0.36330  0.10730  0.58490  1.0000 -0.0921738483
C   C122      1.0  0.89270  0.63670  0.08490  1.0000 -0.0921738483
C   C123      1.0  0.28310  0.13230  0.60450  1.0000 -0.1575956965
C   C124      1.0  0.86770  0.71690  0.10450  1.0000 -0.1575956965
C   C125      1.0  0.21650  0.16870  0.53420  1.0000 0.139856926
C   C126      1.0  0.83130  0.78350  0.03420  1.0000 0.139856926
C   C127      1.0  0.00880  0.24960  0.42130  1.0000 0.2477127177
C   C128      1.0  0.75040  0.99120  0.92130  1.0000 0.2477127177
C   C129      1.0  0.09790  0.22210  0.44840  1.0000 0.3013535825
C   C130      1.0  0.77790  0.90210  0.94840  1.0000 0.3013535825
C   C131      1.0  0.19920  0.08880  0.78360  1.0000 0.139856926
C   C132      1.0  0.91120  0.80080  0.28360  1.0000 0.139856926
C   C133      1.0  0.25670  0.00410  0.76450  1.0000 -0.1396086352
C   C134      1.0  0.99590  0.74330  0.26450  1.0000 -0.1396086352
C   C135      1.0  0.33280  0.95100  0.82440  1.0000 -0.1282680345
C   C136      1.0  0.04900  0.66720  0.32440  1.0000 -0.1282680345
C   C137      1.0  0.34790  0.98150  0.89800  1.0000 -0.0921738483
C   C138      1.0  0.01850  0.65210  0.39800  1.0000 -0.0921738483
C   C139      1.0  0.28880  0.06640  0.91970  1.0000 -0.2118621828
C   C140      1.0  0.93360  0.71120  0.41970  1.0000 -0.2118621828
C   C141      1.0  0.21430  0.11870  0.85940  1.0000 0.1479985354
C   C142      1.0  0.88130  0.78570  0.35940  1.0000 0.1479985354
C   C143      1.0  0.90200  0.40080  0.64680  1.0000 0.139856926
C   C144      1.0  0.59920  0.09800  0.14680  1.0000 0.139856926
C   C145      1.0  0.83830  0.44710  0.57410  1.0000 -0.1497907402
C   C146      1.0  0.55290  0.16170  0.07410  1.0000 -0.1497907402
C   C147      1.0  0.77460  0.53140  0.57580  1.0000 -0.0984296954
C   C148      1.0  0.46860  0.22540  0.07580  1.0000 -0.0984296954
C   C149      1.0  0.77040  0.57420  0.65000  1.0000 -0.0807896207
C   C150      1.0  0.42580  0.22960  0.15000  1.0000 -0.0807896207
C   C151      1.0  0.83040  0.53300  0.72030  1.0000 -0.1682970828
C   C152      1.0  0.46700  0.16960  0.22030  1.0000 -0.1682970828
C   C153      1.0  0.89580  0.44540  0.71790  1.0000 0.1291284178
C   C154      1.0  0.55460  0.10420  0.21790  1.0000 0.1291284178
C   C155      1.0  0.09230  0.22530  0.78070  1.0000 0.2610593376
C   C156      1.0  0.77470  0.90770  0.28070  1.0000 0.2610593376
C   C157      1.0  0.01090  0.30950  0.74260  1.0000 0.2610593376
C   C158      1.0  0.69050  0.98910  0.24260  1.0000 0.2610593376
C   C159      1.0  0.93100  0.97000  0.13630  1.0000 0.5411778776
C   C160      1.0  0.03000  0.06900  0.63630  1.0000 0.5411778776
C   C161      1.0  0.00360  0.98160  0.14660  1.0000 -0.0064970651
C   C162      1.0  0.01840  0.99640  0.64660  1.0000 -0.0064970651
C   C163      1.0  0.98270  0.06450  0.15610  1.0000 -0.1197281871
C   C164      1.0  0.93550  0.01730  0.65610  1.0000 -0.1197281871
C   C165      1.0  0.05010  0.07370  0.16460  1.0000 -0.0064970651
C   C166      1.0  0.92630  0.94990  0.66460  1.0000 -0.0064970651
C   C167      1.0  0.03780  0.15880  0.17980  1.0000 0.5495971528
C   C168      1.0  0.84120  0.96220  0.67980  1.0000 0.5495971528
C   C169      1.0  0.13650  0.00230  0.16430  1.0000 -0.1282680345
C   C170      1.0  0.99770  0.86350  0.66430  1.0000 -0.1282680345
C   C171      1.0  0.15640  0.92040  0.15630  1.0000 -0.0223504671
C   C172      1.0  0.07960  0.84360  0.65630  1.0000 -0.0223504671
C   C173      1.0  0.25020  0.84580  0.15940  1.0000 0.5495971528
C   C174      1.0  0.15420  0.74980  0.65940  1.0000 0.5495971528
C   C175      1.0  0.08810  0.91150  0.14710  1.0000 -0.1197281871
C   C176      1.0  0.08850  0.91190  0.64710  1.0000 -0.1197281871
N   N1        1.0  0.24220  0.61000  0.89100  1.0000 -0.3695347321
N   N2        1.0  0.39000  0.75780  0.39100  1.0000 -0.3695347321
N   N3        1.0  0.13490  0.78170  0.91070  1.0000 -0.3798976702
N   N4        1.0  0.21830  0.86510  0.41070  1.0000 -0.3798976702
N   N5        1.0  0.23710  0.80590  0.90210  1.0000 -0.2983968432
N   N6        1.0  0.19410  0.76290  0.40210  1.0000 -0.2983968432
N   N7        1.0  0.35570  0.61130  0.86560  1.0000 -0.2808496369
N   N8        1.0  0.38870  0.64430  0.36560  1.0000 -0.2808496369
N   N9        1.0  0.26290  0.43070  0.54760  1.0000 -0.3798976702
N   N10       1.0  0.56930  0.73710  0.04760  1.0000 -0.3798976702
N   N11       1.0  0.40210  0.43550  0.54950  1.0000 -0.3999901128
N   N12       1.0  0.56450  0.59790  0.04950  1.0000 -0.3999901128
N   N13       1.0  0.33900  0.56280  0.60410  1.0000 -0.2983968432
N   N14       1.0  0.43720  0.66100  0.10410  1.0000 -0.2983968432
N   N15       1.0  0.18430  0.54810  0.61680  1.0000 -0.2808496369
N   N16       1.0  0.45190  0.81570  0.11680  1.0000 -0.2808496369
N   N17       1.0  0.51140  0.25440  0.46300  1.0000 -0.3798976702
N   N18       1.0  0.74560  0.48860  0.96300  1.0000 -0.3798976702
N   N19       1.0  0.44070  0.24510  0.60650  1.0000 -0.3999901128
N   N20       1.0  0.75490  0.55930  0.10650  1.0000 -0.3999901128
N   N21       1.0  0.56720  0.12620  0.68040  1.0000 -0.4118213715
N   N22       1.0  0.87380  0.43280  0.18040  1.0000 -0.4118213715
N   N23       1.0  0.64430  0.13430  0.50630  1.0000 -0.2808496369
N   N24       1.0  0.86570  0.35570  0.00630  1.0000 -0.2808496369
N   N25       1.0  0.96240  0.27960  0.34030  1.0000 -0.4118213715
N   N26       1.0  0.72040  0.03760  0.84030  1.0000 -0.4118213715
N   N27       1.0  0.15520  0.21420  0.39500  1.0000 -0.2723400357
N   N28       1.0  0.78580  0.84480  0.89500  1.0000 -0.2723400357
N   N29       1.0  0.12880  0.19720  0.53140  1.0000 -0.3915758046
N   N30       1.0  0.80280  0.87120  0.03140  1.0000 -0.3915758046
N   N31       1.0  0.96920  0.23880  0.48660  1.0000 -0.3999901128
N   N32       1.0  0.76120  0.03080  0.98660  1.0000 -0.3999901128
N   N33       1.0  0.11970  0.15830  0.73460  1.0000 -0.3695347321
N   N34       1.0  0.84170  0.88030  0.23460  1.0000 -0.3695347321
N   N35       1.0  0.97520  0.31540  0.66420  1.0000 -0.3695347321
N   N36       1.0  0.68460  0.02480  0.16420  1.0000 -0.3695347321
N   N37       1.0  0.96790  0.38370  0.77950  1.0000 -0.2983968432
N   N38       1.0  0.61630  0.03210  0.27950  1.0000 -0.2983968432
N   N39       1.0  0.14530  0.20530  0.85490  1.0000 -0.2983968432
N   N40       1.0  0.79470  0.85470  0.35490  1.0000 -0.2983968432
O   O1        1.0  0.18200  0.60760  0.06390  1.0000 -0.5593509959
O   O2        1.0  0.39240  0.81800  0.56390  1.0000 -0.5593509959
O   O3        1.0  0.10280  0.58200  0.97930  1.0000 -0.5593509959
O   O4        1.0  0.41800  0.89720  0.47930  1.0000 -0.5593509959
O   O5        1.0  0.07410  0.32890  0.24020  1.0000 -0.5593509959
O   O6        1.0  0.67110  0.92590  0.74020  1.0000 -0.5593509959
O   O7        1.0  0.04320  0.36900  0.09630  1.0000 -0.5786880466
O   O8        1.0  0.63100  0.95680  0.59630  1.0000 -0.5786880466
O   O9        1.0  0.31890  0.31810  0.39950  1.0000 -0.5291381391
O   O10       1.0  0.68190  0.68110  0.89950  1.0000 -0.5291381391
O   O11       1.0  0.32981  0.42441  0.36490  1.0000 -0.5593509959
O   O12       1.0  0.57559  0.67019  0.86490  1.0000 -0.5593509959
O   O13       1.0  0.85790  0.02770  0.15550  1.0000 -0.5373769464
O   O14       1.0  0.97230  0.14210  0.65550  1.0000 -0.5373769464
O   O15       1.0  0.94490  0.90350  0.10540  1.0000 -0.5291381391
O   O16       1.0  0.09650  0.05510  0.60540  1.0000 -0.5291381391
O   O17       1.0  0.26920  0.77380  0.13980  1.0000 -0.6000491294
O   O18       1.0  0.22620  0.73080  0.63980  1.0000 -0.6000491294
O   O19       1.0  0.30660  0.85920  0.18130  1.0000 -0.6101055058
O   O20       1.0  0.14080  0.69340  0.68130  1.0000 -0.6101055058
O   O21       1.0  0.96400  0.22880  0.15040  1.0000 -0.5746508452
O   O22       1.0  0.77120  0.03600  0.65040  1.0000 -0.5746508452
O   O23       1.0  0.09530  0.16010  0.22130  1.0000 -0.5373769464
O   O24       1.0  0.83990  0.90470  0.72130  1.0000 -0.5373769464
