# DDEC6 charges by PACMAN v1.1 (https://github.com/mtap-research/PACMAN-charge/)
data_2006[Fe][pts]3[ASR]1
_chemical_formula_sum              "Fe2 P4 H24 C12 N4 O12"
_cell_length_a       8.3081
_cell_length_b       9.1647
_cell_length_c       9.1839
_cell_angle_alpha    117.219
_cell_angle_beta     100.971
_cell_angle_gamma    87.088

_symmetry_space_group_name_H-M    "P 1"
_symmetry_Int_Tables_number       1

loop_
  _symmetry_equiv_pos_as_xyz
  'x, y, z'

loop_
  _atom_site_type_symbol
  _atom_site_label
  _atom_site_symmetry_multiplicity
  _atom_site_fract_x
  _atom_site_fract_y
  _atom_site_fract_z
  _atom_site_occupancy
  _atom_site_charge
Fe  Fe1       1.0  0.24056  0.57637  0.57038  1.0000 1.2901028965
Fe  Fe2       1.0  0.75944  0.42363  0.42962  1.0000 1.2901028965
P   P1        1.0  0.57926  0.53316  0.75806  1.0000 1.2998620246
P   P2        1.0  0.42074  0.46684  0.24194  1.0000 1.2998620246
P   P3        1.0  0.05694  0.25198  0.53460  1.0000 1.3180270765
P   P4        1.0  0.94306  0.74802  0.46540  1.0000 1.3180270765
H   H1        1.0  0.69480  0.75970  0.00220  1.0000 0.169116677
H   H2        1.0  0.30520  0.24030  0.99780  1.0000 0.169116677
H   H3        1.0  0.61340  0.63820  0.04530  1.0000 0.169116677
H   H4        1.0  0.38660  0.36180  0.95470  1.0000 0.169116677
H   H5        1.0  0.14330  0.01520  0.32900  1.0000 0.1584040273
H   H6        1.0  0.85670  0.98480  0.67100  1.0000 0.1584040273
H   H7        1.0  0.21070  0.16950  0.32540  1.0000 0.1584040273
H   H8        1.0  0.78930  0.83050  0.67460  1.0000 0.1584040273
H   H9        1.0  0.98130  0.74640  0.98200  1.0000 0.1295606125
H   H10       1.0  0.01870  0.25360  0.01800  1.0000 0.1295606125
H   H11       1.0  0.95510  0.56890  0.83170  1.0000 0.1295606125
H   H12       1.0  0.04490  0.43110  0.16830  1.0000 0.1295606125
H   H13       1.0  0.82360  0.34730  0.86370  1.0000 0.121841772
H   H14       1.0  0.17640  0.65270  0.13630  1.0000 0.121841772
H   H15       1.0  0.77020  0.38970  0.03330  1.0000 0.1295606125
H   H16       1.0  0.22980  0.61030  0.96670  1.0000 0.1295606125
H   H17       1.0  0.48720  0.11370  0.31710  1.0000 0.1295606125
H   H18       1.0  0.51280  0.88630  0.68290  1.0000 0.1295606125
H   H19       1.0  0.43300  0.93360  0.27010  1.0000 0.121841772
H   H20       1.0  0.56700  0.06640  0.72990  1.0000 0.121841772
H   H21       1.0  0.30640  0.88130  0.46720  1.0000 0.121841772
H   H22       1.0  0.69360  0.11870  0.53280  1.0000 0.121841772
H   H23       1.0  0.28200  0.02860  0.63710  1.0000 0.1295606125
H   H24       1.0  0.71800  0.97140  0.36290  1.0000 0.1295606125
C   C1        1.0  0.68420  0.64490  0.97570  1.0000 -0.4387044784
C   C2        1.0  0.31580  0.35510  0.02430  1.0000 -0.4387044784
C   C3        1.0  0.19590  0.12340  0.39860  1.0000 -0.4387044784
C   C4        1.0  0.80410  0.87660  0.60140  1.0000 -0.4387044784
C   C5        1.0  0.98060  0.63040  0.95230  1.0000 -0.1219104728
C   C6        1.0  0.01940  0.36960  0.04770  1.0000 -0.1219104728
C   C7        1.0  0.85190  0.41340  0.98360  1.0000 -0.1219104728
C   C8        1.0  0.14810  0.58660  0.01640  1.0000 -0.1219104728
C   C9        1.0  0.47770  0.03770  0.36200  1.0000 -0.1106522072
C   C10       1.0  0.52230  0.96230  0.63800  1.0000 -0.1106522072
C   C11       1.0  0.35330  0.98630  0.55560  1.0000 -0.1219104728
C   C12       1.0  0.64670  0.01370  0.44440  1.0000 -0.1219104728
N   N1        1.0  0.85160  0.59140  0.02550  1.0000 0.1584040273
N   N2        1.0  0.14840  0.40860  0.97450  1.0000 0.1584040273
N   N3        1.0  0.36270  0.10370  0.48450  1.0000 0.1584040273
N   N4        1.0  0.63730  0.89630  0.51550  1.0000 0.1584040273
O   O1        1.0  0.44200  0.64770  0.74860  1.0000 -0.7865356729
O   O2        1.0  0.55800  0.35230  0.25140  1.0000 -0.7865356729
O   O3        1.0  0.70270  0.52310  0.65210  1.0000 -0.7865356729
O   O4        1.0  0.29730  0.47690  0.34790  1.0000 -0.7865356729
O   O5        1.0  0.12740  0.42830  0.62140  1.0000 -0.7971773173
O   O6        1.0  0.87260  0.57170  0.37860  1.0000 -0.7971773173
O   O7        1.0  0.89910  0.23270  0.40850  1.0000 -0.7865356729
O   O8        1.0  0.10090  0.76730  0.59150  1.0000 -0.7865356729
O   O9        1.0  0.51860  0.36800  0.72910  1.0000 -0.7040101315
O   O10       1.0  0.48140  0.63200  0.27090  1.0000 -0.7040101315
O   O11       1.0  0.04200  0.19410  0.66100  1.0000 -0.6785827901
O   O12       1.0  0.95800  0.80590  0.33900  1.0000 -0.6785827901
