# DDEC6 charges by PACMAN v1.1 (https://github.com/mtap-research/PACMAN-charge/)
data_2006[Co][cds]3[ASR]1
_chemical_formula_sum              "Co2 H18 C22 N4 O4"
_cell_length_a       11.4295
_cell_length_b       11.4295
_cell_length_c       8.1405
_cell_angle_alpha    84.3939
_cell_angle_beta     95.6061
_cell_angle_gamma    54.8273

_symmetry_space_group_name_H-M    "P 1"
_symmetry_Int_Tables_number       1

loop_
  _symmetry_equiv_pos_as_xyz
  'x, y, z'

loop_
  _atom_site_type_symbol
  _atom_site_label
  _atom_site_symmetry_multiplicity
  _atom_site_fract_x
  _atom_site_fract_y
  _atom_site_fract_z
  _atom_site_occupancy
  _atom_site_charge
Co  Co1       1.0  0.29220  0.20032  0.62792  1.0000 0.4843202065
Co  Co2       1.0  0.79968  0.70780  0.12792  1.0000 0.4885763656
H   H1        1.0  0.47720  0.88980  0.54170  1.0000 0.0920991528
H   H2        1.0  0.11020  0.52280  0.04170  1.0000 0.0920991528
H   H3        1.0  0.11730  0.08410  0.72660  1.0000 0.1044107358
H   H4        1.0  0.91590  0.88270  0.22660  1.0000 0.1044107358
H   H5        1.0  0.48150  0.30430  0.55910  1.0000 0.1044107358
H   H6        1.0  0.69570  0.51850  0.05910  1.0000 0.1044107358
H   H7        1.0  0.48230  0.68830  0.53840  1.0000 0.1243508588
H   H8        1.0  0.31170  0.51770  0.03840  1.0000 0.1243508588
H   H9        1.0  0.08880  0.72580  0.67810  1.0000 0.1262058895
H   H10       1.0  0.27420  0.91120  0.17810  1.0000 0.1262058895
H   H11       1.0  0.49350  0.49650  0.56320  1.0000 0.1262058895
H   H12       1.0  0.50350  0.50650  0.06320  1.0000 0.1262058895
H   H13       1.0  0.09400  0.52120  0.67480  1.0000 0.0920991528
H   H14       1.0  0.47880  0.90600  0.17480  1.0000 0.0920991528
H   H15       1.0  0.11070  0.88710  0.72220  1.0000 0.1243508588
H   H16       1.0  0.11290  0.88930  0.22220  1.0000 0.1243508588
H   H17       1.0  0.55600  0.90400  0.85600  1.0000 0.0920991528
H   H18       1.0  0.09600  0.44400  0.35600  1.0000 0.0920991528
C   C1        1.0  0.40130  0.88950  0.57980  1.0000 0.0260950522
C   C2        1.0  0.11050  0.59870  0.07980  1.0000 0.0260950522
C   C3        1.0  0.19230  0.00290  0.68630  1.0000 0.0731289219
C   C4        1.0  0.99710  0.80770  0.18630  1.0000 0.0731289219
C   C5        1.0  0.29530  0.76330  0.62760  1.0000 0.0920991528
C   C6        1.0  0.23670  0.70470  0.12760  1.0000 0.0920991528
C   C7        1.0  0.29210  0.63570  0.62100  1.0000 0.0920991528
C   C8        1.0  0.36430  0.70790  0.12100  1.0000 0.0920991528
C   C9        1.0  0.40090  0.39090  0.58520  1.0000 0.0772899668
C   C10       1.0  0.60910  0.59910  0.08520  1.0000 0.0772899668
C   C11       1.0  0.40450  0.76930  0.57630  1.0000 -0.2003005464
C   C12       1.0  0.23070  0.59550  0.07630  1.0000 -0.2003005464
C   C13       1.0  0.17190  0.63990  0.65420  1.0000 -0.2092866271
C   C14       1.0  0.36010  0.82810  0.15420  1.0000 -0.2092866271
C   C15       1.0  0.40900  0.50540  0.58610  1.0000 -0.2092866271
C   C16       1.0  0.49460  0.59100  0.08610  1.0000 -0.2092866271
C   C17       1.0  0.17620  0.51680  0.65150  1.0000 0.0379589107
C   C18       1.0  0.48320  0.82380  0.15150  1.0000 0.0379589107
C   C19       1.0  0.18780  0.88500  0.68440  1.0000 -0.2092866271
C   C20       1.0  0.11500  0.81220  0.18440  1.0000 -0.2092866271
C   C21       1.0  0.57710  0.96770  0.86510  1.0000 0.441081671
C   C22       1.0  0.03230  0.42290  0.36510  1.0000 0.441081671
N   N1        1.0  0.29690  0.00930  0.63430  1.0000 -0.2708200384
N   N2        1.0  0.99070  0.70310  0.13430  1.0000 -0.2708200384
N   N3        1.0  0.28900  0.39120  0.61790  1.0000 -0.262083726
N   N4        1.0  0.60880  0.71100  0.11790  1.0000 -0.262083726
O   O1        1.0  0.50120  0.09360  0.77740  1.0000 -0.4810288716
O   O2        1.0  0.90640  0.49880  0.27740  1.0000 -0.4810288716
O   O3        1.0  0.68403  0.91883  0.97890  1.0000 -0.4703404774
O   O4        1.0  0.08117  0.31597  0.47890  1.0000 -0.4703404774
