# DDEC6 charges by PACMAN v1.1 (https://github.com/mtap-research/PACMAN-charge/)
data_2006[Cu][nan]3[ASR]1
_chemical_formula_sum              "Cu6 H96 C96 N24 O24"
_cell_length_a       13.8967
_cell_length_b       13.8967
_cell_length_c       22.79
_cell_angle_alpha    82.8655
_cell_angle_beta     97.1345
_cell_angle_gamma    137.006

_symmetry_space_group_name_H-M    "P 1"
_symmetry_Int_Tables_number       1

loop_
  _symmetry_equiv_pos_as_xyz
  'x, y, z'

loop_
  _atom_site_type_symbol
  _atom_site_label
  _atom_site_symmetry_multiplicity
  _atom_site_fract_x
  _atom_site_fract_y
  _atom_site_fract_z
  _atom_site_occupancy
  _atom_site_charge
Cu  Cu1       1.0  0.70334  0.11154  0.45879  1.0000 0.8070654755
Cu  Cu2       1.0  0.11154  0.70334  0.04121  1.0000 0.8070654755
Cu  Cu3       1.0  0.29666  0.88846  0.54121  1.0000 0.8070654755
Cu  Cu4       1.0  0.88846  0.29666  0.95879  1.0000 0.8070654755
Cu  Cu5       1.0  0.36958  0.36958  0.25000  1.0000 0.7102463132
Cu  Cu6       1.0  0.63042  0.63042  0.75000  1.0000 0.7102463132
H   H1        1.0  0.48350  0.75650  0.37220  1.0000 0.1187262677
H   H2        1.0  0.75650  0.48350  0.12780  1.0000 0.1187262677
H   H3        1.0  0.51650  0.24350  0.62780  1.0000 0.1187262677
H   H4        1.0  0.24350  0.51650  0.87220  1.0000 0.1187262677
H   H5        1.0  0.15860  0.55500  0.47310  1.0000 0.1385322547
H   H6        1.0  0.55500  0.15860  0.02690  1.0000 0.1385322547
H   H7        1.0  0.84140  0.44500  0.52690  1.0000 0.1385322547
H   H8        1.0  0.44500  0.84140  0.97310  1.0000 0.1385322547
H   H9        1.0  0.12790  0.34550  0.35190  1.0000 0.1187262677
H   H10       1.0  0.34550  0.12790  0.14810  1.0000 0.1187262677
H   H11       1.0  0.87210  0.65450  0.64810  1.0000 0.1187262677
H   H12       1.0  0.65450  0.87210  0.85190  1.0000 0.1187262677
H   H13       1.0  0.61090  0.41530  0.32440  1.0000 0.1285839191
H   H14       1.0  0.41530  0.61090  0.17560  1.0000 0.1285839191
H   H15       1.0  0.38910  0.58470  0.67560  1.0000 0.1285839191
H   H16       1.0  0.58470  0.38910  0.82440  1.0000 0.1285839191
H   H17       1.0  0.27280  0.28140  0.37980  1.0000 0.1187262677
H   H18       1.0  0.28140  0.27280  0.12020  1.0000 0.1187262677
H   H19       1.0  0.72720  0.71860  0.62020  1.0000 0.1187262677
H   H20       1.0  0.71860  0.72720  0.87980  1.0000 0.1187262677
H   H21       1.0  0.62160  0.38720  0.43200  1.0000 0.1385322547
H   H22       1.0  0.38720  0.62160  0.06800  1.0000 0.1385322547
H   H23       1.0  0.37840  0.61280  0.56800  1.0000 0.1385322547
H   H24       1.0  0.61280  0.37840  0.93200  1.0000 0.1385322547
H   H25       1.0  0.30130  0.26090  0.48900  1.0000 0.1187262677
H   H26       1.0  0.26090  0.30130  0.01100  1.0000 0.1187262677
H   H27       1.0  0.69870  0.73910  0.51100  1.0000 0.1187262677
H   H28       1.0  0.73910  0.69870  0.98900  1.0000 0.1187262677
H   H29       1.0  0.40090  0.24510  0.51140  1.0000 0.1285839191
H   H30       1.0  0.24510  0.40090  0.98860  1.0000 0.1285839191
H   H31       1.0  0.59910  0.75490  0.48860  1.0000 0.1285839191
H   H32       1.0  0.75490  0.59910  0.01140  1.0000 0.1285839191
H   H33       1.0  0.47650  0.43130  0.55610  1.0000 0.1077648982
H   H34       1.0  0.43130  0.47650  0.94390  1.0000 0.1077648982
H   H35       1.0  0.52350  0.56870  0.44390  1.0000 0.1077648982
H   H36       1.0  0.56870  0.52350  0.05610  1.0000 0.1077648982
H   H37       1.0  0.59250  0.48770  0.51490  1.0000 0.1077648982
H   H38       1.0  0.48770  0.59250  0.98510  1.0000 0.1077648982
H   H39       1.0  0.40750  0.51230  0.48510  1.0000 0.1077648982
H   H40       1.0  0.51230  0.40750  0.01490  1.0000 0.1077648982
H   H41       1.0  0.62140  0.01660  0.32970  1.0000 0.1187262677
H   H42       1.0  0.01660  0.62140  0.17030  1.0000 0.1187262677
H   H43       1.0  0.37860  0.98340  0.67030  1.0000 0.1187262677
H   H44       1.0  0.98340  0.37860  0.82970  1.0000 0.1187262677
H   H45       1.0  0.75700  0.35920  0.37950  1.0000 0.1285839191
H   H46       1.0  0.35920  0.75700  0.12050  1.0000 0.1285839191
H   H47       1.0  0.24300  0.64080  0.62050  1.0000 0.1285839191
H   H48       1.0  0.64080  0.24300  0.87950  1.0000 0.1285839191
H   H49       1.0  0.74510  0.37010  0.27130  1.0000 0.1285839191
H   H50       1.0  0.37010  0.74510  0.22870  1.0000 0.1285839191
H   H51       1.0  0.25490  0.62990  0.72870  1.0000 0.1285839191
H   H52       1.0  0.62990  0.25490  0.77130  1.0000 0.1285839191
H   H53       1.0  0.60780  0.04500  0.21840  1.0000 0.1187262677
H   H54       1.0  0.04500  0.60780  0.28160  1.0000 0.1187262677
H   H55       1.0  0.39220  0.95500  0.78160  1.0000 0.1187262677
H   H56       1.0  0.95500  0.39220  0.71840  1.0000 0.1187262677
H   H57       1.0  0.59900  0.14960  0.19520  1.0000 0.1187262677
H   H58       1.0  0.14960  0.59900  0.30480  1.0000 0.1187262677
H   H59       1.0  0.40100  0.85040  0.80480  1.0000 0.1187262677
H   H60       1.0  0.85040  0.40100  0.69520  1.0000 0.1187262677
H   H61       1.0  0.84310  0.33470  0.18910  1.0000 0.0992217546
H   H62       1.0  0.33470  0.84310  0.31090  1.0000 0.0992217546
H   H63       1.0  0.15690  0.66530  0.81090  1.0000 0.0992217546
H   H64       1.0  0.66530  0.15690  0.68910  1.0000 0.0992217546
H   H65       1.0  0.78110  0.21230  0.15050  1.0000 0.1077648982
H   H66       1.0  0.21230  0.78110  0.34950  1.0000 0.1077648982
H   H67       1.0  0.21890  0.78770  0.84950  1.0000 0.1077648982
H   H68       1.0  0.78770  0.21890  0.65050  1.0000 0.1077648982
H   H69       1.0  0.92130  0.27110  0.26200  1.0000 0.1077648982
H   H70       1.0  0.27110  0.92130  0.23800  1.0000 0.1077648982
H   H71       1.0  0.07870  0.72890  0.73800  1.0000 0.1077648982
H   H72       1.0  0.72890  0.07870  0.76200  1.0000 0.1077648982
H   H73       1.0  0.85030  0.13990  0.22740  1.0000 0.1077648982
H   H74       1.0  0.13990  0.85030  0.27260  1.0000 0.1077648982
H   H75       1.0  0.14970  0.86010  0.77260  1.0000 0.1077648982
H   H76       1.0  0.86010  0.14970  0.72740  1.0000 0.1077648982
H   H77       1.0  0.08950  0.31330  0.21420  1.0000 0.1187262677
H   H78       1.0  0.31330  0.08950  0.28580  1.0000 0.1187262677
H   H79       1.0  0.91050  0.68670  0.78580  1.0000 0.1187262677
H   H80       1.0  0.68670  0.91050  0.71420  1.0000 0.1187262677
H   H81       1.0  0.08770  0.42330  0.19140  1.0000 0.1077648982
H   H82       1.0  0.42330  0.08770  0.30860  1.0000 0.1077648982
H   H83       1.0  0.91230  0.57670  0.80860  1.0000 0.1077648982
H   H84       1.0  0.57670  0.91230  0.69140  1.0000 0.1077648982
H   H85       1.0  0.01920  0.42360  0.08310  1.0000 0.1187262677
H   H86       1.0  0.42360  0.01920  0.41690  1.0000 0.1187262677
H   H87       1.0  0.98080  0.57640  0.91690  1.0000 0.1187262677
H   H88       1.0  0.57640  0.98080  0.58310  1.0000 0.1077648982
H   H89       1.0  0.95740  0.10220  0.13860  1.0000 0.1285839191
H   H90       1.0  0.10220  0.95740  0.36140  1.0000 0.1285839191
H   H91       1.0  0.04260  0.89780  0.86140  1.0000 0.1285839191
H   H92       1.0  0.89780  0.04260  0.63860  1.0000 0.1285839191
H   H93       1.0  0.89020  0.08500  0.03200  1.0000 0.1285839191
H   H94       1.0  0.08500  0.89020  0.46800  1.0000 0.1285839191
H   H95       1.0  0.10980  0.91500  0.96800  1.0000 0.1285839191
H   H96       1.0  0.91500  0.10980  0.53200  1.0000 0.1285839191
C   C1        1.0  0.39247  0.67373  0.38321  1.0000 -0.1418935547
C   C2        1.0  0.67373  0.39247  0.11679  1.0000 -0.1418935547
C   C3        1.0  0.60753  0.32627  0.61679  1.0000 -0.1418935547
C   C4        1.0  0.32627  0.60753  0.88321  1.0000 -0.1418935547
C   C5        1.0  0.33207  0.67373  0.42823  1.0000 -0.0358823055
C   C6        1.0  0.67373  0.33207  0.07177  1.0000 -0.0358823055
C   C7        1.0  0.66793  0.32627  0.57177  1.0000 -0.0358823055
C   C8        1.0  0.32627  0.66793  0.92823  1.0000 -0.0358823055
C   C9        1.0  0.19826  0.55334  0.44373  1.0000 -0.1201712305
C   C10       1.0  0.55334  0.19826  0.05627  1.0000 -0.1201712305
C   C11       1.0  0.80174  0.44666  0.55627  1.0000 -0.1201712305
C   C12       1.0  0.44666  0.80174  0.94373  1.0000 -0.1201712305
C   C13       1.0  0.11910  0.42710  0.41650  1.0000 -0.0145161405
C   C14       1.0  0.42710  0.11910  0.08350  1.0000 -0.0145161405
C   C15       1.0  0.88090  0.57290  0.58350  1.0000 -0.0145161405
C   C16       1.0  0.57290  0.88090  0.91650  1.0000 -0.0145161405
C   C17       1.0  0.17976  0.42784  0.37130  1.0000 -0.1418935547
C   C18       1.0  0.42784  0.17976  0.12870  1.0000 -0.1418935547
C   C19       1.0  0.82024  0.57216  0.62870  1.0000 -0.1418935547
C   C20       1.0  0.57216  0.82024  0.87130  1.0000 -0.1418935547
C   C21       1.0  0.31617  0.55023  0.35530  1.0000 -0.0340072794
C   C22       1.0  0.55023  0.31617  0.14470  1.0000 -0.0340072794
C   C23       1.0  0.68383  0.44977  0.64470  1.0000 -0.0340072794
C   C24       1.0  0.44977  0.68383  0.85530  1.0000 -0.0340072794
C   C25       1.0  0.41800  0.80900  0.45910  1.0000 0.5487482881
C   C26       1.0  0.80900  0.41800  0.04090  1.0000 0.5487482881
C   C27       1.0  0.58200  0.19100  0.54090  1.0000 0.5487482881
C   C28       1.0  0.19100  0.58200  0.95910  1.0000 0.5487482881
C   C29       1.0  0.96970  0.29290  0.43080  1.0000 0.5259845143
C   C30       1.0  0.29290  0.96970  0.06920  1.0000 0.5259845143
C   C31       1.0  0.03030  0.70710  0.56920  1.0000 0.5259845143
C   C32       1.0  0.70710  0.03030  0.93080  1.0000 0.5259845143
C   C33       1.0  0.37990  0.54530  0.30850  1.0000 0.5259845143
C   C34       1.0  0.54530  0.37990  0.19150  1.0000 0.5259845143
C   C35       1.0  0.62010  0.45470  0.69150  1.0000 0.5259845143
C   C36       1.0  0.45470  0.62010  0.80850  1.0000 0.5259845143
C   C37       1.0  0.54390  0.38530  0.34930  1.0000 -0.0215655933
C   C38       1.0  0.38530  0.54390  0.15070  1.0000 -0.0215655933
C   C39       1.0  0.45610  0.61470  0.65070  1.0000 -0.0215655933
C   C40       1.0  0.61470  0.45610  0.84930  1.0000 -0.0215655933
C   C41       1.0  0.35880  0.31200  0.37940  1.0000 0.0807568485
C   C42       1.0  0.31200  0.35880  0.12060  1.0000 0.0807568485
C   C43       1.0  0.64120  0.68800  0.62060  1.0000 0.0807568485
C   C44       1.0  0.68800  0.64120  0.87940  1.0000 0.0807568485
C   C45       1.0  0.55070  0.36990  0.40860  1.0000 -0.1107669009
C   C46       1.0  0.36990  0.55070  0.09140  1.0000 -0.1107669009
C   C47       1.0  0.44930  0.63010  0.59140  1.0000 -0.1107669009
C   C48       1.0  0.63010  0.44930  0.90860  1.0000 -0.1107669009
C   C49       1.0  0.39660  0.30560  0.48840  1.0000 -0.1201712305
C   C50       1.0  0.30560  0.39660  0.01160  1.0000 -0.1201712305
C   C51       1.0  0.60340  0.69440  0.51160  1.0000 -0.1201712305
C   C52       1.0  0.69440  0.60340  0.98840  1.0000 -0.1201712305
C   C53       1.0  0.49840  0.44620  0.51500  1.0000 -0.1883519331
C   C54       1.0  0.44620  0.49840  0.98500  1.0000 -0.1883519331
C   C55       1.0  0.50160  0.55380  0.48500  1.0000 -0.1883519331
C   C56       1.0  0.55380  0.50160  0.01500  1.0000 -0.1883519331
C   C57       1.0  0.65380  0.10360  0.32900  1.0000 0.0914869754
C   C58       1.0  0.10360  0.65380  0.17100  1.0000 0.0914869754
C   C59       1.0  0.34620  0.89640  0.67100  1.0000 0.0914869754
C   C60       1.0  0.89640  0.34620  0.82900  1.0000 0.0914869754
C   C61       1.0  0.72800  0.29080  0.35600  1.0000 -0.0340072794
C   C62       1.0  0.29080  0.72800  0.14400  1.0000 -0.0340072794
C   C63       1.0  0.27200  0.70920  0.64400  1.0000 -0.0340072794
C   C64       1.0  0.70920  0.27200  0.85600  1.0000 -0.0340072794
C   C65       1.0  0.72150  0.29770  0.29620  1.0000 -0.1201712305
C   C66       1.0  0.29770  0.72150  0.20380  1.0000 -0.1201712305
C   C67       1.0  0.27850  0.70230  0.70380  1.0000 -0.1201712305
C   C68       1.0  0.70230  0.27850  0.79620  1.0000 -0.1201712305
C   C69       1.0  0.65660  0.14200  0.21860  1.0000 -0.1305645836
C   C70       1.0  0.14200  0.65660  0.28140  1.0000 -0.1305645836
C   C71       1.0  0.34340  0.85800  0.78140  1.0000 -0.1305645836
C   C72       1.0  0.85800  0.34340  0.71860  1.0000 -0.1305645836
C   C73       1.0  0.79780  0.23880  0.19090  1.0000 -0.1883519331
C   C74       1.0  0.23880  0.79780  0.30910  1.0000 -0.1883519331
C   C75       1.0  0.20220  0.76120  0.80910  1.0000 -0.1883519331
C   C76       1.0  0.76120  0.20220  0.69090  1.0000 -0.1883519331
C   C77       1.0  0.89810  0.23690  0.22270  1.0000 -0.1846160704
C   C78       1.0  0.23690  0.89810  0.27730  1.0000 -0.1846160704
C   C79       1.0  0.10190  0.76310  0.77730  1.0000 -0.1846160704
C   C80       1.0  0.76310  0.10190  0.72270  1.0000 -0.1846160704
C   C81       1.0  0.03340  0.32440  0.19220  1.0000 -0.1305645836
C   C82       1.0  0.32440  0.03340  0.30780  1.0000 -0.1305645836
C   C83       1.0  0.96660  0.67560  0.80780  1.0000 -0.1305645836
C   C84       1.0  0.67560  0.96660  0.69220  1.0000 -0.1305645836
C   C85       1.0  0.99440  0.34060  0.08320  1.0000 0.0914869754
C   C86       1.0  0.34060  0.99440  0.41680  1.0000 0.0914869754
C   C87       1.0  0.00560  0.65940  0.91680  1.0000 0.0914869754
C   C88       1.0  0.65940  0.00560  0.58320  1.0000 0.0914869754
C   C89       1.0  0.96120  0.16420  0.11480  1.0000 -0.1107669009
C   C90       1.0  0.16420  0.96120  0.38520  1.0000 -0.1107669009
C   C91       1.0  0.03880  0.83580  0.88520  1.0000 -0.1107669009
C   C92       1.0  0.83580  0.03880  0.61480  1.0000 -0.1107669009
C   C93       1.0  0.92430  0.15590  0.05550  1.0000 -0.0215655933
C   C94       1.0  0.15590  0.92430  0.44450  1.0000 -0.0215655933
C   C95       1.0  0.07570  0.84410  0.94450  1.0000 -0.0215655933
C   C96       1.0  0.84410  0.07570  0.55550  1.0000 -0.0215655933
N   N1        1.0  0.42648  0.35112  0.33095  1.0000 -0.2897674654
N   N2        1.0  0.35112  0.42648  0.16905  1.0000 -0.2897674654
N   N3        1.0  0.57352  0.64888  0.66905  1.0000 -0.2897674654
N   N4        1.0  0.64888  0.57352  0.83095  1.0000 -0.2897674654
N   N5        1.0  0.43152  0.32308  0.42748  1.0000 0.0463719478
N   N6        1.0  0.32308  0.43152  0.07252  1.0000 0.0463719478
N   N7        1.0  0.56848  0.67692  0.57252  1.0000 0.0463719478
N   N8        1.0  0.67692  0.56848  0.92748  1.0000 0.0463719478
N   N9        1.0  0.68587  0.16873  0.37691  1.0000 -0.2897674654
N   N10       1.0  0.16873  0.68587  0.12309  1.0000 -0.2897674654
N   N11       1.0  0.31413  0.83127  0.62309  1.0000 -0.2897674654
N   N12       1.0  0.83127  0.31413  0.87691  1.0000 -0.2897674654
N   N13       1.0  0.67353  0.17727  0.27975  1.0000 0.0398598926
N   N14       1.0  0.17727  0.67353  0.22025  1.0000 0.0398598926
N   N15       1.0  0.32647  0.82273  0.72025  1.0000 0.0398598926
N   N16       1.0  0.82273  0.32647  0.77975  1.0000 0.0398598926
N   N17       1.0  0.00412  0.28108  0.13117  1.0000 0.0398598926
N   N18       1.0  0.28108  0.00412  0.36883  1.0000 0.0398598926
N   N19       1.0  0.99588  0.71892  0.86883  1.0000 0.0398598926
N   N20       1.0  0.71892  0.99588  0.63117  1.0000 0.0398598926
N   N21       1.0  0.94511  0.26629  0.03617  1.0000 -0.2897674654
N   N22       1.0  0.26629  0.94511  0.46383  1.0000 -0.2897674654
N   N23       1.0  0.05489  0.73371  0.96383  1.0000 -0.2897674654
N   N24       1.0  0.73371  0.05489  0.53617  1.0000 -0.2897674654
O   O1        1.0  0.53477  0.91763  0.43682  1.0000 -0.5552215094
O   O2        1.0  0.91763  0.53477  0.06318  1.0000 -0.5552215094
O   O3        1.0  0.46523  0.08237  0.56318  1.0000 -0.5552215094
O   O4        1.0  0.08237  0.46523  0.93682  1.0000 -0.5552215094
O   O5        1.0  0.36972  0.80448  0.50261  1.0000 -0.567156654
O   O6        1.0  0.80448  0.36972  0.99739  1.0000 -0.567156654
O   O7        1.0  0.63028  0.19552  0.49739  1.0000 -0.567156654
O   O8        1.0  0.19552  0.63028  0.00261  1.0000 -0.567156654
O   O9        1.0  0.90603  0.30337  0.46087  1.0000 -0.5305945987
O   O10       1.0  0.30337  0.90603  0.03913  1.0000 -0.5305945987
O   O11       1.0  0.09397  0.69663  0.53913  1.0000 -0.5305945987
O   O12       1.0  0.69663  0.09397  0.96087  1.0000 -0.5305945987
O   O13       1.0  0.91616  0.18104  0.41383  1.0000 -0.567156654
O   O14       1.0  0.18104  0.91616  0.08617  1.0000 -0.567156654
O   O15       1.0  0.08384  0.81896  0.58617  1.0000 -0.567156654
O   O16       1.0  0.81896  0.08384  0.91383  1.0000 -0.567156654
O   O17       1.0  0.30162  0.43098  0.28419  1.0000 -0.5430494064
O   O18       1.0  0.43098  0.30162  0.21581  1.0000 -0.5430494064
O   O19       1.0  0.69838  0.56902  0.71581  1.0000 -0.5430494064
O   O20       1.0  0.56902  0.69838  0.78419  1.0000 -0.5430494064
O   O21       1.0  0.50560  0.64920  0.29960  1.0000 -0.5305945987
O   O22       1.0  0.64920  0.50560  0.20040  1.0000 -0.5305945987
O   O23       1.0  0.49440  0.35080  0.70040  1.0000 -0.5305945987
O   O24       1.0  0.35080  0.49440  0.79960  1.0000 -0.5305945987
