# DDEC6 charges by PACMAN v1.1 (https://github.com/mtap-research/PACMAN-charge/)
data_2006[Pr][fsc]3[ASR]1
_chemical_formula_sum              "Pr2 H26 C50 N4 O12"
_cell_length_a       9.4902
_cell_length_b       13.9123
_cell_length_c       16.7437
_cell_angle_alpha    96.956
_cell_angle_beta     104.198
_cell_angle_gamma    88.309

_symmetry_space_group_name_H-M    "P 1"
_symmetry_Int_Tables_number       1

loop_
  _symmetry_equiv_pos_as_xyz
  'x, y, z'

loop_
  _atom_site_type_symbol
  _atom_site_label
  _atom_site_symmetry_multiplicity
  _atom_site_fract_x
  _atom_site_fract_y
  _atom_site_fract_z
  _atom_site_occupancy
  _atom_site_charge
Pr  Pr1       1.0  0.70540  0.06130  0.55327  1.0000 2.1027468242
Pr  Pr2       1.0  0.29460  0.93870  0.44673  1.0000 2.1027468242
H   H1        1.0  0.68490  0.80060  0.04560  1.0000 0.1224248695
H   H2        1.0  0.31510  0.19940  0.95440  1.0000 0.1224248695
H   H3        1.0  0.67950  0.78600  0.89680  1.0000 0.1287144874
H   H4        1.0  0.32050  0.21400  0.10320  1.0000 0.1287144874
H   H5        1.0  0.91120  0.54560  0.69080  1.0000 0.1287144874
H   H6        1.0  0.08880  0.45440  0.30920  1.0000 0.1287144874
H   H7        1.0  0.07100  0.40330  0.70540  1.0000 0.1287144874
H   H8        1.0  0.92900  0.59670  0.29460  1.0000 0.1287144874
H   H9        1.0  0.99760  0.49340  0.92810  1.0000 0.2796575524
H   H10       1.0  0.00240  0.50660  0.07190  1.0000 0.2796575524
H   H11       1.0  0.97180  0.78930  0.25490  1.0000 0.1224248695
H   H12       1.0  0.02820  0.21070  0.74510  1.0000 0.1224248695
H   H13       1.0  0.87240  0.89050  0.34840  1.0000 0.1224248695
H   H14       1.0  0.12760  0.10950  0.65160  1.0000 0.1224248695
H   H15       1.0  0.47720  0.77750  0.24160  1.0000 0.1224248695
H   H16       1.0  0.52280  0.22250  0.75840  1.0000 0.1287144874
H   H17       1.0  0.57340  0.68430  0.14210  1.0000 0.1224248695
H   H18       1.0  0.42660  0.31570  0.85790  1.0000 0.1224248695
H   H19       1.0  0.56600  0.61850  0.75330  1.0000 0.1287144874
H   H20       1.0  0.43400  0.38150  0.24670  1.0000 0.1287144874
H   H21       1.0  0.43890  0.70770  0.64970  1.0000 0.1287144874
H   H22       1.0  0.56110  0.29230  0.35030  1.0000 0.1287144874
H   H23       1.0  0.80540  0.84790  0.65320  1.0000 0.1287144874
H   H24       1.0  0.19460  0.15210  0.34680  1.0000 0.1287144874
H   H25       1.0  0.93130  0.76220  0.75970  1.0000 0.1224248695
H   H26       1.0  0.06870  0.23780  0.24030  1.0000 0.1224248695
C   C1        1.0  0.81700  0.67310  0.05020  1.0000 0.1665235221
C   C2        1.0  0.18300  0.32690  0.94980  1.0000 0.1665235221
C   C3        1.0  0.73120  0.75190  0.01620  1.0000 -0.1905486438
C   C4        1.0  0.26880  0.24810  0.98380  1.0000 -0.1905486438
C   C5        1.0  0.72850  0.74400  0.93530  1.0000 -0.196893447
C   C6        1.0  0.27150  0.25600  0.06470  1.0000 -0.1905486438
C   C7        1.0  0.81330  0.66030  0.91710  1.0000 0.1772465802
C   C8        1.0  0.18670  0.33970  0.08290  1.0000 0.1772465802
C   C9        1.0  0.83900  0.63030  0.83890  1.0000 -0.0879293882
C   C10       1.0  0.16100  0.36970  0.16110  1.0000 -0.0879293882
C   C11       1.0  0.92650  0.55100  0.82090  1.0000 0.1637606047
C   C12       1.0  0.07350  0.44900  0.17910  1.0000 0.1637606047
C   C13       1.0  0.95000  0.51750  0.74060  1.0000 -0.196893447
C   C14       1.0  0.05000  0.48250  0.25940  1.0000 -0.196893447
C   C15       1.0  0.03620  0.43960  0.74840  1.0000 -0.196893447
C   C16       1.0  0.96380  0.56040  0.25160  1.0000 -0.196893447
C   C17       1.0  0.06690  0.42040  0.83370  1.0000 0.1665235221
C   C18       1.0  0.93310  0.57960  0.16630  1.0000 0.1665235221
C   C19       1.0  0.84710  0.65560  0.13280  1.0000 -0.0879293882
C   C20       1.0  0.15290  0.34440  0.86720  1.0000 -0.0879293882
C   C21       1.0  0.78350  0.72280  0.19100  1.0000 0.0857256189
C   C22       1.0  0.21650  0.27720  0.80900  1.0000 0.0857256189
C   C23       1.0  0.87060  0.78650  0.25140  1.0000 -0.1512489967
C   C24       1.0  0.12940  0.21350  0.74860  1.0000 -0.1512489967
C   C25       1.0  0.81100  0.84680  0.30750  1.0000 -0.0879293882
C   C26       1.0  0.18900  0.15320  0.69250  1.0000 -0.0879293882
C   C27       1.0  0.66650  0.84440  0.30470  1.0000 -0.0349560395
C   C28       1.0  0.33350  0.15560  0.69530  1.0000 -0.0393668317
C   C29       1.0  0.57790  0.78130  0.24380  1.0000 -0.0879293882
C   C30       1.0  0.42210  0.21870  0.75620  1.0000 -0.0879293882
C   C31       1.0  0.63620  0.72370  0.18590  1.0000 -0.1512489967
C   C32       1.0  0.36380  0.27630  0.81410  1.0000 -0.1512489967
C   C33       1.0  0.60440  0.90560  0.36920  1.0000 0.6587343313
C   C34       1.0  0.39560  0.09440  0.63080  1.0000 0.6587343313
C   C35       1.0  0.76320  0.68290  0.76880  1.0000 0.0811200834
C   C36       1.0  0.23680  0.31710  0.23120  1.0000 0.0811200834
C   C37       1.0  0.61530  0.66610  0.73420  1.0000 -0.1512489967
C   C38       1.0  0.38470  0.33390  0.26580  1.0000 -0.1512489967
C   C39       1.0  0.54010  0.71870  0.67170  1.0000 -0.0809152961
C   C40       1.0  0.45990  0.28130  0.32830  1.0000 -0.0809152961
C   C41       1.0  0.60890  0.78670  0.64100  1.0000 -0.0393668317
C   C42       1.0  0.39110  0.21330  0.35900  1.0000 -0.0393668317
C   C43       1.0  0.75550  0.80210  0.67390  1.0000 -0.0879293882
C   C44       1.0  0.24450  0.19790  0.32610  1.0000 -0.0879293882
C   C45       1.0  0.83040  0.75040  0.73740  1.0000 -0.1406265997
C   C46       1.0  0.16960  0.24960  0.26260  1.0000 -0.1406265997
C   C47       1.0  0.52060  0.84280  0.57600  1.0000 0.6298637188
C   C48       1.0  0.47940  0.15720  0.42400  1.0000 0.6298637188
C   C49       1.0  0.99950  0.04710  0.48000  1.0000 0.5063953794
C   C50       1.0  0.00050  0.95290  0.52000  1.0000 0.5063953794
N   N1        1.0  0.86630  0.61820  0.98810  1.0000 -0.4446321033
N   N2        1.0  0.13370  0.38180  0.01190  1.0000 -0.4446321033
N   N3        1.0  0.99710  0.48940  0.87520  1.0000 -0.2495261111
N   N4        1.0  0.00290  0.51060  0.12480  1.0000 -0.2495261111
O   O1        1.0  0.68550  0.96930  0.41610  1.0000 -0.6369764112
O   O2        1.0  0.31450  0.03070  0.58390  1.0000 -0.6369764112
O   O3        1.0  0.47530  0.88610  0.37070  1.0000 -0.701975485
O   O4        1.0  0.52470  0.11390  0.62930  1.0000 -0.701975485
O   O5        1.0  0.57760  0.91450  0.55500  1.0000 -0.741961857
O   O6        1.0  0.42240  0.08550  0.44500  1.0000 -0.741961857
O   O7        1.0  0.39410  0.81650  0.54320  1.0000 -0.5785604321
O   O8        1.0  0.60590  0.18350  0.45680  1.0000 -0.5785604321
O   O9        1.0  0.91210  0.11140  0.49730  1.0000 -0.59442999
O   O10       1.0  0.08790  0.88860  0.50270  1.0000 -0.59442999
O   O11       1.0  0.08530  0.05360  0.43520  1.0000 -0.6106956207
O   O12       1.0  0.91470  0.94640  0.56480  1.0000 -0.6106956207
