# DDEC6 charges by PACMAN v1.1 (https://github.com/mtap-research/PACMAN-charge/)
data_2006[Mn][nan]3[ASR]2
_chemical_formula_sum              "Mn6 H12 C24 N24 Cl6"
_cell_length_a       19.2774
_cell_length_b       19.2774
_cell_length_c       19.2774
_cell_angle_alpha    117.827
_cell_angle_beta     117.827
_cell_angle_gamma    117.827

_symmetry_space_group_name_H-M    "P 1"
_symmetry_Int_Tables_number       1

loop_
  _symmetry_equiv_pos_as_xyz
  'x, y, z'

loop_
  _atom_site_type_symbol
  _atom_site_label
  _atom_site_symmetry_multiplicity
  _atom_site_fract_x
  _atom_site_fract_y
  _atom_site_fract_z
  _atom_site_occupancy
  _atom_site_charge
Mn  Mn1       1.0  0.77890  0.49933  0.08213  1.0000 0.6817740367
Mn  Mn2       1.0  0.49933  0.08213  0.77890  1.0000 0.6817740367
Mn  Mn3       1.0  0.08213  0.77890  0.49933  1.0000 0.6817740367
Mn  Mn4       1.0  0.22110  0.50067  0.91787  1.0000 0.6817740367
Mn  Mn5       1.0  0.50067  0.91787  0.22110  1.0000 0.6817740367
Mn  Mn6       1.0  0.91787  0.22110  0.50067  1.0000 0.6817740367
H   H1        1.0  0.61150  0.51650  0.97520  1.0000 0.1223552938
H   H2        1.0  0.51650  0.97520  0.61150  1.0000 0.1223552938
H   H3        1.0  0.97520  0.61150  0.51650  1.0000 0.1223552938
H   H4        1.0  0.38850  0.48350  0.02480  1.0000 0.1223552938
H   H5        1.0  0.48350  0.02480  0.38850  1.0000 0.1223552938
H   H6        1.0  0.02480  0.38850  0.48350  1.0000 0.1223552938
H   H7        1.0  0.33470  0.30540  0.91830  1.0000 0.1223552938
H   H8        1.0  0.30540  0.91830  0.33470  1.0000 0.1223552938
H   H9        1.0  0.91830  0.33470  0.30540  1.0000 0.1223552938
H   H10       1.0  0.66530  0.69460  0.08170  1.0000 0.1223552938
H   H11       1.0  0.69460  0.08170  0.66530  1.0000 0.1223552938
H   H12       1.0  0.08170  0.66530  0.69460  1.0000 0.1223552938
C   C1        1.0  0.42010  0.26660  0.85670  1.0000 0.2299276507
C   C2        1.0  0.26660  0.85670  0.42010  1.0000 0.2299276507
C   C3        1.0  0.85670  0.42010  0.26660  1.0000 0.2299276507
C   C4        1.0  0.57990  0.73340  0.14330  1.0000 0.2299276507
C   C5        1.0  0.73340  0.14330  0.57990  1.0000 0.2299276507
C   C6        1.0  0.14330  0.57990  0.73340  1.0000 0.2299276507
C   C7        1.0  0.46220  0.38440  0.93050  1.0000 0.0178953729
C   C8        1.0  0.38440  0.93050  0.46220  1.0000 0.0178953729
C   C9        1.0  0.93050  0.46220  0.38440  1.0000 0.0178953729
C   C10       1.0  0.53780  0.61560  0.06950  1.0000 0.0178953729
C   C11       1.0  0.61560  0.06950  0.53780  1.0000 0.0178953729
C   C12       1.0  0.06950  0.53780  0.61560  1.0000 0.0178953729
C   C13       1.0  0.56650  0.50930  0.98450  1.0000 -0.1031225867
C   C14       1.0  0.50930  0.98450  0.56650  1.0000 -0.1031225867
C   C15       1.0  0.98450  0.56650  0.50930  1.0000 -0.1031225867
C   C16       1.0  0.43350  0.49070  0.01550  1.0000 -0.1031225867
C   C17       1.0  0.49070  0.01550  0.43350  1.0000 -0.1031225867
C   C18       1.0  0.01550  0.43350  0.49070  1.0000 -0.1031225867
C   C19       1.0  0.40090  0.38310  0.95050  1.0000 -0.0854513952
C   C20       1.0  0.38310  0.95050  0.40090  1.0000 -0.0854513952
C   C21       1.0  0.95050  0.40090  0.38310  1.0000 -0.0854513952
C   C22       1.0  0.59910  0.61690  0.04950  1.0000 -0.0854513952
C   C23       1.0  0.61690  0.04950  0.59910  1.0000 -0.0854513952
C   C24       1.0  0.04950  0.59910  0.61690  1.0000 -0.0854513952
N   N1        1.0  0.51300  0.28920  0.88760  1.0000 -0.2237946326
N   N2        1.0  0.28920  0.88760  0.51300  1.0000 -0.2237946326
N   N3        1.0  0.88760  0.51300  0.28920  1.0000 -0.2237946326
N   N4        1.0  0.48700  0.71080  0.11240  1.0000 -0.2237946326
N   N5        1.0  0.71080  0.11240  0.48700  1.0000 -0.2237946326
N   N6        1.0  0.11240  0.48700  0.71080  1.0000 -0.2237946326
N   N7        1.0  0.42360  0.14530  0.78940  1.0000 -0.0280550215
N   N8        1.0  0.14530  0.78940  0.42360  1.0000 -0.0280550215
N   N9        1.0  0.78940  0.42360  0.14530  1.0000 -0.0280550215
N   N10       1.0  0.57640  0.85470  0.21060  1.0000 -0.0280550215
N   N11       1.0  0.85470  0.21060  0.57640  1.0000 -0.0280550215
N   N12       1.0  0.21060  0.57640  0.85470  1.0000 -0.0280550215
N   N13       1.0  0.28530  0.04610  0.70500  1.0000 -0.0202078903
N   N14       1.0  0.04610  0.70500  0.28530  1.0000 -0.0202078903
N   N15       1.0  0.70500  0.28530  0.04610  1.0000 -0.0202078903
N   N16       1.0  0.71470  0.95390  0.29500  1.0000 -0.0202078903
N   N17       1.0  0.95390  0.29500  0.71470  1.0000 -0.0202078903
N   N18       1.0  0.29500  0.71470  0.95390  1.0000 -0.0202078903
N   N19       1.0  0.27750  0.11540  0.74280  1.0000 -0.2324878905
N   N20       1.0  0.11540  0.74280  0.27750  1.0000 -0.2324878905
N   N21       1.0  0.74280  0.27750  0.11540  1.0000 -0.2324878905
N   N22       1.0  0.72250  0.88460  0.25720  1.0000 -0.2324878905
N   N23       1.0  0.88460  0.25720  0.72250  1.0000 -0.2324878905
N   N24       1.0  0.25720  0.72250  0.88460  1.0000 -0.2324878905
Cl  Cl1       1.0  0.88006  0.68896  0.30158  1.0000 -0.4811882311
Cl  Cl2       1.0  0.68896  0.30158  0.88006  1.0000 -0.4811882311
Cl  Cl3       1.0  0.30158  0.88006  0.68896  1.0000 -0.4811882311
Cl  Cl4       1.0  0.11994  0.31104  0.69842  1.0000 -0.4811882311
Cl  Cl5       1.0  0.31104  0.69842  0.11994  1.0000 -0.4811882311
Cl  Cl6       1.0  0.69842  0.11994  0.31104  1.0000 -0.4811882311
