# DDEC6 charges by PACMAN v1.1 (https://github.com/mtap-research/PACMAN-charge/)
data_2006[Mn][fsc]3[ASR]3
_chemical_formula_sum              "Mn4 H64 C80 N8 O24"
_cell_length_a       9.871
_cell_length_b       23.254
_cell_length_c       11.507
_cell_angle_alpha    90
_cell_angle_beta     96.418
_cell_angle_gamma    90

_symmetry_space_group_name_H-M    "P 1"
_symmetry_Int_Tables_number       1

loop_
  _symmetry_equiv_pos_as_xyz
  'x, y, z'

loop_
  _atom_site_type_symbol
  _atom_site_label
  _atom_site_symmetry_multiplicity
  _atom_site_fract_x
  _atom_site_fract_y
  _atom_site_fract_z
  _atom_site_occupancy
  _atom_site_charge
Mn  Mn1       1.0  0.74955  0.23293  0.50002  1.0000 0.9153361768
Mn  Mn2       1.0  0.75045  0.73293  0.49998  1.0000 0.9153361768
Mn  Mn3       1.0  0.25045  0.76707  0.49998  1.0000 0.9153361768
Mn  Mn4       1.0  0.24955  0.26707  0.50002  1.0000 0.9153361768
H   H1        1.0  0.89330  0.34870  0.38170  1.0000 0.1116925324
H   H2        1.0  0.60670  0.84870  0.61830  1.0000 0.1116925324
H   H3        1.0  0.10670  0.65130  0.61830  1.0000 0.1116925324
H   H4        1.0  0.39330  0.15130  0.38170  1.0000 0.1116925324
H   H5        1.0  0.88700  0.44790  0.38930  1.0000 0.120394236
H   H6        1.0  0.61300  0.94790  0.61070  1.0000 0.120394236
H   H7        1.0  0.11300  0.55210  0.61070  1.0000 0.120394236
H   H8        1.0  0.38700  0.05210  0.38930  1.0000 0.120394236
H   H9        1.0  0.60540  0.44160  0.61420  1.0000 0.120394236
H   H10       1.0  0.89460  0.94160  0.38580  1.0000 0.120394236
H   H11       1.0  0.39460  0.55840  0.38580  1.0000 0.120394236
H   H12       1.0  0.10540  0.05840  0.61420  1.0000 0.120394236
H   H13       1.0  0.62030  0.34220  0.61400  1.0000 0.1007388865
H   H14       1.0  0.87970  0.84220  0.38600  1.0000 0.1007388865
H   H15       1.0  0.37970  0.65780  0.38600  1.0000 0.1007388865
H   H16       1.0  0.12030  0.15780  0.61400  1.0000 0.1007388865
H   H17       1.0  0.93820  0.53430  0.46000  1.0000 0.120394236
H   H18       1.0  0.56180  0.03430  0.54000  1.0000 0.120394236
H   H19       1.0  0.06180  0.46570  0.54000  1.0000 0.120394236
H   H20       1.0  0.43820  0.96570  0.46000  1.0000 0.120394236
H   H21       1.0  0.92990  0.63260  0.45950  1.0000 0.1007388865
H   H22       1.0  0.57010  0.13260  0.54050  1.0000 0.1007388865
H   H23       1.0  0.07010  0.36740  0.54050  1.0000 0.1007388865
H   H24       1.0  0.42990  0.86740  0.45950  1.0000 0.1007388865
H   H25       1.0  0.55190  0.62940  0.55560  1.0000 0.1007388865
H   H26       1.0  0.94810  0.12940  0.44440  1.0000 0.1007388865
H   H27       1.0  0.44810  0.37060  0.44440  1.0000 0.1007388865
H   H28       1.0  0.05190  0.87060  0.55560  1.0000 0.1007388865
H   H29       1.0  0.56130  0.52940  0.55630  1.0000 0.1116925324
H   H30       1.0  0.93870  0.02940  0.44370  1.0000 0.1116925324
H   H31       1.0  0.43870  0.47060  0.44370  1.0000 0.1116925324
H   H32       1.0  0.06130  0.97060  0.55630  1.0000 0.1116925324
H   H33       1.0  0.23980  0.35370  0.00680  1.0000 0.164160356
H   H34       1.0  0.26020  0.85370  0.99320  1.0000 0.164160356
H   H35       1.0  0.76020  0.64630  0.99320  1.0000 0.164160356
H   H36       1.0  0.73980  0.14630  0.00680  1.0000 0.164160356
H   H37       1.0  0.08550  0.20130  0.88650  1.0000 0.120394236
H   H38       1.0  0.41450  0.70130  0.11350  1.0000 0.120394236
H   H39       1.0  0.91450  0.79870  0.11350  1.0000 0.120394236
H   H40       1.0  0.58550  0.29870  0.88650  1.0000 0.120394236
H   H41       1.0  0.26260  0.15410  0.00190  1.0000 0.1116925324
H   H42       1.0  0.23740  0.65410  0.99810  1.0000 0.1116925324
H   H43       1.0  0.73740  0.84590  0.99810  1.0000 0.1116925324
H   H44       1.0  0.76260  0.34590  0.00190  1.0000 0.1116925324
H   H45       1.0  0.41060  0.20480  0.13210  1.0000 0.1298211563
H   H46       1.0  0.08940  0.70480  0.86790  1.0000 0.1298211563
H   H47       1.0  0.58940  0.79520  0.86790  1.0000 0.1298211563
H   H48       1.0  0.91060  0.29520  0.13210  1.0000 0.1298211563
H   H49       1.0  0.58930  0.32050  0.26130  1.0000 0.1298211563
H   H50       1.0  0.91070  0.82050  0.73870  1.0000 0.1298211563
H   H51       1.0  0.41070  0.67950  0.73870  1.0000 0.1298211563
H   H52       1.0  0.08930  0.17950  0.26130  1.0000 0.1298211563
H   H53       1.0  0.57150  0.26370  0.18910  1.0000 0.1298211563
H   H54       1.0  0.92850  0.76370  0.81090  1.0000 0.1298211563
H   H55       1.0  0.42850  0.73630  0.81090  1.0000 0.1298211563
H   H56       1.0  0.07150  0.23630  0.18910  1.0000 0.1298211563
H   H57       1.0  0.89850  0.31090  0.75650  1.0000 0.1298211563
H   H58       1.0  0.60150  0.81090  0.24350  1.0000 0.1298211563
H   H59       1.0  0.10150  0.68910  0.24350  1.0000 0.1298211563
H   H60       1.0  0.39850  0.18910  0.75650  1.0000 0.1298211563
H   H61       1.0  0.92820  0.25350  0.82440  1.0000 0.120394236
H   H62       1.0  0.57180  0.75350  0.17560  1.0000 0.120394236
H   H63       1.0  0.07180  0.74650  0.17560  1.0000 0.120394236
H   H64       1.0  0.42820  0.24650  0.82440  1.0000 0.120394236
C   C1        1.0  0.83770  0.36735  0.42990  1.0000 0.0424566196
C   C2        1.0  0.66230  0.86735  0.57010  1.0000 0.0424566196
C   C3        1.0  0.16230  0.63265  0.57010  1.0000 0.0424566196
C   C4        1.0  0.33770  0.13265  0.42990  1.0000 0.0424566196
C   C5        1.0  0.83260  0.42675  0.43460  1.0000 -0.201239677
C   C6        1.0  0.66740  0.92675  0.56540  1.0000 -0.201239677
C   C7        1.0  0.16740  0.57325  0.56540  1.0000 -0.201239677
C   C8        1.0  0.33260  0.07325  0.43460  1.0000 -0.201239677
C   C9        1.0  0.74910  0.45635  0.50480  1.0000 0.1007388865
C   C10       1.0  0.75090  0.95635  0.49520  1.0000 0.1007388865
C   C11       1.0  0.25090  0.54365  0.49520  1.0000 0.1007388865
C   C12       1.0  0.24910  0.04365  0.50480  1.0000 0.1007388865
C   C13       1.0  0.66590  0.42348  0.56970  1.0000 -0.2211146056
C   C14       1.0  0.83410  0.92348  0.43030  1.0000 -0.2211146056
C   C15       1.0  0.33410  0.57652  0.43030  1.0000 -0.2211146056
C   C16       1.0  0.16590  0.07652  0.56970  1.0000 -0.2211146056
C   C17       1.0  0.67350  0.36334  0.56770  1.0000 0.0896124692
C   C18       1.0  0.82650  0.86334  0.43230  1.0000 0.0896124692
C   C19       1.0  0.32650  0.63666  0.43230  1.0000 0.0896124692
C   C20       1.0  0.17350  0.13666  0.56770  1.0000 0.0896124692
C   C21       1.0  0.75460  0.52034  0.51230  1.0000 0.1007388865
C   C22       1.0  0.74540  0.02034  0.48770  1.0000 0.1007388865
C   C23       1.0  0.24540  0.47966  0.48770  1.0000 0.1007388865
C   C24       1.0  0.25460  0.97966  0.51230  1.0000 0.1007388865
C   C25       1.0  0.86080  0.55272  0.48080  1.0000 -0.201239677
C   C26       1.0  0.63920  0.05272  0.51920  1.0000 -0.201239677
C   C27       1.0  0.13920  0.44728  0.51920  1.0000 -0.201239677
C   C28       1.0  0.36080  0.94728  0.48080  1.0000 -0.201239677
C   C29       1.0  0.85540  0.61168  0.47920  1.0000 0.0896124692
C   C30       1.0  0.64460  0.11168  0.52080  1.0000 0.0896124692
C   C31       1.0  0.14460  0.38832  0.52080  1.0000 0.0896124692
C   C32       1.0  0.35540  0.88832  0.47920  1.0000 0.0896124692
C   C33       1.0  0.62910  0.61017  0.53670  1.0000 0.0828947221
C   C34       1.0  0.87090  0.11017  0.46330  1.0000 0.0828947221
C   C35       1.0  0.37090  0.38983  0.46330  1.0000 0.0828947221
C   C36       1.0  0.12910  0.88983  0.53670  1.0000 0.0828947221
C   C37       1.0  0.63640  0.55034  0.53800  1.0000 -0.201239677
C   C38       1.0  0.86360  0.05034  0.46200  1.0000 -0.201239677
C   C39       1.0  0.36360  0.44966  0.46200  1.0000 -0.201239677
C   C40       1.0  0.13640  0.94966  0.53800  1.0000 -0.201239677
C   C41       1.0  0.34430  0.28430  0.08010  1.0000 0.2784983033
C   C42       1.0  0.15570  0.78430  0.91990  1.0000 0.2784983033
C   C43       1.0  0.65570  0.71570  0.91990  1.0000 0.2784983033
C   C44       1.0  0.84430  0.21570  0.08010  1.0000 0.2784983033
C   C45       1.0  0.24310  0.31374  0.00660  1.0000 -0.3473592027
C   C46       1.0  0.25690  0.81374  0.99340  1.0000 -0.3473592027
C   C47       1.0  0.75690  0.68626  0.99340  1.0000 -0.3473592027
C   C48       1.0  0.74310  0.18626  0.00660  1.0000 -0.3473592027
C   C49       1.0  0.15030  0.28301  0.93550  1.0000 0.2784983033
C   C50       1.0  0.34970  0.78301  0.06450  1.0000 0.2784983033
C   C51       1.0  0.84970  0.71699  0.06450  1.0000 0.2784983033
C   C52       1.0  0.65030  0.21699  0.93550  1.0000 0.2784983033
C   C53       1.0  0.15120  0.22197  0.93350  1.0000 -0.2862940429
C   C54       1.0  0.34880  0.72197  0.06650  1.0000 -0.2862940429
C   C55       1.0  0.84880  0.77803  0.06650  1.0000 -0.2862940429
C   C56       1.0  0.65120  0.27803  0.93350  1.0000 -0.2862940429
C   C57       1.0  0.25550  0.19397  0.00540  1.0000 -0.0567942223
C   C58       1.0  0.24450  0.69397  0.99460  1.0000 -0.0567942223
C   C59       1.0  0.74450  0.80603  0.99460  1.0000 -0.0567942223
C   C60       1.0  0.75550  0.30603  0.00540  1.0000 -0.0567942223
C   C61       1.0  0.34700  0.22422  0.08070  1.0000 -0.2694551869
C   C62       1.0  0.15300  0.72422  0.91930  1.0000 -0.2694551869
C   C63       1.0  0.65300  0.77578  0.91930  1.0000 -0.2694551869
C   C64       1.0  0.84700  0.27578  0.08070  1.0000 -0.2694551869
C   C65       1.0  0.52300  0.29190  0.23090  1.0000 -0.201239677
C   C66       1.0  0.97700  0.79190  0.76910  1.0000 -0.201239677
C   C67       1.0  0.47700  0.70810  0.76910  1.0000 -0.201239677
C   C68       1.0  0.02300  0.20810  0.23090  1.0000 -0.201239677
C   C69       1.0  0.47560  0.26299  0.33010  1.0000 0.5667818488
C   C70       1.0  0.02440  0.76299  0.66990  1.0000 0.5667818488
C   C71       1.0  0.52440  0.73701  0.66990  1.0000 0.5667818488
C   C72       1.0  0.97560  0.23701  0.33010  1.0000 0.5667818488
C   C73       1.0  0.97010  0.28387  0.78300  1.0000 -0.1643692999
C   C74       1.0  0.52990  0.78387  0.21700  1.0000 -0.1643692999
C   C75       1.0  0.02990  0.71613  0.21700  1.0000 -0.1643692999
C   C76       1.0  0.47010  0.21613  0.78300  1.0000 -0.1643692999
C   C77       1.0  0.01940  0.25764  0.67670  1.0000 0.5753394516
C   C78       1.0  0.48060  0.75764  0.32330  1.0000 0.5753394516
C   C79       1.0  0.98060  0.74236  0.32330  1.0000 0.5753394516
C   C80       1.0  0.51940  0.24236  0.67670  1.0000 0.5753394516
N   N1        1.0  0.75450  0.33551  0.50140  1.0000 -0.2694551869
N   N2        1.0  0.74550  0.83551  0.49860  1.0000 -0.2694551869
N   N3        1.0  0.24550  0.66449  0.49860  1.0000 -0.2694551869
N   N4        1.0  0.25450  0.16449  0.50140  1.0000 -0.2694551869
N   N5        1.0  0.74200  0.63999  0.50601  1.0000 -0.2211146056
N   N6        1.0  0.75800  0.13999  0.49399  1.0000 -0.2211146056
N   N7        1.0  0.25800  0.36001  0.49399  1.0000 -0.2211146056
N   N8        1.0  0.24200  0.86001  0.50601  1.0000 -0.2211146056
O   O1        1.0  0.43087  0.31895  0.15001  1.0000 -0.1217323242
O   O2        1.0  0.06913  0.81895  0.84999  1.0000 -0.1217323242
O   O3        1.0  0.56913  0.68105  0.84999  1.0000 -0.1217323242
O   O4        1.0  0.93087  0.18105  0.15001  1.0000 -0.1217323242
O   O5        1.0  0.55587  0.23035  0.38441  1.0000 -0.5337866394
O   O6        1.0  0.94413  0.73035  0.61559  1.0000 -0.5337866394
O   O7        1.0  0.44413  0.76965  0.61559  1.0000 -0.5337866394
O   O8        1.0  0.05587  0.26965  0.38441  1.0000 -0.5337866394
O   O9        1.0  0.34748  0.26532  0.34304  1.0000 -0.5476207583
O   O10       1.0  0.15252  0.76532  0.65696  1.0000 -0.5476207583
O   O11       1.0  0.65252  0.73468  0.65696  1.0000 -0.5476207583
O   O12       1.0  0.84748  0.23468  0.34304  1.0000 -0.5476207583
O   O13       1.0  0.05990  0.31163  0.86206  1.0000 -0.1088444515
O   O14       1.0  0.44010  0.81163  0.13794  1.0000 -0.1088444515
O   O15       1.0  0.94010  0.68837  0.13794  1.0000 -0.1088444515
O   O16       1.0  0.55990  0.18837  0.86206  1.0000 -0.1088444515
O   O17       1.0  0.12699  0.27599  0.65131  1.0000 -0.5058846472
O   O18       1.0  0.37301  0.77599  0.34869  1.0000 -0.5058846472
O   O19       1.0  0.87301  0.72401  0.34869  1.0000 -0.5058846472
O   O20       1.0  0.62699  0.22401  0.65131  1.0000 -0.5058846472
O   O21       1.0  0.93670  0.22709  0.60716  1.0000 -0.5844346731
O   O22       1.0  0.56330  0.72709  0.39284  1.0000 -0.5844346731
O   O23       1.0  0.06330  0.77291  0.39284  1.0000 -0.5844346731
O   O24       1.0  0.43670  0.27291  0.60716  1.0000 -0.5844346731
