# DDEC6 charges by PACMAN v1.1 (https://github.com/mtap-research/PACMAN-charge/)
data_2006[V][nan]3[ASR]3
_chemical_formula_sum              "V12 P16 H32 C16 O48"
_cell_length_a       10.1019
_cell_length_b       13.3361
_cell_length_c       16.3248
_cell_angle_alpha    90
_cell_angle_beta     90.006
_cell_angle_gamma    90

_symmetry_space_group_name_H-M    "P 1"
_symmetry_Int_Tables_number       1

loop_
  _symmetry_equiv_pos_as_xyz
  'x, y, z'

loop_
  _atom_site_type_symbol
  _atom_site_label
  _atom_site_symmetry_multiplicity
  _atom_site_fract_x
  _atom_site_fract_y
  _atom_site_fract_z
  _atom_site_occupancy
  _atom_site_charge
V   V1        1.0  0.75232  0.54667  0.02370  1.0000 1.6381597264
V   V2        1.0  0.74768  0.04667  0.97630  1.0000 1.6381597264
V   V3        1.0  0.24768  0.45333  0.97630  1.0000 1.6381597264
V   V4        1.0  0.25232  0.95333  0.02370  1.0000 1.6381597264
V   V5        1.0  0.46353  0.24997  0.25003  1.0000 1.6696228839
V   V6        1.0  0.03647  0.74997  0.74997  1.0000 1.6768832463
V   V7        1.0  0.53647  0.75003  0.74997  1.0000 1.6696228839
V   V8        1.0  0.96353  0.25003  0.25003  1.0000 1.6696228839
V   V9        1.0  0.25232  0.54669  0.47634  1.0000 1.6381597264
V   V10       1.0  0.24768  0.04669  0.52366  1.0000 1.6381597264
V   V11       1.0  0.74768  0.45331  0.52366  1.0000 1.6381597264
V   V12       1.0  0.75232  0.95331  0.47634  1.0000 1.6325508612
P   P1        1.0  0.50241  0.39478  0.08665  1.0000 1.4079346038
P   P2        1.0  0.99759  0.89478  0.91335  1.0000 1.4079346038
P   P3        1.0  0.49759  0.60522  0.91335  1.0000 1.4079346038
P   P4        1.0  0.00241  0.10522  0.08665  1.0000 1.4079346038
P   P5        1.0  0.48508  0.10619  0.08569  1.0000 1.4079346038
P   P6        1.0  0.01492  0.60619  0.91431  1.0000 1.4079346038
P   P7        1.0  0.51492  0.89381  0.91431  1.0000 1.4079346038
P   P8        1.0  0.98508  0.39381  0.08569  1.0000 1.404959585
P   P9        1.0  0.48501  0.39385  0.41433  1.0000 1.4079346038
P   P10       1.0  0.01499  0.89385  0.58567  1.0000 1.4079346038
P   P11       1.0  0.51499  0.60615  0.58567  1.0000 1.4079346038
P   P12       1.0  0.98501  0.10615  0.41433  1.0000 1.4079346038
P   P13       1.0  0.50240  0.10517  0.41335  1.0000 1.4079346038
P   P14       1.0  0.99760  0.60517  0.58665  1.0000 1.4079346038
P   P15       1.0  0.49760  0.89483  0.58665  1.0000 1.4079346038
P   P16       1.0  0.00240  0.39483  0.41335  1.0000 1.4079346038
H   H1        1.0  0.53830  0.32550  0.95980  1.0000 0.1471042498
H   H2        1.0  0.96170  0.82550  0.04020  1.0000 0.1471042498
H   H3        1.0  0.46170  0.67450  0.04020  1.0000 0.1471042498
H   H4        1.0  0.03830  0.17450  0.95980  1.0000 0.1471042498
H   H5        1.0  0.62850  0.27320  0.02480  1.0000 0.1253319738
H   H6        1.0  0.87150  0.77320  0.97520  1.0000 0.1196602258
H   H7        1.0  0.37150  0.72680  0.97520  1.0000 0.1253319738
H   H8        1.0  0.12850  0.22680  0.02480  1.0000 0.1253319738
H   H9        1.0  0.44400  0.17740  0.96030  1.0000 0.1471042498
H   H10       1.0  0.05600  0.67740  0.03970  1.0000 0.1471042498
H   H11       1.0  0.55600  0.82260  0.03970  1.0000 0.1471042498
H   H12       1.0  0.94400  0.32260  0.96030  1.0000 0.1471042498
H   H13       1.0  0.35720  0.22910  0.02730  1.0000 0.1196602258
H   H14       1.0  0.14280  0.72910  0.97270  1.0000 0.1196602258
H   H15       1.0  0.64280  0.77090  0.97270  1.0000 0.1196602258
H   H16       1.0  0.85720  0.27090  0.02730  1.0000 0.1196602258
H   H17       1.0  0.44370  0.32270  0.53970  1.0000 0.1471042498
H   H18       1.0  0.05630  0.82270  0.46030  1.0000 0.1471042498
H   H19       1.0  0.55630  0.67730  0.46030  1.0000 0.1471042498
H   H20       1.0  0.94370  0.17730  0.53970  1.0000 0.1471042498
H   H21       1.0  0.35710  0.27090  0.47260  1.0000 0.1196602258
H   H22       1.0  0.14290  0.77090  0.52740  1.0000 0.1196602258
H   H23       1.0  0.64290  0.72910  0.52740  1.0000 0.1196602258
H   H24       1.0  0.85710  0.22910  0.47260  1.0000 0.1196602258
H   H25       1.0  0.62850  0.22680  0.47520  1.0000 0.1253319738
H   H26       1.0  0.87150  0.72680  0.52480  1.0000 0.1196602258
H   H27       1.0  0.37150  0.77320  0.52480  1.0000 0.1253319738
H   H28       1.0  0.12850  0.27320  0.47520  1.0000 0.1253319738
H   H29       1.0  0.53820  0.17460  0.54020  1.0000 0.1471042498
H   H30       1.0  0.96180  0.67460  0.45980  1.0000 0.1471042498
H   H31       1.0  0.46180  0.82540  0.45980  1.0000 0.1471042498
H   H32       1.0  0.03820  0.32540  0.54020  1.0000 0.1471042498
C   C1        1.0  0.53930  0.29675  0.01441  1.0000 -0.4468973992
C   C2        1.0  0.96070  0.79675  0.98559  1.0000 -0.4468973992
C   C3        1.0  0.46070  0.70325  0.98559  1.0000 -0.4468973992
C   C4        1.0  0.03930  0.20325  0.01441  1.0000 -0.4468973992
C   C5        1.0  0.44580  0.20551  0.01507  1.0000 -0.4620922324
C   C6        1.0  0.05420  0.70551  0.98493  1.0000 -0.4620922324
C   C7        1.0  0.55420  0.79449  0.98493  1.0000 -0.4620922324
C   C8        1.0  0.94580  0.29449  0.01507  1.0000 -0.4620922324
C   C9        1.0  0.44570  0.29457  0.48488  1.0000 -0.4620922324
C   C10       1.0  0.05430  0.79457  0.51512  1.0000 -0.4620922324
C   C11       1.0  0.55430  0.70543  0.51512  1.0000 -0.4620922324
C   C12       1.0  0.94570  0.20543  0.48488  1.0000 -0.4620922324
C   C13       1.0  0.53920  0.20328  0.48564  1.0000 -0.4468973992
C   C14       1.0  0.96080  0.70328  0.51436  1.0000 -0.4468973992
C   C15       1.0  0.46080  0.79672  0.51436  1.0000 -0.4468973992
C   C16       1.0  0.03920  0.29672  0.48564  1.0000 -0.4468973992
O   O1        1.0  0.59890  0.47978  0.07158  1.0000 -0.8301125732
O   O2        1.0  0.90110  0.97978  0.92842  1.0000 -0.8301125732
O   O3        1.0  0.40110  0.52022  0.92842  1.0000 -0.8301125732
O   O4        1.0  0.09890  0.02022  0.07158  1.0000 -0.8301125732
O   O5        1.0  0.35963  0.04260  0.09529  1.0000 -0.8301125732
O   O6        1.0  0.14037  0.54260  0.90471  1.0000 -0.8301125732
O   O7        1.0  0.64037  0.95740  0.90471  1.0000 -0.8301125732
O   O8        1.0  0.85963  0.45740  0.09529  1.0000 -0.8301125732
O   O9        1.0  0.35831  0.42831  0.07517  1.0000 -0.8208022346
O   O10       1.0  0.14169  0.92831  0.92483  1.0000 -0.8208022346
O   O11       1.0  0.64169  0.57169  0.92483  1.0000 -0.8208022346
O   O12       1.0  0.85831  0.07169  0.07517  1.0000 -0.8208022346
O   O13       1.0  0.60114  0.04468  0.05471  1.0000 -0.8208022346
O   O14       1.0  0.89886  0.54468  0.94529  1.0000 -0.8208022346
O   O15       1.0  0.39886  0.95532  0.94529  1.0000 -0.8208022346
O   O16       1.0  0.10114  0.45532  0.05471  1.0000 -0.8208022346
O   O17       1.0  0.52107  0.15138  0.16850  1.0000 -0.8080810013
O   O18       1.0  0.97893  0.65138  0.83150  1.0000 -0.8080810013
O   O19       1.0  0.47893  0.84862  0.83150  1.0000 -0.8080810013
O   O20       1.0  0.02107  0.34862  0.16850  1.0000 -0.8038925869
O   O21       1.0  0.51813  0.14287  0.32556  1.0000 -0.8080810013
O   O22       1.0  0.98187  0.64287  0.67444  1.0000 -0.8080810013
O   O23       1.0  0.48187  0.85713  0.67444  1.0000 -0.8080810013
O   O24       1.0  0.01813  0.35713  0.32556  1.0000 -0.8080810013
O   O25       1.0  0.51799  0.35714  0.17440  1.0000 -0.8080810013
O   O26       1.0  0.98201  0.85714  0.82560  1.0000 -0.8080810013
O   O27       1.0  0.48201  0.64286  0.82560  1.0000 -0.8080810013
O   O28       1.0  0.01799  0.14286  0.17440  1.0000 -0.8080810013
O   O29       1.0  0.52097  0.34857  0.33146  1.0000 -0.8080810013
O   O30       1.0  0.97903  0.84857  0.66854  1.0000 -0.8080810013
O   O31       1.0  0.47903  0.65143  0.66854  1.0000 -0.8080810013
O   O32       1.0  0.02097  0.15143  0.33146  1.0000 -0.8080810013
O   O33       1.0  0.35958  0.45765  0.40478  1.0000 -0.8301125732
O   O34       1.0  0.14042  0.95765  0.59522  1.0000 -0.8301125732
O   O35       1.0  0.64042  0.54235  0.59522  1.0000 -0.8301125732
O   O36       1.0  0.85958  0.04235  0.40478  1.0000 -0.8301125732
O   O37       1.0  0.59880  0.02006  0.42832  1.0000 -0.8301125732
O   O38       1.0  0.90120  0.52006  0.57168  1.0000 -0.8301125732
O   O39       1.0  0.40120  0.97994  0.57168  1.0000 -0.8301125732
O   O40       1.0  0.09880  0.47994  0.42832  1.0000 -0.8301125732
O   O41       1.0  0.60124  0.45531  0.44518  1.0000 -0.8208022346
O   O42       1.0  0.89876  0.95531  0.55482  1.0000 -0.8208022346
O   O43       1.0  0.39876  0.54469  0.55482  1.0000 -0.8208022346
O   O44       1.0  0.10124  0.04469  0.44518  1.0000 -0.8208022346
O   O45       1.0  0.35820  0.07157  0.42481  1.0000 -0.8208022346
O   O46       1.0  0.14180  0.57157  0.57519  1.0000 -0.8208022346
O   O47       1.0  0.64180  0.92843  0.57519  1.0000 -0.8208022346
O   O48       1.0  0.85820  0.42843  0.42481  1.0000 -0.8208022346
