# DDEC6 charges by PACMAN v1.1 (https://github.com/mtap-research/PACMAN-charge/)
data_2007[Fe][dia]3[ASR]20
_chemical_formula_sum              "Fe12 H24 C24 O48"
_cell_length_a       11.4443
_cell_length_b       9.9369
_cell_length_c       18.4853
_cell_angle_alpha    90
_cell_angle_beta     126.761
_cell_angle_gamma    90

_symmetry_space_group_name_H-M    "P 1"
_symmetry_Int_Tables_number       1

loop_
  _symmetry_equiv_pos_as_xyz
  'x, y, z'

loop_
  _atom_site_type_symbol
  _atom_site_label
  _atom_site_symmetry_multiplicity
  _atom_site_fract_x
  _atom_site_fract_y
  _atom_site_fract_z
  _atom_site_occupancy
  _atom_site_charge
Fe  Fe1       1.0  0.62343  0.92445  0.86706  1.0000 0.9015861907
Fe  Fe2       1.0  0.37657  0.42445  0.63294  1.0000 0.9015861907
Fe  Fe3       1.0  0.37657  0.07555  0.13294  1.0000 0.9015861907
Fe  Fe4       1.0  0.62343  0.57555  0.36706  1.0000 0.9015861907
Fe  Fe5       1.0  0.56795  0.61530  0.80799  1.0000 0.9070491501
Fe  Fe6       1.0  0.43205  0.11530  0.69201  1.0000 0.9070491501
Fe  Fe7       1.0  0.43205  0.38470  0.19201  1.0000 0.9070491501
Fe  Fe8       1.0  0.56795  0.88470  0.30799  1.0000 0.9070491501
Fe  Fe9       1.0  0.50000  0.00000  0.00000  1.0000 0.942223207
Fe  Fe10      1.0  0.50000  0.50000  0.50000  1.0000 0.942223207
Fe  Fe11      1.0  0.00000  0.00000  0.00000  1.0000 0.9578865924
Fe  Fe12      1.0  1.00000  0.50000  0.50000  1.0000 0.9578865924
H   H1        1.0  0.48480  0.76330  0.63060  1.0000 0.1118253666
H   H2        1.0  0.51520  0.26330  0.86940  1.0000 0.1118253666
H   H3        1.0  0.51520  0.23670  0.36940  1.0000 0.1118253666
H   H4        1.0  0.48480  0.73670  0.13060  1.0000 0.1118253666
H   H5        1.0  0.21640  0.04710  0.73920  1.0000 0.1199747273
H   H6        1.0  0.78360  0.54710  0.76080  1.0000 0.1118253666
H   H7        1.0  0.78360  0.95290  0.26080  1.0000 0.1118253666
H   H8        1.0  0.21640  0.45290  0.23920  1.0000 0.1118253666
H   H9        1.0  0.51010  0.62030  0.95380  1.0000 0.1118253666
H   H10       1.0  0.48990  0.12030  0.54620  1.0000 0.1118253666
H   H11       1.0  0.48990  0.37970  0.04620  1.0000 0.1118253666
H   H12       1.0  0.51010  0.87970  0.45380  1.0000 0.1118253666
H   H13       1.0  0.75340  0.20270  0.77460  1.0000 0.1118253666
H   H14       1.0  0.24660  0.70270  0.72540  1.0000 0.1118253666
H   H15       1.0  0.24660  0.79730  0.22540  1.0000 0.1118253666
H   H16       1.0  0.75340  0.29730  0.27460  1.0000 0.1118253666
H   H17       1.0  0.76880  0.15860  0.07230  1.0000 0.1118253666
H   H18       1.0  0.23120  0.65860  0.42770  1.0000 0.1118253666
H   H19       1.0  0.23120  0.84140  0.92770  1.0000 0.1118253666
H   H20       1.0  0.76880  0.34140  0.57230  1.0000 0.1118253666
H   H21       1.0  0.97710  0.70660  0.98050  1.0000 0.1199747273
H   H22       1.0  0.02290  0.20660  0.51950  1.0000 0.1199747273
H   H23       1.0  0.02290  0.29340  0.01950  1.0000 0.1199747273
H   H24       1.0  0.97710  0.79340  0.48050  1.0000 0.1199747273
C   C1        1.0  0.49220  0.83360  0.66800  1.0000 0.438437252
C   C2        1.0  0.50780  0.33360  0.83200  1.0000 0.438437252
C   C3        1.0  0.50780  0.16640  0.33200  1.0000 0.438437252
C   C4        1.0  0.49220  0.66640  0.16800  1.0000 0.438437252
C   C5        1.0  0.30950  0.02320  0.79221  1.0000 0.438437252
C   C6        1.0  0.69050  0.52320  0.70779  1.0000 0.4300962247
C   C7        1.0  0.69050  0.97680  0.20779  1.0000 0.438437252
C   C8        1.0  0.30950  0.47680  0.29221  1.0000 0.438437252
C   C9        1.0  0.52310  0.71330  0.94855  1.0000 0.4300962247
C   C10       1.0  0.47690  0.21330  0.55145  1.0000 0.4300962247
C   C11       1.0  0.47690  0.28670  0.05145  1.0000 0.4300962247
C   C12       1.0  0.52310  0.78670  0.44855  1.0000 0.4300962247
C   C13       1.0  0.76950  0.13940  0.81824  1.0000 0.4300962247
C   C14       1.0  0.23050  0.63940  0.68176  1.0000 0.4300962247
C   C15       1.0  0.23050  0.86060  0.18176  1.0000 0.4300962247
C   C16       1.0  0.76950  0.36060  0.31824  1.0000 0.4300962247
C   C17       1.0  0.77540  0.10220  0.03332  1.0000 0.466489517
C   C18       1.0  0.22460  0.60220  0.46668  1.0000 0.466489517
C   C19       1.0  0.22460  0.89780  0.96668  1.0000 0.466489517
C   C20       1.0  0.77540  0.39780  0.53332  1.0000 0.466489517
C   C21       1.0  0.87530  0.72410  0.94070  1.0000 0.466489517
C   C22       1.0  0.12470  0.22410  0.55930  1.0000 0.466489517
C   C23       1.0  0.12470  0.27590  0.05930  1.0000 0.466489517
C   C24       1.0  0.87530  0.77590  0.44070  1.0000 0.466489517
O   O1        1.0  0.55696  0.80588  0.75103  1.0000 -0.539077153
O   O2        1.0  0.44304  0.30588  0.74897  1.0000 -0.539077153
O   O3        1.0  0.44304  0.19412  0.24897  1.0000 -0.539077153
O   O4        1.0  0.55696  0.69412  0.25103  1.0000 -0.539077153
O   O5        1.0  0.56212  0.44335  0.86873  1.0000 -0.4690517874
O   O6        1.0  0.43788  0.94335  0.63127  1.0000 -0.4690517874
O   O7        1.0  0.43788  0.55665  0.13127  1.0000 -0.4690517874
O   O8        1.0  0.56212  0.05665  0.36873  1.0000 -0.4690517874
O   O9        1.0  0.41303  0.01239  0.78518  1.0000 -0.539077153
O   O10       1.0  0.58697  0.51239  0.71482  1.0000 -0.539077153
O   O11       1.0  0.58697  0.98761  0.21482  1.0000 -0.539077153
O   O12       1.0  0.41303  0.48761  0.28518  1.0000 -0.539077153
O   O13       1.0  0.31856  0.00550  0.86113  1.0000 -0.4690517874
O   O14       1.0  0.68144  0.50550  0.63887  1.0000 -0.4690517874
O   O15       1.0  0.68144  0.99450  0.13887  1.0000 -0.4690517874
O   O16       1.0  0.31856  0.49450  0.36113  1.0000 -0.4690517874
O   O17       1.0  0.54571  0.74535  0.89129  1.0000 -0.539077153
O   O18       1.0  0.45429  0.24535  0.60871  1.0000 -0.539077153
O   O19       1.0  0.45429  0.25465  0.10871  1.0000 -0.539077153
O   O20       1.0  0.54571  0.75465  0.39129  1.0000 -0.539077153
O   O21       1.0  0.51632  0.79126  0.99815  1.0000 -0.4880331076
O   O22       1.0  0.48368  0.29126  0.50185  1.0000 -0.4880331076
O   O23       1.0  0.48368  0.20874  0.00185  1.0000 -0.4880331076
O   O24       1.0  0.51632  0.70874  0.49815  1.0000 -0.4880331076
O   O25       1.0  0.65670  0.08722  0.80530  1.0000 -0.539077153
O   O26       1.0  0.34330  0.58722  0.69470  1.0000 -0.539077153
O   O27       1.0  0.34330  0.91278  0.19470  1.0000 -0.539077153
O   O28       1.0  0.65670  0.41278  0.30530  1.0000 -0.539077153
O   O29       1.0  0.89710  0.11601  0.88158  1.0000 -0.4690517874
O   O30       1.0  0.10290  0.61601  0.61842  1.0000 -0.4690517874
O   O31       1.0  0.10290  0.88399  0.11842  1.0000 -0.4690517874
O   O32       1.0  0.89710  0.38399  0.38158  1.0000 -0.4690517874
O   O33       1.0  0.66429  0.02794  0.97756  1.0000 -0.5562820427
O   O34       1.0  0.33571  0.52794  0.52244  1.0000 -0.5562820427
O   O35       1.0  0.33571  0.97206  0.02244  1.0000 -0.5562820427
O   O36       1.0  0.66429  0.47206  0.47756  1.0000 -0.5562820427
O   O37       1.0  0.88927  0.10659  0.04051  1.0000 -0.4804667971
O   O38       1.0  0.11073  0.60659  0.45949  1.0000 -0.4804667971
O   O39       1.0  0.11073  0.89341  0.95949  1.0000 -0.4804667971
O   O40       1.0  0.88927  0.39341  0.54051  1.0000 -0.4804667971
O   O41       1.0  0.83528  0.84623  0.93520  1.0000 -0.539077153
O   O42       1.0  0.16472  0.34623  0.56480  1.0000 -0.539077153
O   O43       1.0  0.16472  0.15377  0.06480  1.0000 -0.539077153
O   O44       1.0  0.83528  0.65377  0.43520  1.0000 -0.539077153
O   O45       1.0  0.79494  0.62681  0.89945  1.0000 -0.4804667971
O   O46       1.0  0.20506  0.12681  0.60055  1.0000 -0.4804667971
O   O47       1.0  0.20506  0.37319  0.10055  1.0000 -0.4804667971
O   O48       1.0  0.79494  0.87319  0.39945  1.0000 -0.4804667971
