# DDEC6 charges by PACMAN v1.1 (https://github.com/mtap-research/PACMAN-charge/)
data_2007[Mn][dia]3[ASR]3
_chemical_formula_sum              "Mn12 H24 C24 O48"
_cell_length_a       11.7843
_cell_length_b       10.1979
_cell_length_c       14.9199
_cell_angle_alpha    90
_cell_angle_beta     91.8003
_cell_angle_gamma    90

_symmetry_space_group_name_H-M    "P 1"
_symmetry_Int_Tables_number       1

loop_
  _symmetry_equiv_pos_as_xyz
  'x, y, z'

loop_
  _atom_site_type_symbol
  _atom_site_label
  _atom_site_symmetry_multiplicity
  _atom_site_fract_x
  _atom_site_fract_y
  _atom_site_fract_z
  _atom_site_occupancy
  _atom_site_charge
Mn  Mn1       1.0  0.98981  0.06705  0.56268  1.0000 0.9735809787
Mn  Mn2       1.0  0.01019  0.56705  0.43732  1.0000 0.9735809787
Mn  Mn3       1.0  0.99027  0.37918  0.61891  1.0000 0.9785011633
Mn  Mn4       1.0  0.00973  0.87918  0.38109  1.0000 0.9785011633
Mn  Mn5       1.0  0.74474  0.45842  0.74780  1.0000 1.0094196423
Mn  Mn6       1.0  0.25526  0.95842  0.25220  1.0000 1.0094196423
Mn  Mn7       1.0  0.50345  0.54315  0.88127  1.0000 0.9785011633
Mn  Mn8       1.0  0.49655  0.04315  0.11873  1.0000 0.9785011633
Mn  Mn9       1.0  0.51266  0.85640  0.93548  1.0000 0.9860340579
Mn  Mn10      1.0  0.48734  0.35640  0.06452  1.0000 0.9860340579
Mn  Mn11      1.0  0.24499  0.46042  0.75237  1.0000 0.9969881995
Mn  Mn12      1.0  0.75501  0.96042  0.24763  1.0000 0.9969881995
H   H1        1.0  0.90280  0.21700  0.38040  1.0000 0.1089720631
H   H2        1.0  0.09720  0.71700  0.61960  1.0000 0.1089720631
H   H3        1.0  0.18110  0.08170  0.71100  1.0000 0.0930707762
H   H4        1.0  0.81890  0.58170  0.28900  1.0000 0.0930707762
H   H5        1.0  0.73400  0.00620  0.50770  1.0000 0.0930707762
H   H6        1.0  0.26600  0.50620  0.49230  1.0000 0.0930707762
H   H7        1.0  0.74540  0.16400  0.72170  1.0000 0.1089720631
H   H8        1.0  0.25460  0.66400  0.27830  1.0000 0.1089720631
H   H9        1.0  0.04690  0.60760  0.82670  1.0000 0.0930707762
H   H10       1.0  0.95310  0.10760  0.17330  1.0000 0.0930707762
H   H11       1.0  0.21380  0.16950  0.47190  1.0000 0.1000294179
H   H12       1.0  0.78620  0.66950  0.52810  1.0000 0.0930707762
H   H13       1.0  0.75070  0.74530  0.77470  1.0000 0.1000294179
H   H14       1.0  0.24930  0.24530  0.22530  1.0000 0.1000294179
H   H15       1.0  0.44190  0.30420  0.67840  1.0000 0.1000294179
H   H16       1.0  0.55810  0.80420  0.32160  1.0000 0.1000294179
H   H17       1.0  0.70360  0.25170  0.96860  1.0000 0.1089720631
H   H18       1.0  0.29640  0.75170  0.03140  1.0000 0.1089720631
H   H19       1.0  0.60310  0.70680  0.11440  1.0000 0.1000294179
H   H20       1.0  0.39690  0.20680  0.88560  1.0000 0.1000294179
H   H21       1.0  0.30690  0.83510  0.78910  1.0000 0.1089720631
H   H22       1.0  0.69310  0.33510  0.21090  1.0000 0.1089720631
H   H23       1.0  0.22930  0.43400  0.01430  1.0000 0.1000294179
H   H24       1.0  0.77070  0.93400  0.98570  1.0000 0.1000294179
C   C1        1.0  0.92790  0.28550  0.41710  1.0000 0.4683322309
C   C2        1.0  0.07210  0.78550  0.58290  1.0000 0.4683322309
C   C3        1.0  0.16670  0.17060  0.70290  1.0000 0.4683322309
C   C4        1.0  0.83330  0.67060  0.29710  1.0000 0.4683322309
C   C5        1.0  0.77280  0.98080  0.45720  1.0000 0.4609483852
C   C6        1.0  0.22720  0.48080  0.54280  1.0000 0.4609483852
C   C7        1.0  0.80860  0.18090  0.68780  1.0000 0.4808995387
C   C8        1.0  0.19140  0.68090  0.31220  1.0000 0.4808995387
C   C9        1.0  0.00510  0.55380  0.78760  1.0000 0.4808995387
C   C10       1.0  0.99490  0.05380  0.21240  1.0000 0.4808995387
C   C11       1.0  0.19360  0.10100  0.43350  1.0000 0.4609483852
C   C12       1.0  0.80640  0.60100  0.56650  1.0000 0.4609483852
C   C13       1.0  0.68690  0.73200  0.80870  1.0000 0.4877876862
C   C14       1.0  0.31310  0.23200  0.19130  1.0000 0.4877876862
C   C15       1.0  0.48560  0.36020  0.71460  1.0000 0.4808995387
C   C16       1.0  0.51440  0.86020  0.28540  1.0000 0.4808995387
C   C17       1.0  0.68380  0.31800  0.92840  1.0000 0.4609483852
C   C18       1.0  0.31620  0.81800  0.07160  1.0000 0.4609483852
C   C19       1.0  0.57450  0.63830  0.07930  1.0000 0.4808995387
C   C20       1.0  0.42550  0.13830  0.92070  1.0000 0.4808995387
C   C21       1.0  0.32330  0.74690  0.79870  1.0000 0.4509881063
C   C22       1.0  0.67670  0.24690  0.20130  1.0000 0.4509881063
C   C23       1.0  0.26740  0.44980  0.96170  1.0000 0.4609483852
C   C24       1.0  0.73260  0.94980  0.03830  1.0000 0.4609483852
O   O1        1.0  0.94620  0.25770  0.50000  1.0000 -0.5686554314
O   O2        1.0  0.05380  0.75770  0.50000  1.0000 -0.5686554314
O   O3        1.0  0.93960  0.39060  0.38120  1.0000 -0.4700305463
O   O4        1.0  0.06040  0.89060  0.61880  1.0000 -0.4700305463
O   O5        1.0  0.09250  0.20280  0.64480  1.0000 -0.5607831703
O   O6        1.0  0.90750  0.70280  0.35520  1.0000 -0.5607831703
O   O7        1.0  0.22320  0.25140  0.75120  1.0000 -0.5261371807
O   O8        1.0  0.77680  0.75140  0.24880  1.0000 -0.5261371807
O   O9        1.0  0.88040  0.96810  0.46510  1.0000 -0.5686554314
O   O10       1.0  0.11960  0.46810  0.53490  1.0000 -0.5686554314
O   O11       1.0  0.71640  0.96150  0.38670  1.0000 -0.5073012189
O   O12       1.0  0.28360  0.46150  0.61330  1.0000 -0.5073012189
O   O13       1.0  0.85290  0.08700  0.65130  1.0000 -0.5012965427
O   O14       1.0  0.14710  0.58700  0.34870  1.0000 -0.5012965427
O   O15       1.0  0.84220  0.30120  0.68330  1.0000 -0.5607831703
O   O16       1.0  0.15780  0.80120  0.31670  1.0000 -0.5607831703
O   O17       1.0  0.05920  0.48540  0.73170  1.0000 -0.5607831703
O   O18       1.0  0.94080  0.98540  0.26830  1.0000 -0.5607831703
O   O19       1.0  0.89870  0.55340  0.79350  1.0000 -0.5261371807
O   O20       1.0  0.10130  0.05340  0.20650  1.0000 -0.5261371807
O   O21       1.0  0.10150  0.04140  0.44740  1.0000 -0.5607831703
O   O22       1.0  0.89850  0.54140  0.55260  1.0000 -0.5607831703
O   O23       1.0  0.25980  0.07410  0.37160  1.0000 -0.5073012189
O   O24       1.0  0.74020  0.57410  0.62840  1.0000 -0.5073012189
O   O25       1.0  0.64960  0.61710  0.81210  1.0000 -0.5428013579
O   O26       1.0  0.35040  0.11710  0.18790  1.0000 -0.5428013579
O   O27       1.0  0.64730  0.83050  0.84630  1.0000 -0.5184474812
O   O28       1.0  0.35270  0.33050  0.15370  1.0000 -0.5184474812
O   O29       1.0  0.58720  0.36110  0.70280  1.0000 -0.4900233225
O   O30       1.0  0.41280  0.86110  0.29720  1.0000 -0.4900233225
O   O31       1.0  0.43250  0.42880  0.77220  1.0000 -0.5686554314
O   O32       1.0  0.56750  0.92880  0.22780  1.0000 -0.5686554314
O   O33       1.0  0.74730  0.33410  0.86560  1.0000 -0.4900233225
O   O34       1.0  0.25270  0.83410  0.13440  1.0000 -0.4900233225
O   O35       1.0  0.59430  0.38160  0.94450  1.0000 -0.5607831703
O   O36       1.0  0.40570  0.88160  0.05550  1.0000 -0.5607831703
O   O37       1.0  0.55400  0.66130  0.99700  1.0000 -0.5607831703
O   O38       1.0  0.44600  0.16130  0.00300  1.0000 -0.5607831703
O   O39       1.0  0.55910  0.52860  0.11770  1.0000 -0.5184474812
O   O40       1.0  0.44090  0.02860  0.88230  1.0000 -0.5184474812
O   O41       1.0  0.40480  0.72230  0.85720  1.0000 -0.5803040342
O   O42       1.0  0.59520  0.22230  0.14280  1.0000 -0.5803040342
O   O43       1.0  0.26730  0.67130  0.75600  1.0000 -0.4700305463
O   O44       1.0  0.73270  0.17130  0.24400  1.0000 -0.4700305463
O   O45       1.0  0.37580  0.45840  0.96890  1.0000 -0.5686554314
O   O46       1.0  0.62420  0.95840  0.03110  1.0000 -0.5686554314
O   O47       1.0  0.20870  0.46010  0.89310  1.0000 -0.4900233225
O   O48       1.0  0.79130  0.96010  0.10690  1.0000 -0.4900233225
