# DDEC6 charges by PACMAN v1.1 (https://github.com/mtap-research/PACMAN-charge/)
data_2007[Fe][dia]3[ASR]7
_chemical_formula_sum              "Fe12 H24 C24 O48"
_cell_length_a       11.4488
_cell_length_b       10.0224
_cell_length_c       18.872
_cell_angle_alpha    90
_cell_angle_beta     126.483
_cell_angle_gamma    90

_symmetry_space_group_name_H-M    "P 1"
_symmetry_Int_Tables_number       1

loop_
  _symmetry_equiv_pos_as_xyz
  'x, y, z'

loop_
  _atom_site_type_symbol
  _atom_site_label
  _atom_site_symmetry_multiplicity
  _atom_site_fract_x
  _atom_site_fract_y
  _atom_site_fract_z
  _atom_site_occupancy
  _atom_site_charge
Fe  Fe1       1.0  0.61990  0.92630  0.86558  1.0000 0.9112031798
Fe  Fe2       1.0  0.38010  0.42630  0.63442  1.0000 0.9112031798
Fe  Fe3       1.0  0.38010  0.07370  0.13442  1.0000 0.9112031798
Fe  Fe4       1.0  0.61990  0.57370  0.36558  1.0000 0.9112031798
Fe  Fe5       1.0  0.56287  0.87877  0.30326  1.0000 0.9180410693
Fe  Fe6       1.0  0.43713  0.37877  0.19674  1.0000 0.9180410693
Fe  Fe7       1.0  0.43713  0.12123  0.69674  1.0000 0.9180410693
Fe  Fe8       1.0  0.56287  0.62123  0.80326  1.0000 0.9180410693
Fe  Fe9       1.0  0.50000  0.00000  0.00000  1.0000 0.9499269466
Fe  Fe10      1.0  0.50000  0.50000  0.50000  1.0000 0.9499269466
Fe  Fe11      1.0  0.00000  0.00000  0.00000  1.0000 0.9764776568
Fe  Fe12      1.0  1.00000  0.50000  0.50000  1.0000 0.9749421815
H   H1        1.0  0.48500  0.77300  0.63160  1.0000 0.1103556578
H   H2        1.0  0.51500  0.27300  0.86840  1.0000 0.1103556578
H   H3        1.0  0.51500  0.22700  0.36840  1.0000 0.1103556578
H   H4        1.0  0.48500  0.72700  0.13160  1.0000 0.1103556578
H   H5        1.0  0.21900  0.05600  0.74290  1.0000 0.1103556578
H   H6        1.0  0.78100  0.55600  0.75710  1.0000 0.1103556578
H   H7        1.0  0.78100  0.94400  0.25710  1.0000 0.1103556578
H   H8        1.0  0.21900  0.44400  0.24290  1.0000 0.1103556578
H   H9        1.0  0.45900  0.62800  0.92450  1.0000 0.1103556578
H   H10       1.0  0.54100  0.12800  0.57550  1.0000 0.1103556578
H   H11       1.0  0.54100  0.37200  0.07550  1.0000 0.1103556578
H   H12       1.0  0.45900  0.87200  0.42450  1.0000 0.1103556578
H   H13       1.0  0.75800  0.23000  0.79330  1.0000 0.102880996
H   H14       1.0  0.24200  0.73000  0.70670  1.0000 0.102880996
H   H15       1.0  0.24200  0.77000  0.20670  1.0000 0.102880996
H   H16       1.0  0.75800  0.27000  0.29330  1.0000 0.102880996
H   H17       1.0  0.77900  0.12800  0.08340  1.0000 0.1103556578
H   H18       1.0  0.22100  0.62800  0.41660  1.0000 0.1103556578
H   H19       1.0  0.22100  0.87200  0.91660  1.0000 0.1103556578
H   H20       1.0  0.77900  0.37200  0.58340  1.0000 0.1103556578
H   H21       1.0  0.96900  0.71400  0.97340  1.0000 0.1289786364
H   H22       1.0  0.03100  0.21400  0.52660  1.0000 0.1289786364
H   H23       1.0  0.03100  0.28600  0.02660  1.0000 0.1289786364
H   H24       1.0  0.96900  0.78600  0.47340  1.0000 0.1289786364
C   C1        1.0  0.49660  0.84240  0.67049  1.0000 0.4468480239
C   C2        1.0  0.50340  0.34240  0.82951  1.0000 0.4468480239
C   C3        1.0  0.50340  0.15760  0.32951  1.0000 0.4468480239
C   C4        1.0  0.49660  0.65760  0.17049  1.0000 0.4468480239
C   C5        1.0  0.31440  0.03680  0.79584  1.0000 0.4411283399
C   C6        1.0  0.68560  0.53680  0.70416  1.0000 0.4411283399
C   C7        1.0  0.68560  0.96320  0.20416  1.0000 0.4411283399
C   C8        1.0  0.31440  0.46320  0.29584  1.0000 0.4411283399
C   C9        1.0  0.49200  0.71780  0.93024  1.0000 0.4468480239
C   C10       1.0  0.50800  0.21780  0.56976  1.0000 0.4468480239
C   C11       1.0  0.50800  0.28220  0.06976  1.0000 0.4468480239
C   C12       1.0  0.49200  0.78220  0.43024  1.0000 0.4468480239
C   C13       1.0  0.77020  0.15580  0.82970  1.0000 0.4343583773
C   C14       1.0  0.22980  0.65580  0.67030  1.0000 0.4343583773
C   C15       1.0  0.22980  0.84420  0.17030  1.0000 0.4343583773
C   C16       1.0  0.77020  0.34420  0.32970  1.0000 0.4343583773
C   C17       1.0  0.78000  0.08330  0.03858  1.0000 0.4662197372
C   C18       1.0  0.22000  0.58330  0.46142  1.0000 0.4662197372
C   C19       1.0  0.22000  0.91670  0.96142  1.0000 0.4662197372
C   C20       1.0  0.78000  0.41670  0.53858  1.0000 0.4662197372
C   C21       1.0  0.86930  0.72990  0.93429  1.0000 0.4662197372
C   C22       1.0  0.13070  0.22990  0.56571  1.0000 0.4644396047
C   C23       1.0  0.13070  0.27010  0.06571  1.0000 0.4662197372
C   C24       1.0  0.86930  0.77010  0.43429  1.0000 0.4644396047
O   O1        1.0  0.55834  0.81140  0.75097  1.0000 -0.5487475723
O   O2        1.0  0.44166  0.31140  0.74903  1.0000 -0.5487475723
O   O3        1.0  0.44166  0.18860  0.24903  1.0000 -0.5487475723
O   O4        1.0  0.55834  0.68860  0.25097  1.0000 -0.5487475723
O   O5        1.0  0.44798  0.95381  0.63695  1.0000 -0.4728521069
O   O6        1.0  0.55202  0.45381  0.86305  1.0000 -0.4728521069
O   O7        1.0  0.55202  0.04619  0.36305  1.0000 -0.4728521069
O   O8        1.0  0.44798  0.54619  0.13695  1.0000 -0.4728521069
O   O9        1.0  0.41328  0.01487  0.78552  1.0000 -0.5487475723
O   O10       1.0  0.58672  0.51487  0.71448  1.0000 -0.5487475723
O   O11       1.0  0.58672  0.98513  0.21448  1.0000 -0.5487475723
O   O12       1.0  0.41328  0.48513  0.28552  1.0000 -0.5487475723
O   O13       1.0  0.32828  0.02901  0.86551  1.0000 -0.4793136471
O   O14       1.0  0.67172  0.52901  0.63449  1.0000 -0.4793136471
O   O15       1.0  0.67172  0.97099  0.13449  1.0000 -0.4793136471
O   O16       1.0  0.32828  0.47099  0.36551  1.0000 -0.4793136471
O   O17       1.0  0.53120  0.74999  0.88140  1.0000 -0.5487475723
O   O18       1.0  0.46880  0.24999  0.61860  1.0000 -0.5487475723
O   O19       1.0  0.46880  0.25001  0.11860  1.0000 -0.5487475723
O   O20       1.0  0.53120  0.75001  0.38140  1.0000 -0.5487475723
O   O21       1.0  0.48753  0.79346  0.98021  1.0000 -0.4921335463
O   O22       1.0  0.51247  0.29346  0.51979  1.0000 -0.4921335463
O   O23       1.0  0.51247  0.20654  0.01979  1.0000 -0.4921335463
O   O24       1.0  0.48753  0.70654  0.48021  1.0000 -0.4921335463
O   O25       1.0  0.65718  0.09390  0.81044  1.0000 -0.5438055399
O   O26       1.0  0.34282  0.59390  0.68956  1.0000 -0.5438055399
O   O27       1.0  0.34282  0.90610  0.18956  1.0000 -0.5438055399
O   O28       1.0  0.65718  0.40610  0.31044  1.0000 -0.5438055399
O   O29       1.0  0.89694  0.13186  0.89186  1.0000 -0.4793136471
O   O30       1.0  0.10306  0.63186  0.60814  1.0000 -0.4793136471
O   O31       1.0  0.10306  0.86814  0.10814  1.0000 -0.4793136471
O   O32       1.0  0.89694  0.36814  0.39186  1.0000 -0.4793136471
O   O33       1.0  0.66557  0.01847  0.97921  1.0000 -0.5487475723
O   O34       1.0  0.33443  0.51847  0.52079  1.0000 -0.5487475723
O   O35       1.0  0.33443  0.98153  0.02079  1.0000 -0.5487475723
O   O36       1.0  0.66557  0.48153  0.47921  1.0000 -0.5487475723
O   O37       1.0  0.89390  0.09163  0.04544  1.0000 -0.4793136471
O   O38       1.0  0.10610  0.59163  0.45456  1.0000 -0.4793136471
O   O39       1.0  0.10610  0.90837  0.95456  1.0000 -0.4793136471
O   O40       1.0  0.89390  0.40837  0.54544  1.0000 -0.4793136471
O   O41       1.0  0.83056  0.85086  0.93065  1.0000 -0.5438055399
O   O42       1.0  0.16944  0.35086  0.56935  1.0000 -0.5438055399
O   O43       1.0  0.16944  0.14914  0.06935  1.0000 -0.5487475723
O   O44       1.0  0.83056  0.64914  0.43065  1.0000 -0.5438055399
O   O45       1.0  0.78850  0.63333  0.89433  1.0000 -0.4793136471
O   O46       1.0  0.21150  0.13333  0.60567  1.0000 -0.4793136471
O   O47       1.0  0.21150  0.36667  0.10567  1.0000 -0.4793136471
O   O48       1.0  0.78850  0.86667  0.39433  1.0000 -0.4793136471
