# DDEC6 charges by PACMAN v1.1 (https://github.com/mtap-research/PACMAN-charge/)
data_2007[Cd][dia]3[ASR]7
_chemical_formula_sum              "Cd2 H48 C72 N8 F16"
_cell_length_a       13.0442
_cell_length_b       13.0442
_cell_length_c       16.758
_cell_angle_alpha    70.2432
_cell_angle_beta     109.757
_cell_angle_gamma    86.6607

_symmetry_space_group_name_H-M    "P 1"
_symmetry_Int_Tables_number       1

loop_
  _symmetry_equiv_pos_as_xyz
  'x, y, z'

loop_
  _atom_site_type_symbol
  _atom_site_label
  _atom_site_symmetry_multiplicity
  _atom_site_fract_x
  _atom_site_fract_y
  _atom_site_fract_z
  _atom_site_occupancy
  _atom_site_charge
Cd  Cd1       1.0  0.87759  0.87760  0.25000  1.0000 0.5986544811
Cd  Cd2       1.0  0.12240  0.12241  0.75000  1.0000 0.5892486297
H   H1        1.0  0.82520  0.65120  0.21830  1.0000 0.0922379529
H   H2        1.0  0.65120  0.82520  0.28170  1.0000 0.0922379529
H   H3        1.0  0.17480  0.34880  0.78170  1.0000 0.0922379529
H   H4        1.0  0.34880  0.17480  0.71830  1.0000 0.0922379529
H   H5        1.0  0.70380  0.95800  0.03980  1.0000 0.0922379529
H   H6        1.0  0.95800  0.70380  0.46020  1.0000 0.0922379529
H   H7        1.0  0.29620  0.04200  0.96020  1.0000 0.0922379529
H   H8        1.0  0.04200  0.29620  0.53980  1.0000 0.0922379529
H   H9        1.0  0.73390  0.58130  0.10980  1.0000 0.138478302
H   H10       1.0  0.58130  0.73390  0.39020  1.0000 0.138478302
H   H11       1.0  0.26610  0.41870  0.89020  1.0000 0.138478302
H   H12       1.0  0.41870  0.26610  0.60980  1.0000 0.138478302
H   H13       1.0  0.60480  0.89700  0.92720  1.0000 0.1294508935
H   H14       1.0  0.89700  0.60480  0.57280  1.0000 0.1294508935
H   H15       1.0  0.39520  0.10300  0.07280  1.0000 0.1294508935
H   H16       1.0  0.10300  0.39520  0.42720  1.0000 0.1294508935
H   H17       1.0  0.64760  0.67200  0.90390  1.0000 0.1294508935
H   H18       1.0  0.67200  0.64760  0.59610  1.0000 0.1294508935
H   H19       1.0  0.35240  0.32800  0.09610  1.0000 0.1294508935
H   H20       1.0  0.32800  0.35240  0.40390  1.0000 0.1294508935
H   H21       1.0  0.53620  0.75360  0.88120  1.0000 0.1196749271
H   H22       1.0  0.75360  0.53620  0.61880  1.0000 0.1196749271
H   H23       1.0  0.46380  0.24640  0.11880  1.0000 0.1196749271
H   H24       1.0  0.24640  0.46380  0.38120  1.0000 0.1196749271
H   H25       1.0  0.13960  0.78320  0.38570  1.0000 0.0922379529
H   H26       1.0  0.78320  0.13960  0.11430  1.0000 0.0922379529
H   H27       1.0  0.86040  0.21680  0.61430  1.0000 0.0922379529
H   H28       1.0  0.21680  0.86040  0.88570  1.0000 0.0922379529
H   H29       1.0  0.94530  0.04150  0.36050  1.0000 0.0922379529
H   H30       1.0  0.04150  0.94530  0.13950  1.0000 0.0922379529
H   H31       1.0  0.05470  0.95850  0.63950  1.0000 0.0922379529
H   H32       1.0  0.95850  0.05470  0.86050  1.0000 0.0922379529
H   H33       1.0  0.29050  0.82010  0.48560  1.0000 0.138478302
H   H34       1.0  0.82010  0.29050  0.01440  1.0000 0.138478302
H   H35       1.0  0.70950  0.17990  0.51440  1.0000 0.138478302
H   H36       1.0  0.17990  0.70950  0.98560  1.0000 0.138478302
H   H37       1.0  0.09070  0.08510  0.45990  1.0000 0.1294508935
H   H38       1.0  0.08510  0.09070  0.04010  1.0000 0.1294508935
H   H39       1.0  0.90930  0.91490  0.54010  1.0000 0.1294508935
H   H40       1.0  0.91490  0.90930  0.95990  1.0000 0.1294508935
H   H41       1.0  0.32600  0.92440  0.61270  1.0000 0.1294508935
H   H42       1.0  0.92440  0.32600  0.88730  1.0000 0.1294508935
H   H43       1.0  0.67400  0.07560  0.38730  1.0000 0.1294508935
H   H44       1.0  0.07560  0.67400  0.11270  1.0000 0.1294508935
H   H45       1.0  0.28020  0.05440  0.55400  1.0000 0.1196749271
H   H46       1.0  0.05440  0.28020  0.94600  1.0000 0.1196749271
H   H47       1.0  0.71980  0.94560  0.44600  1.0000 0.1196749271
H   H48       1.0  0.94560  0.71980  0.05400  1.0000 0.1196749271
C   C1        1.0  0.78063  0.70191  0.15800  1.0000 0.051060136
C   C2        1.0  0.70191  0.78063  0.34200  1.0000 0.051060136
C   C3        1.0  0.21937  0.29809  0.84200  1.0000 0.051060136
C   C4        1.0  0.29809  0.21937  0.65800  1.0000 0.051060136
C   C5        1.0  0.70948  0.88038  0.05439  1.0000 0.0306641855
C   C6        1.0  0.88038  0.70948  0.44561  1.0000 0.0306641855
C   C7        1.0  0.29052  0.11962  0.94561  1.0000 0.0306641855
C   C8        1.0  0.11962  0.29052  0.55439  1.0000 0.0306641855
C   C9        1.0  0.72572  0.65930  0.09373  1.0000 -0.2074232376
C   C10       1.0  0.65930  0.72572  0.40627  1.0000 -0.2074232376
C   C11       1.0  0.27428  0.34070  0.90627  1.0000 -0.2074232376
C   C12       1.0  0.34070  0.27428  0.59373  1.0000 -0.2074232376
C   C13       1.0  0.65054  0.84456  0.98646  1.0000 -0.2195827099
C   C14       1.0  0.84456  0.65054  0.51354  1.0000 -0.2195827099
C   C15       1.0  0.34946  0.15544  0.01354  1.0000 -0.2195827099
C   C16       1.0  0.15544  0.34946  0.48646  1.0000 -0.2195827099
C   C17       1.0  0.65847  0.73161  0.00539  1.0000 0.1741543361
C   C18       1.0  0.73161  0.65847  0.49461  1.0000 0.1741543361
C   C19       1.0  0.34153  0.26839  0.99461  1.0000 0.1741543361
C   C20       1.0  0.26839  0.34153  0.50539  1.0000 0.1741543361
C   C21       1.0  0.59610  0.69210  0.93054  1.0000 -0.2887666873
C   C22       1.0  0.69210  0.59610  0.56946  1.0000 -0.2887666873
C   C23       1.0  0.40390  0.30790  0.06946  1.0000 -0.2887666873
C   C24       1.0  0.30790  0.40390  0.43054  1.0000 -0.2887666873
C   C25       1.0  0.54614  0.59334  0.96520  1.0000 -0.0700308415
C   C26       1.0  0.59334  0.54614  0.53480  1.0000 -0.0700308415
C   C27       1.0  0.45386  0.40666  0.03480  1.0000 -0.0700308415
C   C28       1.0  0.40666  0.45386  0.46520  1.0000 -0.0700308415
C   C29       1.0  0.44241  0.60535  0.97022  1.0000 0.1005936679
C   C30       1.0  0.60535  0.44241  0.52978  1.0000 0.1005936679
C   C31       1.0  0.55759  0.39465  0.02978  1.0000 0.1005936679
C   C32       1.0  0.39465  0.55759  0.47022  1.0000 0.1005936679
C   C33       1.0  0.39790  0.51492  0.00395  1.0000 0.0922379529
C   C34       1.0  0.51492  0.39790  0.49605  1.0000 0.0922379529
C   C35       1.0  0.60210  0.48508  0.99605  1.0000 0.0922379529
C   C36       1.0  0.48508  0.60210  0.50395  1.0000 0.0922379529
C   C37       1.0  0.12909  0.84625  0.40037  1.0000 0.0562580698
C   C38       1.0  0.84625  0.12909  0.09963  1.0000 0.0562580698
C   C39       1.0  0.87091  0.15375  0.59963  1.0000 0.0562580698
C   C40       1.0  0.15375  0.87091  0.90037  1.0000 0.0562580698
C   C41       1.0  0.01673  0.99561  0.38589  1.0000 0.0374889844
C   C42       1.0  0.99561  0.01673  0.11411  1.0000 0.0374889844
C   C43       1.0  0.98327  0.00439  0.61411  1.0000 0.0374889844
C   C44       1.0  0.00439  0.98327  0.88589  1.0000 0.0374889844
C   C45       1.0  0.22002  0.86768  0.46055  1.0000 -0.2006225302
C   C46       1.0  0.86768  0.22002  0.03945  1.0000 -0.2006225302
C   C47       1.0  0.77998  0.13232  0.53945  1.0000 -0.2006225302
C   C48       1.0  0.13232  0.77998  0.96055  1.0000 -0.2006225302
C   C49       1.0  0.10342  0.02230  0.44549  1.0000 -0.2195827099
C   C50       1.0  0.02230  0.10342  0.05451  1.0000 -0.2195827099
C   C51       1.0  0.89658  0.97770  0.55451  1.0000 -0.2195827099
C   C52       1.0  0.97770  0.89658  0.94549  1.0000 -0.2195827099
C   C53       1.0  0.20822  0.95758  0.48398  1.0000 0.1648523235
C   C54       1.0  0.95758  0.20822  0.01602  1.0000 0.1648523235
C   C55       1.0  0.79178  0.04242  0.51602  1.0000 0.1648523235
C   C56       1.0  0.04242  0.79178  0.98398  1.0000 0.1648523235
C   C57       1.0  0.30465  0.98305  0.55091  1.0000 -0.2887666873
C   C58       1.0  0.98305  0.30465  0.94909  1.0000 -0.2887666873
C   C59       1.0  0.69535  0.01695  0.44909  1.0000 -0.2887666873
C   C60       1.0  0.01695  0.69535  0.05091  1.0000 -0.2887666873
C   C61       1.0  0.40538  0.99038  0.52512  1.0000 -0.0700308415
C   C62       1.0  0.99038  0.40538  0.97488  1.0000 -0.0700308415
C   C63       1.0  0.59462  0.00962  0.47488  1.0000 -0.0700308415
C   C64       1.0  0.00962  0.59462  0.02512  1.0000 -0.0700308415
C   C65       1.0  0.40983  0.08257  0.45607  1.0000 0.0922379529
C   C66       1.0  0.08257  0.40983  0.04393  1.0000 0.0922379529
C   C67       1.0  0.59017  0.91743  0.54393  1.0000 0.0922379529
C   C68       1.0  0.91743  0.59017  0.95607  1.0000 0.0922379529
C   C69       1.0  0.50051  0.09269  0.43122  1.0000 0.1005936679
C   C70       1.0  0.09269  0.50051  0.06878  1.0000 0.1005936679
C   C71       1.0  0.49949  0.90731  0.56878  1.0000 0.1005936679
C   C72       1.0  0.90731  0.49949  0.93122  1.0000 0.1005936679
N   N1        1.0  0.77441  0.81077  0.13988  1.0000 -0.2533751368
N   N2        1.0  0.81077  0.77441  0.36012  1.0000 -0.2533751368
N   N3        1.0  0.22559  0.18923  0.86012  1.0000 -0.2533751368
N   N4        1.0  0.18923  0.22559  0.63988  1.0000 -0.2533751368
N   N5        1.0  0.02804  0.90884  0.36214  1.0000 -0.2533751368
N   N6        1.0  0.90884  0.02804  0.13786  1.0000 -0.2533751368
N   N7        1.0  0.97196  0.09116  0.63786  1.0000 -0.2533751368
N   N8        1.0  0.09116  0.97196  0.86214  1.0000 -0.2533751368
F   F1        1.0  0.38314  0.70798  0.94120  1.0000 -0.1541786767
F   F2        1.0  0.70798  0.38314  0.55880  1.0000 -0.1541786767
F   F3        1.0  0.61686  0.29202  0.05880  1.0000 -0.1541786767
F   F4        1.0  0.29202  0.61686  0.44120  1.0000 -0.1541786767
F   F5        1.0  0.29687  0.53243  0.00723  1.0000 -0.128695644
F   F6        1.0  0.53243  0.29687  0.49277  1.0000 -0.128695644
F   F7        1.0  0.70313  0.46757  0.99277  1.0000 -0.128695644
F   F8        1.0  0.46757  0.70313  0.50723  1.0000 -0.128695644
F   F9        1.0  0.32020  0.16676  0.40940  1.0000 -0.1170524149
F   F10       1.0  0.16676  0.32020  0.09060  1.0000 -0.1170524149
F   F11       1.0  0.67980  0.83324  0.59060  1.0000 -0.1170524149
F   F12       1.0  0.83324  0.67980  0.90940  1.0000 -0.1170524149
F   F13       1.0  0.49534  0.18602  0.36202  1.0000 -0.128695644
F   F14       1.0  0.18602  0.49534  0.13798  1.0000 -0.128695644
F   F15       1.0  0.50466  0.81398  0.63798  1.0000 -0.128695644
F   F16       1.0  0.81398  0.50466  0.86202  1.0000 -0.128695644
