# DDEC6 charges by PACMAN v1.1 (https://github.com/mtap-research/PACMAN-charge/)
data_2007[RuGd][tfi]3[ASR]1
_chemical_formula_sum              "Gd2 P8 H16 Ru4 C8 O28"
_cell_length_a       9.61163
_cell_length_b       9.61163
_cell_length_c       15.548
_cell_angle_alpha    87.0698
_cell_angle_beta     92.9302
_cell_angle_gamma    80.9255

_symmetry_space_group_name_H-M    "P 1"
_symmetry_Int_Tables_number       1

loop_
  _symmetry_equiv_pos_as_xyz
  'x, y, z'

loop_
  _atom_site_type_symbol
  _atom_site_label
  _atom_site_symmetry_multiplicity
  _atom_site_fract_x
  _atom_site_fract_y
  _atom_site_fract_z
  _atom_site_occupancy
  _atom_site_charge
Gd  Gd1       1.0  0.98895  0.98895  0.75000  1.0000 2.1280076285
Gd  Gd2       1.0  0.01105  0.01105  0.25000  1.0000 2.1362740774
P   P1        1.0  0.04530  0.64558  0.64483  1.0000 1.1994801988
P   P2        1.0  0.64558  0.04530  0.85517  1.0000 1.1994801988
P   P3        1.0  0.95470  0.35442  0.35517  1.0000 1.1994801988
P   P4        1.0  0.35442  0.95470  0.14483  1.0000 1.1994801988
P   P5        1.0  0.97641  0.34909  0.65404  1.0000 1.1994801988
P   P6        1.0  0.34909  0.97641  0.84596  1.0000 1.1994801988
P   P7        1.0  0.02359  0.65091  0.34596  1.0000 1.1994801988
P   P8        1.0  0.65091  0.02359  0.15404  1.0000 1.1994801988
H   H1        1.0  0.82400  0.57800  0.73000  1.0000 0.3606904228
H   H2        1.0  0.57800  0.82400  0.77000  1.0000 0.3606904228
H   H3        1.0  0.17600  0.42200  0.27000  1.0000 0.3606904228
H   H4        1.0  0.42200  0.17600  0.23000  1.0000 0.3606904228
H   H5        1.0  0.16240  0.52500  0.81380  1.0000 0.1607759674
H   H6        1.0  0.52500  0.16240  0.68620  1.0000 0.1498915955
H   H7        1.0  0.83760  0.47500  0.18620  1.0000 0.1607759674
H   H8        1.0  0.47500  0.83760  0.31380  1.0000 0.1498915955
H   H9        1.0  0.12830  0.36730  0.81590  1.0000 0.1607759674
H   H10       1.0  0.36730  0.12830  0.68410  1.0000 0.1607759674
H   H11       1.0  0.87170  0.63270  0.18410  1.0000 0.1607759674
H   H12       1.0  0.63270  0.87170  0.31590  1.0000 0.1607759674
H   H13       1.0  0.22780  0.41820  0.74520  1.0000 0.1498915955
H   H14       1.0  0.41820  0.22780  0.75480  1.0000 0.1498915955
H   H15       1.0  0.77220  0.58180  0.25480  1.0000 0.1498915955
H   H16       1.0  0.58180  0.77220  0.24520  1.0000 0.1498915955
Ru  Ru1       1.0  0.12123  0.45435  0.50195  1.0000 0.9029133846
Ru  Ru2       1.0  0.45435  0.12123  0.99805  1.0000 0.9029133846
Ru  Ru3       1.0  0.87877  0.54565  0.49805  1.0000 0.9029133846
Ru  Ru4       1.0  0.54565  0.87877  0.00195  1.0000 0.9029133846
C   C1        1.0  0.01740  0.49540  0.71720  1.0000 -0.1828812878
C   C2        1.0  0.49540  0.01740  0.78280  1.0000 -0.1828812878
C   C3        1.0  0.98260  0.50460  0.28280  1.0000 -0.1828812878
C   C4        1.0  0.50460  0.98260  0.21720  1.0000 -0.1828812878
C   C5        1.0  0.14530  0.44730  0.77840  1.0000 -0.4201205219
C   C6        1.0  0.44730  0.14530  0.72160  1.0000 -0.4201205219
C   C7        1.0  0.85470  0.55270  0.22160  1.0000 -0.4201205219
C   C8        1.0  0.55270  0.85470  0.27840  1.0000 -0.4201205219
O   O1        1.0  0.16850  0.59090  0.58950  1.0000 -0.6032485883
O   O2        1.0  0.59090  0.16850  0.91050  1.0000 -0.6032485883
O   O3        1.0  0.83150  0.40910  0.41050  1.0000 -0.6032485883
O   O4        1.0  0.40910  0.83150  0.08950  1.0000 -0.6032485883
O   O5        1.0  0.90880  0.69020  0.58590  1.0000 -0.6714252601
O   O6        1.0  0.69020  0.90880  0.91410  1.0000 -0.6714252601
O   O7        1.0  0.09120  0.30980  0.41410  1.0000 -0.6714252601
O   O8        1.0  0.30980  0.09120  0.08590  1.0000 -0.6714252601
O   O9        1.0  0.07690  0.76510  0.69880  1.0000 -0.8275549234
O   O10       1.0  0.76510  0.07690  0.80120  1.0000 -0.8202442388
O   O11       1.0  0.92310  0.23490  0.30120  1.0000 -0.8275549234
O   O12       1.0  0.23490  0.92310  0.19880  1.0000 -0.8275549234
O   O13       1.0  0.10470  0.30890  0.59840  1.0000 -0.6385989855
O   O14       1.0  0.30890  0.10470  0.90160  1.0000 -0.6385989855
O   O15       1.0  0.89530  0.69110  0.40160  1.0000 -0.6385989855
O   O16       1.0  0.69110  0.89530  0.09840  1.0000 -0.6385989855
O   O17       1.0  0.84490  0.40650  0.59360  1.0000 -0.6385989855
O   O18       1.0  0.40650  0.84490  0.90640  1.0000 -0.6385989855
O   O19       1.0  0.15510  0.59350  0.40640  1.0000 -0.6385989855
O   O20       1.0  0.59350  0.15510  0.09360  1.0000 -0.6385989855
O   O21       1.0  0.95410  0.22950  0.71430  1.0000 -0.8202442388
O   O22       1.0  0.22950  0.95410  0.78570  1.0000 -0.8202442388
O   O23       1.0  0.04590  0.77050  0.28570  1.0000 -0.8202442388
O   O24       1.0  0.77050  0.04590  0.21430  1.0000 -0.8202442388
O   O25       1.0  0.89960  0.55060  0.76660  1.0000 -0.3930031578
O   O26       1.0  0.55060  0.89960  0.73340  1.0000 -0.3930031578
O   O27       1.0  0.10040  0.44940  0.23340  1.0000 -0.3930031578
O   O28       1.0  0.44940  0.10040  0.26660  1.0000 -0.3961539487
