# DDEC6 charges by PACMAN v1.1 (https://github.com/mtap-research/PACMAN-charge/)
data_2007[Fe][pcu]3[ASR]1
_chemical_formula_sum              "Fe6 H144 C90 N144"
_cell_length_a       17.6018
_cell_length_b       17.6018
_cell_length_c       21.0633
_cell_angle_alpha    90
_cell_angle_beta     90
_cell_angle_gamma    120

_symmetry_space_group_name_H-M    "P 1"
_symmetry_Int_Tables_number       1

loop_
  _symmetry_equiv_pos_as_xyz
  'x, y, z'

loop_
  _atom_site_type_symbol
  _atom_site_label
  _atom_site_symmetry_multiplicity
  _atom_site_fract_x
  _atom_site_fract_y
  _atom_site_fract_z
  _atom_site_occupancy
  _atom_site_charge
Fe  Fe1       1.0  0.00000  0.00000  0.27677  1.0000 0.2985105909
Fe  Fe2       1.0  0.66667  0.33333  0.61010  1.0000 0.2985105909
Fe  Fe3       1.0  0.33333  0.66667  0.94344  1.0000 0.2985105909
Fe  Fe4       1.0  0.66667  0.33333  0.11051  1.0000 0.3125428058
Fe  Fe5       1.0  0.33333  0.66667  0.44384  1.0000 0.3125428058
Fe  Fe6       1.0  0.00000  0.00000  0.77718  1.0000 0.3125428058
H   H1        1.0  0.52399  0.22458  0.22235  1.0000 0.1088995135
H   H2        1.0  0.77542  0.29940  0.22235  1.0000 0.1088995135
H   H3        1.0  0.70060  0.47601  0.22235  1.0000 0.1088995135
H   H4        1.0  0.19065  0.55792  0.55569  1.0000 0.1088995135
H   H5        1.0  0.44208  0.63274  0.55569  1.0000 0.1088995135
H   H6        1.0  0.36726  0.80935  0.55569  1.0000 0.1088995135
H   H7        1.0  0.85732  0.89125  0.88902  1.0000 0.1088995135
H   H8        1.0  0.10875  0.96607  0.88902  1.0000 0.1088995135
H   H9        1.0  0.03393  0.14268  0.88902  1.0000 0.1088995135
H   H10       1.0  0.25682  0.78707  0.00693  1.0000 0.0995790118
H   H11       1.0  0.21293  0.46975  0.00693  1.0000 0.0995790118
H   H12       1.0  0.53025  0.74318  0.00693  1.0000 0.0995790118
H   H13       1.0  0.92349  0.12041  0.34027  1.0000 0.0995790118
H   H14       1.0  0.87959  0.80308  0.34027  1.0000 0.0995790118
H   H15       1.0  0.19692  0.07651  0.34027  1.0000 0.0995790118
H   H16       1.0  0.59016  0.45374  0.67360  1.0000 0.0995790118
H   H17       1.0  0.54626  0.13641  0.67360  1.0000 0.0995790118
H   H18       1.0  0.86359  0.40984  0.67360  1.0000 0.0995790118
H   H19       1.0  0.56109  0.36620  0.99567  1.0000 0.1088995135
H   H20       1.0  0.63380  0.19489  0.99567  1.0000 0.1088995135
H   H21       1.0  0.80511  0.43891  0.99567  1.0000 0.1088995135
H   H22       1.0  0.22776  0.69953  0.32900  1.0000 0.1088995135
H   H23       1.0  0.30047  0.52822  0.32900  1.0000 0.1088995135
H   H24       1.0  0.47178  0.77224  0.32900  1.0000 0.1088995135
H   H25       1.0  0.89442  0.03287  0.66234  1.0000 0.1088995135
H   H26       1.0  0.96713  0.86156  0.66234  1.0000 0.1088995135
H   H27       1.0  0.13844  0.10558  0.66234  1.0000 0.1088995135
H   H28       1.0  0.10778  0.19329  0.21164  1.0000 0.0995790118
H   H29       1.0  0.80671  0.91449  0.21164  1.0000 0.0995790118
H   H30       1.0  0.08551  0.89222  0.21164  1.0000 0.0995790118
H   H31       1.0  0.77445  0.52663  0.54497  1.0000 0.0995790118
H   H32       1.0  0.47337  0.24782  0.54497  1.0000 0.0995790118
H   H33       1.0  0.75218  0.22555  0.54497  1.0000 0.0995790118
H   H34       1.0  0.44112  0.85996  0.87830  1.0000 0.0995790118
H   H35       1.0  0.14004  0.58115  0.87830  1.0000 0.0995790118
H   H36       1.0  0.41885  0.55888  0.87830  1.0000 0.0995790118
H   H37       1.0  0.59159  0.99358  0.24662  1.0000 0.0995790118
H   H38       1.0  0.00642  0.59801  0.24662  1.0000 0.0995790118
H   H39       1.0  0.40199  0.40841  0.24662  1.0000 0.0995790118
H   H40       1.0  0.25825  0.32691  0.57995  1.0000 0.0995790118
H   H41       1.0  0.67309  0.93134  0.57995  1.0000 0.0995790118
H   H42       1.0  0.06866  0.74175  0.57995  1.0000 0.0995790118
H   H43       1.0  0.92492  0.66024  0.91329  1.0000 0.0995790118
H   H44       1.0  0.33976  0.26468  0.91329  1.0000 0.0995790118
H   H45       1.0  0.73532  0.07508  0.91329  1.0000 0.0995790118
H   H46       1.0  0.66357  0.02823  0.17898  1.0000 0.0938015103
H   H47       1.0  0.97177  0.63535  0.17898  1.0000 0.0938015103
H   H48       1.0  0.36465  0.33643  0.17898  1.0000 0.0938015103
H   H49       1.0  0.33024  0.36156  0.51231  1.0000 0.0938015103
H   H50       1.0  0.63844  0.96868  0.51231  1.0000 0.0938015103
H   H51       1.0  0.03132  0.66976  0.51231  1.0000 0.0938015103
H   H52       1.0  0.99691  0.69489  0.84565  1.0000 0.0938015103
H   H53       1.0  0.30511  0.30201  0.84565  1.0000 0.0938015103
H   H54       1.0  0.69799  0.00309  0.84565  1.0000 0.0938015103
H   H55       1.0  0.46060  0.93287  0.17586  1.0000 0.0995790118
H   H56       1.0  0.06713  0.52772  0.17586  1.0000 0.0995790118
H   H57       1.0  0.47228  0.53940  0.17586  1.0000 0.0995790118
H   H58       1.0  0.12726  0.26621  0.50919  1.0000 0.0995790118
H   H59       1.0  0.73379  0.86106  0.50919  1.0000 0.0995790118
H   H60       1.0  0.13894  0.87274  0.50919  1.0000 0.0995790118
H   H61       1.0  0.79393  0.59954  0.84253  1.0000 0.0995790118
H   H62       1.0  0.40046  0.19439  0.84253  1.0000 0.0995790118
H   H63       1.0  0.80561  0.20607  0.84253  1.0000 0.0995790118
H   H64       1.0  0.52443  0.88056  0.16891  1.0000 0.0995790118
H   H65       1.0  0.11944  0.64386  0.16891  1.0000 0.0995790118
H   H66       1.0  0.35614  0.47557  0.16891  1.0000 0.0995790118
H   H67       1.0  0.19110  0.21390  0.50225  1.0000 0.0995790118
H   H68       1.0  0.78610  0.97720  0.50225  1.0000 0.0995790118
H   H69       1.0  0.02280  0.80890  0.50225  1.0000 0.0995790118
H   H70       1.0  0.85776  0.54723  0.83558  1.0000 0.0995790118
H   H71       1.0  0.45277  0.31053  0.83558  1.0000 0.0995790118
H   H72       1.0  0.68947  0.14224  0.83558  1.0000 0.0995790118
H   H73       1.0  0.53701  0.02203  0.07473  1.0000 0.0995790118
H   H74       1.0  0.97797  0.51499  0.07473  1.0000 0.0995790118
H   H75       1.0  0.48501  0.46299  0.07473  1.0000 0.0995790118
H   H76       1.0  0.20368  0.35536  0.40807  1.0000 0.0995790118
H   H77       1.0  0.64464  0.84832  0.40807  1.0000 0.0995790118
H   H78       1.0  0.15168  0.79632  0.40807  1.0000 0.0995790118
H   H79       1.0  0.87035  0.68869  0.74140  1.0000 0.0995790118
H   H80       1.0  0.31131  0.18165  0.74140  1.0000 0.0995790118
H   H81       1.0  0.81835  0.12965  0.74140  1.0000 0.0995790118
H   H82       1.0  0.58805  0.95607  0.06644  1.0000 0.0995790118
H   H83       1.0  0.04393  0.63199  0.06644  1.0000 0.0995790118
H   H84       1.0  0.36801  0.41195  0.06644  1.0000 0.0995790118
H   H85       1.0  0.25472  0.28940  0.39977  1.0000 0.0995790118
H   H86       1.0  0.71060  0.96532  0.39977  1.0000 0.0995790118
H   H87       1.0  0.03468  0.74528  0.39977  1.0000 0.0995790118
H   H88       1.0  0.92138  0.62273  0.73311  1.0000 0.0995790118
H   H89       1.0  0.37727  0.29865  0.73311  1.0000 0.0995790118
H   H90       1.0  0.70135  0.07862  0.73311  1.0000 0.0995790118
H   H91       1.0  0.36047  0.03339  0.04656  1.0000 0.0938015103
H   H92       1.0  0.96661  0.32707  0.04656  1.0000 0.0938015103
H   H93       1.0  0.67293  0.63953  0.04656  1.0000 0.0938015103
H   H94       1.0  0.02713  0.36673  0.37989  1.0000 0.0938015103
H   H95       1.0  0.63327  0.66041  0.37989  1.0000 0.0938015103
H   H96       1.0  0.33959  0.97287  0.37989  1.0000 0.0938015103
H   H97       1.0  0.69380  0.70006  0.71323  1.0000 0.0938015103
H   H98       1.0  0.29994  0.99374  0.71323  1.0000 0.0938015103
H   H99       1.0  0.00626  0.30620  0.71323  1.0000 0.0938015103
H   H100      1.0  0.32582  0.06723  0.97689  1.0000 0.0995790118
H   H101      1.0  0.93277  0.25859  0.97689  1.0000 0.0995790118
H   H102      1.0  0.74141  0.67418  0.97689  1.0000 0.0995790118
H   H103      1.0  0.99249  0.40056  0.31023  1.0000 0.0995790118
H   H104      1.0  0.59944  0.59192  0.31023  1.0000 0.0995790118
H   H105      1.0  0.40808  0.00751  0.31023  1.0000 0.0995790118
H   H106      1.0  0.65915  0.73390  0.64356  1.0000 0.0995790118
H   H107      1.0  0.26610  0.92526  0.64356  1.0000 0.0995790118
H   H108      1.0  0.07474  0.34085  0.64356  1.0000 0.0995790118
H   H109      1.0  0.26411  0.14005  0.04111  1.0000 0.0995790118
H   H110      1.0  0.85995  0.12406  0.04111  1.0000 0.0995790118
H   H111      1.0  0.87594  0.73589  0.04111  1.0000 0.0995790118
H   H112      1.0  0.93078  0.47339  0.37444  1.0000 0.0995790118
H   H113      1.0  0.52661  0.45739  0.37444  1.0000 0.0995790118
H   H114      1.0  0.54261  0.06922  0.37444  1.0000 0.0995790118
H   H115      1.0  0.59745  0.80672  0.70778  1.0000 0.0995790118
H   H116      1.0  0.19328  0.79073  0.70778  1.0000 0.0995790118
H   H117      1.0  0.20927  0.40255  0.70778  1.0000 0.0995790118
H   H118      1.0  0.21512  0.02592  0.05756  1.0000 0.0995790118
H   H119      1.0  0.97408  0.18920  0.05756  1.0000 0.0995790118
H   H120      1.0  0.81080  0.78488  0.05756  1.0000 0.0995790118
H   H121      1.0  0.88179  0.35925  0.39089  1.0000 0.0995790118
H   H122      1.0  0.64075  0.52253  0.39089  1.0000 0.0995790118
H   H123      1.0  0.47747  0.11821  0.39089  1.0000 0.0995790118
H   H124      1.0  0.54845  0.69259  0.72423  1.0000 0.0995790118
H   H125      1.0  0.30741  0.85587  0.72423  1.0000 0.0995790118
H   H126      1.0  0.14413  0.45155  0.72423  1.0000 0.0995790118
H   H127      1.0  0.30470  0.05902  0.15805  1.0000 0.0995790118
H   H128      1.0  0.94098  0.24569  0.15805  1.0000 0.0995790118
H   H129      1.0  0.75431  0.69530  0.15805  1.0000 0.0995790118
H   H130      1.0  0.97137  0.39235  0.49138  1.0000 0.0995790118
H   H131      1.0  0.60765  0.57902  0.49138  1.0000 0.0995790118
H   H132      1.0  0.42098  0.02863  0.49138  1.0000 0.0995790118
H   H133      1.0  0.63804  0.72568  0.82472  1.0000 0.0995790118
H   H134      1.0  0.27432  0.91236  0.82472  1.0000 0.0995790118
H   H135      1.0  0.08764  0.36196  0.82472  1.0000 0.0995790118
H   H136      1.0  0.35624  0.17426  0.14150  1.0000 0.0938015103
H   H137      1.0  0.82574  0.18199  0.14150  1.0000 0.0938015103
H   H138      1.0  0.81801  0.64376  0.14150  1.0000 0.0938015103
H   H139      1.0  0.02291  0.50759  0.47484  1.0000 0.0938015103
H   H140      1.0  0.49241  0.51532  0.47484  1.0000 0.0938015103
H   H141      1.0  0.48468  0.97709  0.47484  1.0000 0.0938015103
H   H142      1.0  0.68958  0.84092  0.80817  1.0000 0.0938015103
H   H143      1.0  0.15908  0.84865  0.80817  1.0000 0.0938015103
H   H144      1.0  0.15135  0.31042  0.80817  1.0000 0.0938015103
C   C1        1.0  0.55965  0.19187  0.20765  1.0000 0.1088995135
C   C2        1.0  0.80813  0.36778  0.20765  1.0000 0.1088995135
C   C3        1.0  0.63222  0.44035  0.20765  1.0000 0.1088995135
C   C4        1.0  0.22632  0.52521  0.54098  1.0000 0.1088995135
C   C5        1.0  0.47479  0.70111  0.54098  1.0000 0.1088995135
C   C6        1.0  0.29889  0.77368  0.54098  1.0000 0.1088995135
C   C7        1.0  0.89299  0.85854  0.87432  1.0000 0.1088995135
C   C8        1.0  0.14146  0.03445  0.87432  1.0000 0.1088995135
C   C9        1.0  0.96555  0.10701  0.87432  1.0000 0.1088995135
C   C10       1.0  0.32613  0.81333  0.01739  1.0000 0.1232928879
C   C11       1.0  0.18667  0.51280  0.01739  1.0000 0.1232928879
C   C12       1.0  0.48720  0.67387  0.01739  1.0000 0.1232928879
C   C13       1.0  0.99280  0.14666  0.35072  1.0000 0.1232928879
C   C14       1.0  0.85334  0.84613  0.35072  1.0000 0.1232928879
C   C15       1.0  0.15387  0.00720  0.35072  1.0000 0.1232928879
C   C16       1.0  0.65946  0.48000  0.68406  1.0000 0.1232928879
C   C17       1.0  0.52000  0.17947  0.68406  1.0000 0.1232928879
C   C18       1.0  0.82053  0.34054  0.68406  1.0000 0.1232928879
C   C19       1.0  0.52709  0.29838  0.01192  1.0000 0.1088995135
C   C20       1.0  0.70162  0.22871  0.01192  1.0000 0.1088995135
C   C21       1.0  0.77129  0.47291  0.01192  1.0000 0.1088995135
C   C22       1.0  0.19376  0.63171  0.34525  1.0000 0.1088995135
C   C23       1.0  0.36829  0.56205  0.34525  1.0000 0.1088995135
C   C24       1.0  0.43795  0.80624  0.34525  1.0000 0.1088995135
C   C25       1.0  0.86042  0.96504  0.67858  1.0000 0.1088995135
C   C26       1.0  0.03496  0.89538  0.67858  1.0000 0.1088995135
C   C27       1.0  0.10462  0.13958  0.67858  1.0000 0.1088995135
C   C28       1.0  0.13955  0.15488  0.20203  1.0000 0.1232928879
C   C29       1.0  0.84512  0.98467  0.20203  1.0000 0.1232928879
C   C30       1.0  0.01533  0.86045  0.20203  1.0000 0.1232928879
C   C31       1.0  0.80622  0.48822  0.53536  1.0000 0.1232928879
C   C32       1.0  0.51178  0.31800  0.53536  1.0000 0.1232928879
C   C33       1.0  0.68200  0.19378  0.53536  1.0000 0.1232928879
C   C34       1.0  0.47289  0.82155  0.86869  1.0000 0.1232928879
C   C35       1.0  0.17845  0.65134  0.86869  1.0000 0.1232928879
C   C36       1.0  0.34866  0.52711  0.86869  1.0000 0.1232928879
C   C37       1.0  0.59906  0.01533  0.19662  1.0000 -0.1081505377
C   C38       1.0  0.98467  0.58373  0.19662  1.0000 -0.1081505377
C   C39       1.0  0.41627  0.40094  0.19662  1.0000 -0.1081505377
C   C40       1.0  0.26572  0.34866  0.52995  1.0000 -0.1081505377
C   C41       1.0  0.65134  0.91706  0.52995  1.0000 -0.1081505377
C   C42       1.0  0.08294  0.73428  0.52995  1.0000 -0.1081505377
C   C43       1.0  0.93239  0.68199  0.86329  1.0000 -0.1081505377
C   C44       1.0  0.31801  0.25039  0.86329  1.0000 -0.1081505377
C   C45       1.0  0.74961  0.06761  0.86329  1.0000 -0.1081505377
C   C46       1.0  0.52377  0.94194  0.15832  1.0000 -0.1823342064
C   C47       1.0  0.05806  0.58183  0.15832  1.0000 -0.1823342064
C   C48       1.0  0.41817  0.47623  0.15832  1.0000 -0.1823342064
C   C49       1.0  0.19043  0.27528  0.49166  1.0000 -0.1823342064
C   C50       1.0  0.72472  0.91516  0.49166  1.0000 -0.1823342064
C   C51       1.0  0.08484  0.80957  0.49166  1.0000 -0.1823342064
C   C52       1.0  0.85710  0.60861  0.82499  1.0000 -0.1823342064
C   C53       1.0  0.39139  0.24849  0.82499  1.0000 -0.1823342064
C   C54       1.0  0.75151  0.14290  0.82499  1.0000 -0.1823342064
C   C55       1.0  0.53077  0.95770  0.08648  1.0000 -0.1081505377
C   C56       1.0  0.04230  0.57307  0.08648  1.0000 -0.1081505377
C   C57       1.0  0.42693  0.46923  0.08648  1.0000 -0.1081505377
C   C58       1.0  0.19744  0.29104  0.41981  1.0000 -0.1081505377
C   C59       1.0  0.70896  0.90640  0.41981  1.0000 -0.1081505377
C   C60       1.0  0.09360  0.80256  0.41981  1.0000 -0.1081505377
C   C61       1.0  0.86411  0.62437  0.75314  1.0000 -0.1081505377
C   C62       1.0  0.37563  0.23974  0.75314  1.0000 -0.1081505377
C   C63       1.0  0.76026  0.13589  0.75314  1.0000 -0.1081505377
C   C64       1.0  0.34820  0.08432  0.02656  1.0000 -0.1081505377
C   C65       1.0  0.91568  0.26388  0.02656  1.0000 -0.1081505377
C   C66       1.0  0.73612  0.65180  0.02656  1.0000 -0.1081505377
C   C67       1.0  0.01487  0.41765  0.35989  1.0000 -0.1081505377
C   C68       1.0  0.58235  0.59722  0.35989  1.0000 -0.1081505377
C   C69       1.0  0.40278  0.98513  0.35989  1.0000 -0.1081505377
C   C70       1.0  0.68154  0.75099  0.69323  1.0000 -0.1081505377
C   C71       1.0  0.24901  0.93055  0.69323  1.0000 -0.1081505377
C   C72       1.0  0.06945  0.31846  0.69323  1.0000 -0.1081505377
C   C73       1.0  0.27601  0.09014  0.06351  1.0000 -0.1823342064
C   C74       1.0  0.90986  0.18587  0.06351  1.0000 -0.1823342064
C   C75       1.0  0.81413  0.72399  0.06351  1.0000 -0.1823342064
C   C76       1.0  0.94268  0.42347  0.39684  1.0000 -0.1823342064
C   C77       1.0  0.57653  0.51921  0.39684  1.0000 -0.1823342064
C   C78       1.0  0.48079  0.05732  0.39684  1.0000 -0.1823342064
C   C79       1.0  0.60934  0.75680  0.73017  1.0000 -0.1823342064
C   C80       1.0  0.24320  0.85254  0.73017  1.0000 -0.1823342064
C   C81       1.0  0.14746  0.39066  0.73017  1.0000 -0.1823342064
C   C82       1.0  0.29576  0.11010  0.13422  1.0000 -0.1081505377
C   C83       1.0  0.88990  0.18566  0.13422  1.0000 -0.1081505377
C   C84       1.0  0.81434  0.70424  0.13422  1.0000 -0.1081505377
C   C85       1.0  0.96243  0.44343  0.46756  1.0000 -0.1081505377
C   C86       1.0  0.55657  0.51900  0.46756  1.0000 -0.1081505377
C   C87       1.0  0.48100  0.03757  0.46756  1.0000 -0.1081505377
C   C88       1.0  0.62910  0.77677  0.80089  1.0000 -0.1081505377
C   C89       1.0  0.22323  0.85233  0.80089  1.0000 -0.1081505377
C   C90       1.0  0.14767  0.37090  0.80089  1.0000 -0.1081505377
N   N1        1.0  0.54045  0.11232  0.22904  1.0000 -0.3096187896
N   N2        1.0  0.88768  0.42813  0.22904  1.0000 -0.3096187896
N   N3        1.0  0.57187  0.45955  0.22904  1.0000 -0.3096187896
N   N4        1.0  0.20711  0.44565  0.56237  1.0000 -0.3096187896
N   N5        1.0  0.55435  0.76146  0.56237  1.0000 -0.3096187896
N   N6        1.0  0.23854  0.79289  0.56237  1.0000 -0.3096187896
N   N7        1.0  0.87378  0.77898  0.89570  1.0000 -0.3096187896
N   N8        1.0  0.22102  0.09480  0.89570  1.0000 -0.3096187896
N   N9        1.0  0.90520  0.12622  0.89570  1.0000 -0.3096187896
N   N10       1.0  0.60054  0.09897  0.19603  1.0000 0.2252699233
N   N11       1.0  0.90103  0.50157  0.19603  1.0000 0.2252699233
N   N12       1.0  0.49843  0.39946  0.19603  1.0000 0.2252699233
N   N13       1.0  0.26721  0.43231  0.52936  1.0000 0.2252699233
N   N14       1.0  0.56769  0.83490  0.52936  1.0000 0.2252699233
N   N15       1.0  0.16510  0.73279  0.52936  1.0000 0.2252699233
N   N16       1.0  0.93387  0.76564  0.86269  1.0000 0.2252699233
N   N17       1.0  0.23436  0.16824  0.86269  1.0000 0.2252699233
N   N18       1.0  0.83176  0.06613  0.86269  1.0000 0.2252699233
N   N19       1.0  0.65281  0.16627  0.15513  1.0000 -0.159211313
N   N20       1.0  0.83373  0.48653  0.15513  1.0000 -0.159211313
N   N21       1.0  0.51347  0.34719  0.15513  1.0000 -0.159211313
N   N22       1.0  0.31947  0.49961  0.48847  1.0000 -0.159211313
N   N23       1.0  0.50039  0.81987  0.48847  1.0000 -0.159211313
N   N24       1.0  0.18013  0.68053  0.48847  1.0000 -0.159211313
N   N25       1.0  0.98614  0.83294  0.82180  1.0000 -0.159211313
N   N26       1.0  0.16706  0.15320  0.82180  1.0000 -0.159211313
N   N27       1.0  0.84680  0.01386  0.82180  1.0000 -0.159211313
N   N28       1.0  0.62582  0.22645  0.16394  1.0000 -0.132121068
N   N29       1.0  0.77355  0.39937  0.16394  1.0000 -0.132121068
N   N30       1.0  0.60063  0.37418  0.16394  1.0000 -0.132121068
N   N31       1.0  0.29248  0.55978  0.49727  1.0000 -0.132121068
N   N32       1.0  0.44022  0.73270  0.49727  1.0000 -0.132121068
N   N33       1.0  0.26730  0.70752  0.49727  1.0000 -0.132121068
N   N34       1.0  0.95915  0.89311  0.83060  1.0000 -0.132121068
N   N35       1.0  0.10689  0.06604  0.83060  1.0000 -0.132121068
N   N36       1.0  0.93396  0.04085  0.83060  1.0000 -0.132121068
N   N37       1.0  0.37431  0.88638  0.05164  1.0000 -0.3096187896
N   N38       1.0  0.11362  0.48793  0.05164  1.0000 -0.3096187896
N   N39       1.0  0.51207  0.62569  0.05164  1.0000 -0.3096187896
N   N40       1.0  0.04098  0.21971  0.38497  1.0000 -0.3096187896
N   N41       1.0  0.78029  0.82127  0.38497  1.0000 -0.3096187896
N   N42       1.0  0.17873  0.95902  0.38497  1.0000 -0.3096187896
N   N43       1.0  0.70764  0.55304  0.71830  1.0000 -0.3096187896
N   N44       1.0  0.44696  0.15460  0.71830  1.0000 -0.3096187896
N   N45       1.0  0.84540  0.29236  0.71830  1.0000 -0.3096187896
N   N46       1.0  0.45424  0.89028  0.05232  1.0000 0.2198765759
N   N47       1.0  0.10972  0.56396  0.05232  1.0000 0.2198765759
N   N48       1.0  0.43604  0.54576  0.05232  1.0000 0.2198765759
N   N49       1.0  0.12090  0.22361  0.38565  1.0000 0.2198765759
N   N50       1.0  0.77639  0.89729  0.38565  1.0000 0.2198765759
N   N51       1.0  0.10271  0.87910  0.38565  1.0000 0.2198765759
N   N52       1.0  0.78757  0.55694  0.71898  1.0000 0.2198765759
N   N53       1.0  0.44306  0.23063  0.71898  1.0000 0.2198765759
N   N54       1.0  0.76937  0.21243  0.71898  1.0000 0.2198765759
N   N55       1.0  0.45569  0.82348  0.02026  1.0000 -0.132121068
N   N56       1.0  0.17652  0.63220  0.02026  1.0000 -0.132121068
N   N57       1.0  0.36780  0.54431  0.02026  1.0000 -0.132121068
N   N58       1.0  0.12235  0.15682  0.35360  1.0000 -0.132121068
N   N59       1.0  0.84318  0.96553  0.35360  1.0000 -0.132121068
N   N60       1.0  0.03447  0.87765  0.35360  1.0000 -0.132121068
N   N61       1.0  0.78902  0.49015  0.68693  1.0000 -0.132121068
N   N62       1.0  0.50985  0.29887  0.68693  1.0000 -0.132121068
N   N63       1.0  0.70113  0.21098  0.68693  1.0000 -0.132121068
N   N64       1.0  0.37157  0.77335  0.99784  1.0000 -0.1375810035
N   N65       1.0  0.22665  0.59822  0.99784  1.0000 -0.1375810035
N   N66       1.0  0.40178  0.62843  0.99784  1.0000 -0.1375810035
N   N67       1.0  0.03824  0.10668  0.33118  1.0000 -0.1375810035
N   N68       1.0  0.89332  0.93156  0.33118  1.0000 -0.1375810035
N   N69       1.0  0.06844  0.96176  0.33118  1.0000 -0.1375810035
N   N70       1.0  0.70491  0.44002  0.66451  1.0000 -0.1375810035
N   N71       1.0  0.55998  0.26489  0.66451  1.0000 -0.1375810035
N   N72       1.0  0.73511  0.29509  0.66451  1.0000 -0.1375810035
N   N73       1.0  0.44754  0.23819  0.99051  1.0000 -0.3096187896
N   N74       1.0  0.76181  0.20936  0.99051  1.0000 -0.3096187896
N   N75       1.0  0.79064  0.55246  0.99051  1.0000 -0.3096187896
N   N76       1.0  0.11421  0.57152  0.32384  1.0000 -0.3096187896
N   N77       1.0  0.42848  0.54269  0.32384  1.0000 -0.3096187896
N   N78       1.0  0.45731  0.88579  0.32384  1.0000 -0.3096187896
N   N79       1.0  0.78088  0.90485  0.65717  1.0000 -0.3096187896
N   N80       1.0  0.09515  0.87602  0.65717  1.0000 -0.3096187896
N   N81       1.0  0.12398  0.21912  0.65717  1.0000 -0.3096187896
N   N82       1.0  0.43285  0.16545  0.02512  1.0000 0.2198765759
N   N83       1.0  0.83455  0.26740  0.02512  1.0000 0.2252699233
N   N84       1.0  0.73260  0.56715  0.02512  1.0000 0.2252699233
N   N85       1.0  0.09952  0.49879  0.35845  1.0000 0.2252699233
N   N86       1.0  0.50121  0.60073  0.35845  1.0000 0.2252699233
N   N87       1.0  0.39927  0.90048  0.35845  1.0000 0.2252699233
N   N88       1.0  0.76619  0.83212  0.69179  1.0000 0.2252699233
N   N89       1.0  0.16788  0.93407  0.69179  1.0000 0.2252699233
N   N90       1.0  0.06593  0.23381  0.69179  1.0000 0.2252699233
N   N91       1.0  0.49942  0.18085  0.06686  1.0000 -0.1537323796
N   N92       1.0  0.81915  0.31856  0.06686  1.0000 -0.1537323796
N   N93       1.0  0.68144  0.50058  0.06686  1.0000 -0.1537323796
N   N94       1.0  0.16608  0.51419  0.40019  1.0000 -0.1537323796
N   N95       1.0  0.48581  0.65190  0.40019  1.0000 -0.1537323796
N   N96       1.0  0.34810  0.83392  0.40019  1.0000 -0.1537323796
N   N97       1.0  0.83275  0.84752  0.73352  1.0000 -0.1537323796
N   N98       1.0  0.15248  0.98523  0.73352  1.0000 -0.1537323796
N   N99       1.0  0.01477  0.16725  0.73352  1.0000 -0.1537323796
N   N100      1.0  0.56033  0.26749  0.05714  1.0000 -0.132121068
N   N101      1.0  0.73251  0.29284  0.05714  1.0000 -0.132121068
N   N102      1.0  0.70716  0.43967  0.05714  1.0000 -0.132121068
N   N103      1.0  0.22699  0.60082  0.39047  1.0000 -0.132121068
N   N104      1.0  0.39918  0.62617  0.39047  1.0000 -0.132121068
N   N105      1.0  0.37383  0.77301  0.39047  1.0000 -0.132121068
N   N106      1.0  0.89366  0.93415  0.72380  1.0000 -0.132121068
N   N107      1.0  0.06585  0.95951  0.72380  1.0000 -0.132121068
N   N108      1.0  0.04049  0.10634  0.72380  1.0000 -0.132121068
N   N109      1.0  0.21284  0.18439  0.16726  1.0000 -0.3096187896
N   N110      1.0  0.81561  0.02846  0.16726  1.0000 -0.3096187896
N   N111      1.0  0.97154  0.78716  0.16726  1.0000 -0.3096187896
N   N112      1.0  0.87951  0.51772  0.50060  1.0000 -0.3096187896
N   N113      1.0  0.48228  0.36179  0.50060  1.0000 -0.3096187896
N   N114      1.0  0.63821  0.12049  0.50060  1.0000 -0.3096187896
N   N115      1.0  0.54618  0.85106  0.83393  1.0000 -0.3096187896
N   N116      1.0  0.14894  0.69512  0.83393  1.0000 -0.3096187896
N   N117      1.0  0.30488  0.45382  0.83393  1.0000 -0.3096187896
N   N118      1.0  0.22484  0.11310  0.16816  1.0000 0.2198765759
N   N119      1.0  0.88690  0.11175  0.16816  1.0000 0.2198765759
N   N120      1.0  0.88825  0.77516  0.16816  1.0000 0.2198765759
N   N121      1.0  0.89151  0.44643  0.50149  1.0000 0.2198765759
N   N122      1.0  0.55357  0.44508  0.50149  1.0000 0.2198765759
N   N123      1.0  0.55492  0.10849  0.50149  1.0000 0.2198765759
N   N124      1.0  0.55818  0.77976  0.83483  1.0000 0.2198765759
N   N125      1.0  0.22024  0.77841  0.83483  1.0000 0.2198765759
N   N126      1.0  0.22159  0.44182  0.83483  1.0000 0.2198765759
N   N127      1.0  0.16253  0.04295  0.20184  1.0000 -0.132121068
N   N128      1.0  0.95705  0.11957  0.20184  1.0000 -0.132121068
N   N129      1.0  0.88043  0.83747  0.20184  1.0000 -0.132121068
N   N130      1.0  0.82919  0.37629  0.53518  1.0000 -0.132121068
N   N131      1.0  0.62371  0.45291  0.53518  1.0000 -0.132121068
N   N132      1.0  0.54709  0.17081  0.53518  1.0000 -0.132121068
N   N133      1.0  0.49586  0.70962  0.86851  1.0000 -0.132121068
N   N134      1.0  0.29038  0.78624  0.86851  1.0000 -0.132121068
N   N135      1.0  0.21376  0.50414  0.86851  1.0000 -0.132121068
N   N136      1.0  0.10692  0.07093  0.22358  1.0000 -0.1375810035
N   N137      1.0  0.92907  0.03600  0.22358  1.0000 -0.1375810035
N   N138      1.0  0.96400  0.89308  0.22358  1.0000 -0.1375810035
N   N139      1.0  0.77359  0.40426  0.55691  1.0000 -0.1375810035
N   N140      1.0  0.59574  0.36933  0.55691  1.0000 -0.1375810035
N   N141      1.0  0.63067  0.22641  0.55691  1.0000 -0.1375810035
N   N142      1.0  0.44026  0.73759  0.89025  1.0000 -0.1375810035
N   N143      1.0  0.26241  0.70266  0.89025  1.0000 -0.1375810035
N   N144      1.0  0.29734  0.55974  0.89025  1.0000 -0.1375810035
