# DDEC6 charges by PACMAN v1.1 (https://github.com/mtap-research/PACMAN-charge/)
data_2007[Fe][dia]3[ASR]9
_chemical_formula_sum              "Fe12 H24 C24 O48"
_cell_length_a       11.5008
_cell_length_b       10.1568
_cell_length_c       18.9745
_cell_angle_alpha    90
_cell_angle_beta     126.357
_cell_angle_gamma    90

_symmetry_space_group_name_H-M    "P 1"
_symmetry_Int_Tables_number       1

loop_
  _symmetry_equiv_pos_as_xyz
  'x, y, z'

loop_
  _atom_site_type_symbol
  _atom_site_label
  _atom_site_symmetry_multiplicity
  _atom_site_fract_x
  _atom_site_fract_y
  _atom_site_fract_z
  _atom_site_occupancy
  _atom_site_charge
Fe  Fe1       1.0  0.61986  0.93155  0.86571  1.0000 0.8927262132
Fe  Fe2       1.0  0.38014  0.43155  0.63429  1.0000 0.8927262132
Fe  Fe3       1.0  0.38014  0.06845  0.13429  1.0000 0.8927262132
Fe  Fe4       1.0  0.61986  0.56845  0.36571  1.0000 0.8927262132
Fe  Fe5       1.0  0.56045  0.87095  0.30100  1.0000 0.908285216
Fe  Fe6       1.0  0.43955  0.37095  0.19900  1.0000 0.908285216
Fe  Fe7       1.0  0.43955  0.12905  0.69900  1.0000 0.908285216
Fe  Fe8       1.0  0.56045  0.62905  0.80100  1.0000 0.908285216
Fe  Fe9       1.0  0.50000  0.00000  0.00000  1.0000 0.9554705922
Fe  Fe10      1.0  0.50000  0.50000  0.50000  1.0000 0.9548349683
Fe  Fe11      1.0  0.00000  0.00000  0.00000  1.0000 0.9721402828
Fe  Fe12      1.0  0.00000  0.50000  0.50000  1.0000 0.9721402828
H   H1        1.0  0.47500  0.78400  0.62980  1.0000 0.1087092147
H   H2        1.0  0.52500  0.28400  0.87020  1.0000 0.1087092147
H   H3        1.0  0.52500  0.21600  0.37020  1.0000 0.1087092147
H   H4        1.0  0.47500  0.71600  0.12980  1.0000 0.1087092147
H   H5        1.0  0.22900  0.06600  0.74900  1.0000 0.1285721515
H   H6        1.0  0.77100  0.56600  0.75100  1.0000 0.1285721515
H   H7        1.0  0.77100  0.93400  0.25100  1.0000 0.1285721515
H   H8        1.0  0.22900  0.43400  0.24900  1.0000 0.1285721515
H   H9        1.0  0.47400  0.63200  0.93100  1.0000 0.1087092147
H   H10       1.0  0.52600  0.13200  0.56900  1.0000 0.1087092147
H   H11       1.0  0.52600  0.36800  0.06900  1.0000 0.1087092147
H   H12       1.0  0.47400  0.86800  0.43100  1.0000 0.1087092147
H   H13       1.0  0.75600  0.23400  0.79400  1.0000 0.0835101963
H   H14       1.0  0.24400  0.73400  0.70600  1.0000 0.0835101963
H   H15       1.0  0.24400  0.76600  0.20600  1.0000 0.0835101963
H   H16       1.0  0.75600  0.26600  0.29400  1.0000 0.0835101963
H   H17       1.0  0.78500  0.12300  0.08700  1.0000 0.1087092147
H   H18       1.0  0.21500  0.62300  0.41300  1.0000 0.1087092147
H   H19       1.0  0.21500  0.87700  0.91300  1.0000 0.1087092147
H   H20       1.0  0.78500  0.37700  0.58700  1.0000 0.1087092147
H   H21       1.0  0.96800  0.72200  0.96920  1.0000 0.1175236073
H   H22       1.0  0.03200  0.22200  0.53080  1.0000 0.1175236073
H   H23       1.0  0.03200  0.27800  0.03080  1.0000 0.1175236073
H   H24       1.0  0.96800  0.77800  0.46920  1.0000 0.1175236073
C   C1        1.0  0.49410  0.85180  0.67125  1.0000 0.4392357224
C   C2        1.0  0.50590  0.35180  0.82875  1.0000 0.4392357224
C   C3        1.0  0.50590  0.14820  0.32875  1.0000 0.4392357224
C   C4        1.0  0.49410  0.64820  0.17125  1.0000 0.4392357224
C   C5        1.0  0.31900  0.04270  0.79840  1.0000 0.4392357224
C   C6        1.0  0.68100  0.54270  0.70160  1.0000 0.4392357224
C   C7        1.0  0.68100  0.95730  0.20160  1.0000 0.4392357224
C   C8        1.0  0.31900  0.45730  0.29840  1.0000 0.4392357224
C   C9        1.0  0.49390  0.72410  0.92890  1.0000 0.4537929673
C   C10       1.0  0.50610  0.22410  0.57110  1.0000 0.4537929673
C   C11       1.0  0.50610  0.27590  0.07110  1.0000 0.4537929673
C   C12       1.0  0.49390  0.77590  0.42890  1.0000 0.4537929673
C   C13       1.0  0.77160  0.15710  0.83200  1.0000 0.4392357224
C   C14       1.0  0.22840  0.65710  0.66800  1.0000 0.4392357224
C   C15       1.0  0.22840  0.84290  0.16800  1.0000 0.4392357224
C   C16       1.0  0.77160  0.34290  0.33200  1.0000 0.4392357224
C   C17       1.0  0.78090  0.08020  0.03920  1.0000 0.4676629756
C   C18       1.0  0.21910  0.58020  0.46080  1.0000 0.4676629756
C   C19       1.0  0.21910  0.91980  0.96080  1.0000 0.4676629756
C   C20       1.0  0.78090  0.41980  0.53920  1.0000 0.4676629756
C   C21       1.0  0.86560  0.73640  0.93056  1.0000 0.4676629756
C   C22       1.0  0.13440  0.23640  0.56944  1.0000 0.4676629756
C   C23       1.0  0.13440  0.26360  0.06944  1.0000 0.4676629756
C   C24       1.0  0.86560  0.76360  0.43056  1.0000 0.4676629756
O   O1        1.0  0.55425  0.81878  0.74996  1.0000 -0.5389348384
O   O2        1.0  0.44575  0.31878  0.75004  1.0000 -0.5389348384
O   O3        1.0  0.44575  0.18122  0.25004  1.0000 -0.5389348384
O   O4        1.0  0.55425  0.68122  0.24996  1.0000 -0.5389348384
O   O5        1.0  0.44920  0.96250  0.63979  1.0000 -0.4719067473
O   O6        1.0  0.55080  0.46250  0.86021  1.0000 -0.4719067473
O   O7        1.0  0.55080  0.03750  0.36021  1.0000 -0.4719067473
O   O8        1.0  0.44920  0.53750  0.13979  1.0000 -0.4719067473
O   O9        1.0  0.41600  0.02428  0.78779  1.0000 -0.5389348384
O   O10       1.0  0.58400  0.52428  0.71221  1.0000 -0.5389348384
O   O11       1.0  0.58400  0.97572  0.21221  1.0000 -0.5389348384
O   O12       1.0  0.41600  0.47572  0.28779  1.0000 -0.5389348384
O   O13       1.0  0.33000  0.03080  0.86641  1.0000 -0.4817024875
O   O14       1.0  0.67000  0.53080  0.63359  1.0000 -0.4817024875
O   O15       1.0  0.67000  0.96920  0.13359  1.0000 -0.4817024875
O   O16       1.0  0.33000  0.46920  0.36641  1.0000 -0.4817024875
O   O17       1.0  0.53180  0.75596  0.88038  1.0000 -0.5389348384
O   O18       1.0  0.46820  0.25596  0.61962  1.0000 -0.5389348384
O   O19       1.0  0.46820  0.24404  0.11962  1.0000 -0.5389348384
O   O20       1.0  0.53180  0.74404  0.38038  1.0000 -0.5389348384
O   O21       1.0  0.48820  0.79726  0.97876  1.0000 -0.4878740604
O   O22       1.0  0.51180  0.29726  0.52124  1.0000 -0.4878740604
O   O23       1.0  0.51180  0.20274  0.02124  1.0000 -0.4878740604
O   O24       1.0  0.48820  0.70274  0.47876  1.0000 -0.4878740604
O   O25       1.0  0.65900  0.09741  0.81175  1.0000 -0.5389348384
O   O26       1.0  0.34100  0.59741  0.68825  1.0000 -0.5389348384
O   O27       1.0  0.34100  0.90259  0.18825  1.0000 -0.5389348384
O   O28       1.0  0.65900  0.40259  0.31175  1.0000 -0.5389348384
O   O29       1.0  0.89690  0.13200  0.89334  1.0000 -0.4719067473
O   O30       1.0  0.10310  0.63200  0.60666  1.0000 -0.4719067473
O   O31       1.0  0.10310  0.86800  0.10666  1.0000 -0.4719067473
O   O32       1.0  0.89690  0.36800  0.39334  1.0000 -0.4719067473
O   O33       1.0  0.66600  0.01951  0.97961  1.0000 -0.5495768632
O   O34       1.0  0.33400  0.51951  0.52039  1.0000 -0.5495768632
O   O35       1.0  0.33400  0.98049  0.02039  1.0000 -0.5495768632
O   O36       1.0  0.66600  0.48049  0.47961  1.0000 -0.5495768632
O   O37       1.0  0.89430  0.08800  0.04600  1.0000 -0.4817024875
O   O38       1.0  0.10570  0.58800  0.45400  1.0000 -0.4878740604
O   O39       1.0  0.10570  0.91200  0.95400  1.0000 -0.4878740604
O   O40       1.0  0.89430  0.41200  0.54600  1.0000 -0.4878740604
O   O41       1.0  0.82900  0.85505  0.92894  1.0000 -0.5389348384
O   O42       1.0  0.17100  0.35505  0.57106  1.0000 -0.5389348384
O   O43       1.0  0.17100  0.14495  0.07106  1.0000 -0.5389348384
O   O44       1.0  0.82900  0.64495  0.42894  1.0000 -0.5389348384
O   O45       1.0  0.78410  0.64209  0.89006  1.0000 -0.4817024875
O   O46       1.0  0.21590  0.14209  0.60994  1.0000 -0.4817024875
O   O47       1.0  0.21590  0.35791  0.10994  1.0000 -0.4817024875
O   O48       1.0  0.78410  0.85791  0.39006  1.0000 -0.4878740604
