# DDEC6 charges by PACMAN v1.1 (https://github.com/mtap-research/PACMAN-charge/)
data_2007[Fe][dia]3[ASR]6
_chemical_formula_sum              "Fe12 H24 C24 O48"
_cell_length_a       11.4136
_cell_length_b       9.9922
_cell_length_c       18.6468
_cell_angle_alpha    90
_cell_angle_beta     126.611
_cell_angle_gamma    90

_symmetry_space_group_name_H-M    "P 1"
_symmetry_Int_Tables_number       1

loop_
  _symmetry_equiv_pos_as_xyz
  'x, y, z'

loop_
  _atom_site_type_symbol
  _atom_site_label
  _atom_site_symmetry_multiplicity
  _atom_site_fract_x
  _atom_site_fract_y
  _atom_site_fract_z
  _atom_site_occupancy
  _atom_site_charge
Fe  Fe1       1.0  0.62111  0.92406  0.86629  1.0000 0.8931697563
Fe  Fe2       1.0  0.37889  0.42406  0.63371  1.0000 0.8931697563
Fe  Fe3       1.0  0.37889  0.07594  0.13371  1.0000 0.8931697563
Fe  Fe4       1.0  0.62111  0.57594  0.36629  1.0000 0.8931697563
Fe  Fe5       1.0  0.56858  0.88419  0.30726  1.0000 0.9026336029
Fe  Fe6       1.0  0.43142  0.38419  0.19274  1.0000 0.9026336029
Fe  Fe7       1.0  0.43142  0.11581  0.69274  1.0000 0.9026336029
Fe  Fe8       1.0  0.56858  0.61581  0.80726  1.0000 0.9026336029
Fe  Fe9       1.0  0.50000  0.00000  0.00000  1.0000 0.935347642
Fe  Fe10      1.0  0.50000  0.50000  0.50000  1.0000 0.935347642
Fe  Fe11      1.0  0.00000  0.00000  0.00000  1.0000 0.9637871042
Fe  Fe12      1.0  1.00000  0.50000  0.50000  1.0000 0.9637871042
H   H1        1.0  0.49000  0.76500  0.63100  1.0000 0.0943467374
H   H2        1.0  0.51000  0.26500  0.86900  1.0000 0.0943467374
H   H3        1.0  0.51000  0.23500  0.36900  1.0000 0.0943467374
H   H4        1.0  0.49000  0.73500  0.13100  1.0000 0.0953372002
H   H5        1.0  0.21900  0.05400  0.74100  1.0000 0.1178562708
H   H6        1.0  0.78100  0.55400  0.75900  1.0000 0.1178562708
H   H7        1.0  0.78100  0.94600  0.25900  1.0000 0.1178562708
H   H8        1.0  0.21900  0.44600  0.24100  1.0000 0.1178562708
H   H9        1.0  0.50400  0.62300  0.94600  1.0000 0.1274544328
H   H10       1.0  0.49600  0.12300  0.55400  1.0000 0.1274544328
H   H11       1.0  0.49600  0.37700  0.05400  1.0000 0.1274544328
H   H12       1.0  0.50400  0.87700  0.44600  1.0000 0.1274544328
H   H13       1.0  0.75600  0.22100  0.78200  1.0000 0.0754976377
H   H14       1.0  0.24400  0.72100  0.71800  1.0000 0.0754976377
H   H15       1.0  0.24400  0.77900  0.21800  1.0000 0.0754976377
H   H16       1.0  0.75600  0.27900  0.28200  1.0000 0.0754976377
H   H17       1.0  0.77100  0.14600  0.07400  1.0000 0.1274544328
H   H18       1.0  0.22900  0.64600  0.42600  1.0000 0.1274544328
H   H19       1.0  0.22900  0.85400  0.92600  1.0000 0.1274544328
H   H20       1.0  0.77100  0.35400  0.57400  1.0000 0.1274544328
H   H21       1.0  0.97300  0.71000  0.98000  1.0000 0.1274544328
H   H22       1.0  0.02700  0.21000  0.52000  1.0000 0.1274544328
H   H23       1.0  0.02700  0.29000  0.02000  1.0000 0.1274544328
H   H24       1.0  0.97300  0.79000  0.48000  1.0000 0.1274544328
C   C1        1.0  0.49810  0.83540  0.67050  1.0000 0.4486908048
C   C2        1.0  0.50190  0.33540  0.82950  1.0000 0.4486908048
C   C3        1.0  0.50190  0.16460  0.32950  1.0000 0.4486908048
C   C4        1.0  0.49810  0.66460  0.17050  1.0000 0.4486908048
C   C5        1.0  0.31060  0.02820  0.79360  1.0000 0.4378127872
C   C6        1.0  0.68940  0.52820  0.70640  1.0000 0.4378127872
C   C7        1.0  0.68940  0.97180  0.20640  1.0000 0.4378127872
C   C8        1.0  0.31060  0.47180  0.29360  1.0000 0.4378127872
C   C9        1.0  0.51260  0.71470  0.94170  1.0000 0.4378127872
C   C10       1.0  0.48740  0.21470  0.55830  1.0000 0.4378127872
C   C11       1.0  0.48740  0.28530  0.05830  1.0000 0.4347576752
C   C12       1.0  0.51260  0.78530  0.44170  1.0000 0.4378127872
C   C13       1.0  0.76840  0.14250  0.82130  1.0000 0.4378127872
C   C14       1.0  0.23160  0.64250  0.67870  1.0000 0.4378127872
C   C15       1.0  0.23160  0.85750  0.17870  1.0000 0.4378127872
C   C16       1.0  0.76840  0.35750  0.32130  1.0000 0.4378127872
C   C17       1.0  0.77750  0.09480  0.03480  1.0000 0.4660188859
C   C18       1.0  0.22250  0.59480  0.46520  1.0000 0.4660188859
C   C19       1.0  0.22250  0.90520  0.96520  1.0000 0.4660188859
C   C20       1.0  0.77750  0.40520  0.53480  1.0000 0.4660188859
C   C21       1.0  0.87370  0.72550  0.94050  1.0000 0.4638675406
C   C22       1.0  0.12630  0.22550  0.55950  1.0000 0.4660188859
C   C23       1.0  0.12630  0.27450  0.05950  1.0000 0.4638675406
C   C24       1.0  0.87370  0.77450  0.44050  1.0000 0.4660188859
O   O1        1.0  0.55920  0.80685  0.75161  1.0000 -0.5379741647
O   O2        1.0  0.44080  0.30685  0.74839  1.0000 -0.5379741647
O   O3        1.0  0.44080  0.19315  0.24839  1.0000 -0.5379741647
O   O4        1.0  0.55920  0.69315  0.25161  1.0000 -0.5379741647
O   O5        1.0  0.44600  0.94605  0.63470  1.0000 -0.4803278889
O   O6        1.0  0.55400  0.44605  0.86530  1.0000 -0.4803278889
O   O7        1.0  0.55400  0.05395  0.36530  1.0000 -0.4803278889
O   O8        1.0  0.44600  0.55395  0.13470  1.0000 -0.4803278889
O   O9        1.0  0.41070  0.01183  0.78447  1.0000 -0.5379741647
O   O10       1.0  0.58930  0.51183  0.71553  1.0000 -0.5379741647
O   O11       1.0  0.58930  0.98817  0.21553  1.0000 -0.5379741647
O   O12       1.0  0.41070  0.48817  0.28447  1.0000 -0.5379741647
O   O13       1.0  0.32270  0.01650  0.86328  1.0000 -0.4729853094
O   O14       1.0  0.67730  0.51650  0.63672  1.0000 -0.4729853094
O   O15       1.0  0.67730  0.98350  0.13672  1.0000 -0.4729853094
O   O16       1.0  0.32270  0.48350  0.36328  1.0000 -0.4729853094
O   O17       1.0  0.53980  0.74605  0.88724  1.0000 -0.5321083859
O   O18       1.0  0.46020  0.24605  0.61276  1.0000 -0.5321083859
O   O19       1.0  0.46020  0.25395  0.11276  1.0000 -0.5321083859
O   O20       1.0  0.53980  0.75395  0.38724  1.0000 -0.5321083859
O   O21       1.0  0.50310  0.79100  0.98962  1.0000 -0.4856820151
O   O22       1.0  0.49690  0.29100  0.51038  1.0000 -0.4856820151
O   O23       1.0  0.49690  0.20900  0.01038  1.0000 -0.4856820151
O   O24       1.0  0.50310  0.70900  0.48962  1.0000 -0.4856820151
O   O25       1.0  0.65570  0.08831  0.80684  1.0000 -0.5379741647
O   O26       1.0  0.34430  0.58831  0.69316  1.0000 -0.5379741647
O   O27       1.0  0.34430  0.91169  0.19316  1.0000 -0.5379741647
O   O28       1.0  0.65570  0.41169  0.30684  1.0000 -0.5379741647
O   O29       1.0  0.89600  0.11730  0.88338  1.0000 -0.4729853094
O   O30       1.0  0.10400  0.61730  0.61662  1.0000 -0.4729853094
O   O31       1.0  0.10400  0.88270  0.11662  1.0000 -0.4729853094
O   O32       1.0  0.89600  0.38270  0.38338  1.0000 -0.4729853094
O   O33       1.0  0.66490  0.02494  0.97836  1.0000 -0.5513684347
O   O34       1.0  0.33510  0.52494  0.52164  1.0000 -0.5513684347
O   O35       1.0  0.33510  0.97506  0.02164  1.0000 -0.5513684347
O   O36       1.0  0.66490  0.47506  0.47836  1.0000 -0.5513684347
O   O37       1.0  0.89000  0.10270  0.04082  1.0000 -0.4803278889
O   O38       1.0  0.11000  0.60270  0.45918  1.0000 -0.4803278889
O   O39       1.0  0.11000  0.89730  0.95918  1.0000 -0.4803278889
O   O40       1.0  0.89000  0.39730  0.54082  1.0000 -0.4803278889
O   O41       1.0  0.83370  0.84679  0.93473  1.0000 -0.5379741647
O   O42       1.0  0.16630  0.34679  0.56527  1.0000 -0.5379741647
O   O43       1.0  0.16630  0.15321  0.06527  1.0000 -0.5379741647
O   O44       1.0  0.83370  0.65321  0.43473  1.0000 -0.5379741647
O   O45       1.0  0.79360  0.62853  0.89943  1.0000 -0.4803278889
O   O46       1.0  0.20640  0.12853  0.60057  1.0000 -0.4803278889
O   O47       1.0  0.20640  0.37147  0.10057  1.0000 -0.4803278889
O   O48       1.0  0.79360  0.87147  0.39943  1.0000 -0.4803278889
