# DDEC6 charges by PACMAN v1.1 (https://github.com/mtap-research/PACMAN-charge/)
data_2007[Fe][dia]3[ASR]8
_chemical_formula_sum              "Fe12 H24 C24 O48"
_cell_length_a       11.4667
_cell_length_b       10.0705
_cell_length_c       18.9071
_cell_angle_alpha    90
_cell_angle_beta     126.439
_cell_angle_gamma    90

_symmetry_space_group_name_H-M    "P 1"
_symmetry_Int_Tables_number       1

loop_
  _symmetry_equiv_pos_as_xyz
  'x, y, z'

loop_
  _atom_site_type_symbol
  _atom_site_label
  _atom_site_symmetry_multiplicity
  _atom_site_fract_x
  _atom_site_fract_y
  _atom_site_fract_z
  _atom_site_occupancy
  _atom_site_charge
Fe  Fe1       1.0  0.61988  0.92826  0.86567  1.0000 0.9094209719
Fe  Fe2       1.0  0.38012  0.42826  0.63433  1.0000 0.9094209719
Fe  Fe3       1.0  0.38012  0.07174  0.13433  1.0000 0.9094209719
Fe  Fe4       1.0  0.61988  0.57174  0.36567  1.0000 0.9094209719
Fe  Fe5       1.0  0.56185  0.87582  0.30237  1.0000 0.9158535609
Fe  Fe6       1.0  0.43815  0.37582  0.19763  1.0000 0.9094209719
Fe  Fe7       1.0  0.43815  0.12418  0.69763  1.0000 0.9158535609
Fe  Fe8       1.0  0.56185  0.62418  0.80237  1.0000 0.9158535609
Fe  Fe9       1.0  0.50000  0.00000  0.00000  1.0000 0.9570305158
Fe  Fe10      1.0  0.50000  0.50000  0.50000  1.0000 0.9570305158
Fe  Fe11      1.0  0.00000  0.00000  0.00000  1.0000 0.9690686871
Fe  Fe12      1.0  0.00000  0.50000  0.50000  1.0000 0.9690686871
H   H1        1.0  0.48200  0.77400  0.63180  1.0000 0.1022440527
H   H2        1.0  0.51800  0.27400  0.86820  1.0000 0.1022440527
H   H3        1.0  0.51800  0.22600  0.36820  1.0000 0.1022440527
H   H4        1.0  0.48200  0.72600  0.13180  1.0000 0.1022440527
H   H5        1.0  0.22200  0.05900  0.74600  1.0000 0.1184711714
H   H6        1.0  0.77800  0.55900  0.75400  1.0000 0.1184711714
H   H7        1.0  0.77800  0.94100  0.25400  1.0000 0.1184711714
H   H8        1.0  0.22200  0.44100  0.24600  1.0000 0.1184711714
H   H9        1.0  0.45700  0.62300  0.92240  1.0000 0.0822661813
H   H10       1.0  0.54300  0.12300  0.57760  1.0000 0.0822661813
H   H11       1.0  0.54300  0.37700  0.07760  1.0000 0.0822661813
H   H12       1.0  0.45700  0.87700  0.42240  1.0000 0.0822661813
H   H13       1.0  0.75700  0.22800  0.79340  1.0000 0.1096106867
H   H14       1.0  0.24300  0.72800  0.70660  1.0000 0.1096106867
H   H15       1.0  0.24300  0.77200  0.20660  1.0000 0.1096106867
H   H16       1.0  0.75700  0.27200  0.29340  1.0000 0.1096106867
H   H17       1.0  0.78100  0.12900  0.08460  1.0000 0.1096106867
H   H18       1.0  0.21900  0.62900  0.41540  1.0000 0.1096106867
H   H19       1.0  0.21900  0.87100  0.91540  1.0000 0.1096106867
H   H20       1.0  0.78100  0.37100  0.58460  1.0000 0.1096106867
H   H21       1.0  0.96300  0.71700  0.96890  1.0000 0.1480667811
H   H22       1.0  0.03700  0.21700  0.53110  1.0000 0.1480667811
H   H23       1.0  0.03700  0.28300  0.03110  1.0000 0.1480667811
H   H24       1.0  0.96300  0.78300  0.46890  1.0000 0.1480667811
C   C1        1.0  0.49560  0.84610  0.67087  1.0000 0.4459605027
C   C2        1.0  0.50440  0.34610  0.82913  1.0000 0.4459605027
C   C3        1.0  0.50440  0.15390  0.32913  1.0000 0.4459605027
C   C4        1.0  0.49560  0.65390  0.17087  1.0000 0.4459605027
C   C5        1.0  0.31600  0.03910  0.79665  1.0000 0.4413018186
C   C6        1.0  0.68400  0.53910  0.70335  1.0000 0.4413018186
C   C7        1.0  0.68400  0.96090  0.20335  1.0000 0.4413018186
C   C8        1.0  0.31600  0.46090  0.29665  1.0000 0.4413018186
C   C9        1.0  0.49170  0.71990  0.92917  1.0000 0.458920135
C   C10       1.0  0.50830  0.21990  0.57083  1.0000 0.458920135
C   C11       1.0  0.50830  0.28010  0.07083  1.0000 0.458920135
C   C12       1.0  0.49170  0.78010  0.42917  1.0000 0.458920135
C   C13       1.0  0.77110  0.15640  0.83077  1.0000 0.4300204326
C   C14       1.0  0.22890  0.65640  0.66923  1.0000 0.4300204326
C   C15       1.0  0.22890  0.84360  0.16923  1.0000 0.4300204326
C   C16       1.0  0.77110  0.34360  0.33077  1.0000 0.4300204326
C   C17       1.0  0.78040  0.08190  0.03872  1.0000 0.458920135
C   C18       1.0  0.21960  0.58190  0.46128  1.0000 0.4659329016
C   C19       1.0  0.21960  0.91810  0.96128  1.0000 0.4659329016
C   C20       1.0  0.78040  0.41810  0.53872  1.0000 0.458920135
C   C21       1.0  0.86740  0.73180  0.93305  1.0000 0.458920135
C   C22       1.0  0.13260  0.23180  0.56695  1.0000 0.458920135
C   C23       1.0  0.13260  0.26820  0.06695  1.0000 0.458920135
C   C24       1.0  0.86740  0.76820  0.43305  1.0000 0.458920135
O   O1        1.0  0.55685  0.81432  0.75063  1.0000 -0.546630632
O   O2        1.0  0.44315  0.31432  0.74937  1.0000 -0.5427991739
O   O3        1.0  0.44315  0.18568  0.24937  1.0000 -0.546630632
O   O4        1.0  0.55685  0.68568  0.25063  1.0000 -0.546630632
O   O5        1.0  0.44848  0.95715  0.63792  1.0000 -0.4724775519
O   O6        1.0  0.55152  0.45715  0.86208  1.0000 -0.4724775519
O   O7        1.0  0.55152  0.04285  0.36208  1.0000 -0.4724775519
O   O8        1.0  0.44848  0.54285  0.13792  1.0000 -0.4724775519
O   O9        1.0  0.41425  0.01838  0.78643  1.0000 -0.5427991739
O   O10       1.0  0.58575  0.51838  0.71357  1.0000 -0.5427991739
O   O11       1.0  0.58575  0.98162  0.21357  1.0000 -0.5427991739
O   O12       1.0  0.41425  0.48162  0.28643  1.0000 -0.5427991739
O   O13       1.0  0.32905  0.03030  0.86590  1.0000 -0.4811003423
O   O14       1.0  0.67095  0.53030  0.63410  1.0000 -0.4811003423
O   O15       1.0  0.67095  0.96970  0.13410  1.0000 -0.4811003423
O   O16       1.0  0.32905  0.46970  0.36590  1.0000 -0.4811003423
O   O17       1.0  0.53094  0.75231  0.88081  1.0000 -0.546630632
O   O18       1.0  0.46906  0.25231  0.61919  1.0000 -0.546630632
O   O19       1.0  0.46906  0.24769  0.11919  1.0000 -0.546630632
O   O20       1.0  0.53094  0.74769  0.38081  1.0000 -0.546630632
O   O21       1.0  0.48727  0.79511  0.97938  1.0000 -0.4944868874
O   O22       1.0  0.51273  0.29511  0.52062  1.0000 -0.4957450073
O   O23       1.0  0.51273  0.20489  0.02062  1.0000 -0.4944868874
O   O24       1.0  0.48727  0.70489  0.47938  1.0000 -0.4957450073
O   O25       1.0  0.65790  0.09532  0.81096  1.0000 -0.5427991739
O   O26       1.0  0.34210  0.59532  0.68904  1.0000 -0.5427991739
O   O27       1.0  0.34210  0.90468  0.18904  1.0000 -0.5427991739
O   O28       1.0  0.65790  0.40468  0.31096  1.0000 -0.5427991739
O   O29       1.0  0.89695  0.13179  0.89233  1.0000 -0.4724775519
O   O30       1.0  0.10305  0.63179  0.60767  1.0000 -0.4724775519
O   O31       1.0  0.10305  0.86821  0.10767  1.0000 -0.4724775519
O   O32       1.0  0.89695  0.36821  0.39233  1.0000 -0.4724775519
O   O33       1.0  0.66568  0.01881  0.97940  1.0000 -0.546630632
O   O34       1.0  0.33432  0.51881  0.52060  1.0000 -0.546630632
O   O35       1.0  0.33432  0.98119  0.02060  1.0000 -0.546630632
O   O36       1.0  0.66568  0.48119  0.47940  1.0000 -0.546630632
O   O37       1.0  0.89415  0.09013  0.04577  1.0000 -0.4811003423
O   O38       1.0  0.10585  0.59013  0.45423  1.0000 -0.4811003423
O   O39       1.0  0.10585  0.90987  0.95423  1.0000 -0.4811003423
O   O40       1.0  0.89415  0.40987  0.54577  1.0000 -0.4811003423
O   O41       1.0  0.83013  0.85255  0.93020  1.0000 -0.546630632
O   O42       1.0  0.16987  0.35255  0.56980  1.0000 -0.546630632
O   O43       1.0  0.16987  0.14745  0.06980  1.0000 -0.546630632
O   O44       1.0  0.83013  0.64745  0.43020  1.0000 -0.546630632
O   O45       1.0  0.78659  0.63634  0.89295  1.0000 -0.4811003423
O   O46       1.0  0.21341  0.13634  0.60705  1.0000 -0.4811003423
O   O47       1.0  0.21341  0.36366  0.10705  1.0000 -0.4811003423
O   O48       1.0  0.78659  0.86366  0.39295  1.0000 -0.4811003423
