# DDEC6 charges by PACMAN v1.1 (https://github.com/mtap-research/PACMAN-charge/)
data_2007[Mn][dia]3[ASR]5
_chemical_formula_sum              "Mn12 H24 C24 O48"
_cell_length_a       11.7561
_cell_length_b       10.2072
_cell_length_c       18.7245
_cell_angle_alpha    90
_cell_angle_beta     127.003
_cell_angle_gamma    90

_symmetry_space_group_name_H-M    "P 1"
_symmetry_Int_Tables_number       1

loop_
  _symmetry_equiv_pos_as_xyz
  'x, y, z'

loop_
  _atom_site_type_symbol
  _atom_site_label
  _atom_site_symmetry_multiplicity
  _atom_site_fract_x
  _atom_site_fract_y
  _atom_site_fract_z
  _atom_site_occupancy
  _atom_site_charge
Mn  Mn1       1.0  0.62514  0.91931  0.86835  1.0000 0.9761807189
Mn  Mn2       1.0  0.37486  0.41931  0.63165  1.0000 0.9761807189
Mn  Mn3       1.0  0.37486  0.08069  0.13165  1.0000 0.9761807189
Mn  Mn4       1.0  0.62514  0.58069  0.36835  1.0000 0.9761807189
Mn  Mn5       1.0  0.42634  0.10688  0.68718  1.0000 0.9761807189
Mn  Mn6       1.0  0.57366  0.60688  0.81282  1.0000 0.9761807189
Mn  Mn7       1.0  0.57366  0.89312  0.31282  1.0000 0.9761807189
Mn  Mn8       1.0  0.42634  0.39312  0.18718  1.0000 0.9761807189
Mn  Mn9       1.0  0.50000  0.00000  0.00000  1.0000 0.9945568607
Mn  Mn10      1.0  0.50000  0.50000  0.50000  1.0000 0.9945568607
Mn  Mn11      1.0  0.00000  0.00000  0.00000  1.0000 1.0017153785
Mn  Mn12      1.0  0.00000  0.50000  0.50000  1.0000 1.0017153785
H   H1        1.0  0.47600  0.75300  0.62920  1.0000 0.0885960028
H   H2        1.0  0.52400  0.25300  0.87080  1.0000 0.0885960028
H   H3        1.0  0.52400  0.24700  0.37080  1.0000 0.0885960028
H   H4        1.0  0.47600  0.74700  0.12920  1.0000 0.0885960028
H   H5        1.0  0.21800  0.03400  0.73470  1.0000 0.079972415
H   H6        1.0  0.78200  0.53400  0.76530  1.0000 0.079972415
H   H7        1.0  0.78200  0.96600  0.26530  1.0000 0.079972415
H   H8        1.0  0.21800  0.46600  0.23470  1.0000 0.079972415
H   H9        1.0  0.52500  0.61500  0.95890  1.0000 0.079972415
H   H10       1.0  0.47500  0.11500  0.54110  1.0000 0.079972415
H   H11       1.0  0.47500  0.38500  0.04110  1.0000 0.079972415
H   H12       1.0  0.52500  0.88500  0.45890  1.0000 0.079972415
H   H13       1.0  0.73800  0.21400  0.77620  1.0000 0.0709877626
H   H14       1.0  0.26200  0.71400  0.72380  1.0000 0.0709877626
H   H15       1.0  0.26200  0.78600  0.22380  1.0000 0.0709877626
H   H16       1.0  0.73800  0.28600  0.27620  1.0000 0.0709877626
H   H17       1.0  0.77100  0.15300  0.07420  1.0000 0.0885960028
H   H18       1.0  0.22900  0.65300  0.42580  1.0000 0.0885960028
H   H19       1.0  0.22900  0.84700  0.92580  1.0000 0.0885960028
H   H20       1.0  0.77100  0.34700  0.57420  1.0000 0.0885960028
H   H21       1.0  0.96900  0.70700  0.97270  1.0000 0.1187561096
H   H22       1.0  0.03100  0.20700  0.52730  1.0000 0.1187561096
H   H23       1.0  0.03100  0.29300  0.02730  1.0000 0.1187561096
H   H24       1.0  0.96900  0.79300  0.47270  1.0000 0.1187561096
C   C1        1.0  0.49260  0.82540  0.66854  1.0000 0.483053656
C   C2        1.0  0.50740  0.32540  0.83146  1.0000 0.483053656
C   C3        1.0  0.50740  0.17460  0.33146  1.0000 0.483053656
C   C4        1.0  0.49260  0.67460  0.16854  1.0000 0.483053656
C   C5        1.0  0.31130  0.01860  0.79141  1.0000 0.4606433824
C   C6        1.0  0.68870  0.51860  0.70859  1.0000 0.4606433824
C   C7        1.0  0.68870  0.98140  0.20859  1.0000 0.4606433824
C   C8        1.0  0.31130  0.48140  0.29141  1.0000 0.4606433824
C   C9        1.0  0.52690  0.71240  0.95001  1.0000 0.4670373739
C   C10       1.0  0.47310  0.21240  0.54999  1.0000 0.4670373739
C   C11       1.0  0.47310  0.28760  0.04999  1.0000 0.4670373739
C   C12       1.0  0.52690  0.78760  0.45001  1.0000 0.4670373739
C   C13       1.0  0.76060  0.14040  0.81952  1.0000 0.4606433824
C   C14       1.0  0.23940  0.64040  0.68048  1.0000 0.4606433824
C   C15       1.0  0.23940  0.85960  0.18048  1.0000 0.4606433824
C   C16       1.0  0.76060  0.35960  0.31952  1.0000 0.4606433824
C   C17       1.0  0.77640  0.09710  0.03587  1.0000 0.483053656
C   C18       1.0  0.22360  0.59710  0.46413  1.0000 0.483053656
C   C19       1.0  0.22360  0.90290  0.96413  1.0000 0.483053656
C   C20       1.0  0.77640  0.40290  0.53587  1.0000 0.483053656
C   C21       1.0  0.87710  0.72450  0.94031  1.0000 0.4927760825
C   C22       1.0  0.12290  0.22450  0.55969  1.0000 0.4927760825
C   C23       1.0  0.12290  0.27550  0.05969  1.0000 0.4927760825
C   C24       1.0  0.87710  0.77550  0.44031  1.0000 0.4927760825
O   O1        1.0  0.55475  0.79934  0.75082  1.0000 -0.5582847542
O   O2        1.0  0.44525  0.29934  0.74918  1.0000 -0.5582847542
O   O3        1.0  0.44525  0.20066  0.24918  1.0000 -0.5582847542
O   O4        1.0  0.55475  0.70066  0.25082  1.0000 -0.5582847542
O   O5        1.0  0.44395  0.93310  0.63219  1.0000 -0.5021786357
O   O6        1.0  0.55605  0.43310  0.86781  1.0000 -0.5021786357
O   O7        1.0  0.55605  0.06690  0.36781  1.0000 -0.5021786357
O   O8        1.0  0.44395  0.56690  0.13219  1.0000 -0.5021786357
O   O9        1.0  0.41139  0.00751  0.78371  1.0000 -0.5582847542
O   O10       1.0  0.58861  0.50751  0.71629  1.0000 -0.5582847542
O   O11       1.0  0.58861  0.99249  0.21629  1.0000 -0.5582847542
O   O12       1.0  0.41139  0.49249  0.28371  1.0000 -0.5582847542
O   O13       1.0  0.32209  0.00210  0.86012  1.0000 -0.4901435508
O   O14       1.0  0.67791  0.50210  0.63988  1.0000 -0.4901435508
O   O15       1.0  0.67791  0.99790  0.13988  1.0000 -0.4901435508
O   O16       1.0  0.32209  0.49790  0.36012  1.0000 -0.4901435508
O   O17       1.0  0.54807  0.74211  0.89288  1.0000 -0.5582847542
O   O18       1.0  0.45193  0.24211  0.60712  1.0000 -0.5582847542
O   O19       1.0  0.45193  0.25789  0.10712  1.0000 -0.5582847542
O   O20       1.0  0.54807  0.75789  0.39288  1.0000 -0.5582847542
O   O21       1.0  0.51685  0.79002  0.99669  1.0000 -0.5021786357
O   O22       1.0  0.48315  0.29002  0.50331  1.0000 -0.5021786357
O   O23       1.0  0.48315  0.20998  0.00331  1.0000 -0.5021786357
O   O24       1.0  0.51685  0.70998  0.49669  1.0000 -0.5021786357
O   O25       1.0  0.65296  0.08066  0.80396  1.0000 -0.5512225687
O   O26       1.0  0.34704  0.58066  0.69604  1.0000 -0.5512225687
O   O27       1.0  0.34704  0.91934  0.19604  1.0000 -0.5512225687
O   O28       1.0  0.65296  0.41934  0.30396  1.0000 -0.5512225687
O   O29       1.0  0.88597  0.11890  0.88140  1.0000 -0.4901435508
O   O30       1.0  0.11403  0.61890  0.61860  1.0000 -0.4901435508
O   O31       1.0  0.11403  0.88110  0.11860  1.0000 -0.4901435508
O   O32       1.0  0.88597  0.38110  0.38140  1.0000 -0.4901435508
O   O33       1.0  0.66590  0.02890  0.97924  1.0000 -0.5582847542
O   O34       1.0  0.33410  0.52890  0.52076  1.0000 -0.5582847542
O   O35       1.0  0.33410  0.97110  0.02076  1.0000 -0.5582847542
O   O36       1.0  0.66590  0.47110  0.47924  1.0000 -0.5582847542
O   O37       1.0  0.88847  0.09836  0.04434  1.0000 -0.5021786357
O   O38       1.0  0.11153  0.59836  0.45566  1.0000 -0.5021786357
O   O39       1.0  0.11153  0.90164  0.95566  1.0000 -0.5021786357
O   O40       1.0  0.88847  0.40164  0.54434  1.0000 -0.5021786357
O   O41       1.0  0.83856  0.84242  0.93564  1.0000 -0.5512225687
O   O42       1.0  0.16144  0.34242  0.56436  1.0000 -0.5512225687
O   O43       1.0  0.16144  0.15758  0.06436  1.0000 -0.5512225687
O   O44       1.0  0.83856  0.65758  0.43564  1.0000 -0.5512225687
O   O45       1.0  0.79795  0.62893  0.90281  1.0000 -0.5021786357
O   O46       1.0  0.20205  0.12893  0.59719  1.0000 -0.5021786357
O   O47       1.0  0.20205  0.37107  0.09719  1.0000 -0.5021786357
O   O48       1.0  0.79795  0.87107  0.40281  1.0000 -0.5021786357
