# DDEC6 charges by PACMAN v1.1 (https://github.com/mtap-research/PACMAN-charge/)
data_2007[Zn][pts]3[ASR]1
_chemical_formula_sum              "Zn2 P4 H12 C12 O16"
_cell_length_a       10.4571
_cell_length_b       10.4571
_cell_length_c       9.1571
_cell_angle_alpha    79.6951
_cell_angle_beta     100.305
_cell_angle_gamma    95.8993

_symmetry_space_group_name_H-M    "P 1"
_symmetry_Int_Tables_number       1

loop_
  _symmetry_equiv_pos_as_xyz
  'x, y, z'

loop_
  _atom_site_type_symbol
  _atom_site_label
  _atom_site_symmetry_multiplicity
  _atom_site_fract_x
  _atom_site_fract_y
  _atom_site_fract_z
  _atom_site_occupancy
  _atom_site_charge
Zn  Zn1       1.0  0.97557  0.97557  0.75000  1.0000 1.0895112008
Zn  Zn2       1.0  0.02443  0.02443  0.25000  1.0000 1.0895112008
P   P1        1.0  0.79368  0.94474  0.99153  1.0000 1.2699905187
P   P2        1.0  0.94474  0.79368  0.50847  1.0000 1.2699905187
P   P3        1.0  0.20632  0.05526  0.00847  1.0000 1.2699905187
P   P4        1.0  0.05526  0.20632  0.49153  1.0000 1.2699905187
H   H1        1.0  0.76510  0.75250  0.01320  1.0000 0.3818342835
H   H2        1.0  0.75250  0.76510  0.48680  1.0000 0.3818342835
H   H3        1.0  0.23490  0.24750  0.98680  1.0000 0.3818342835
H   H4        1.0  0.24750  0.23490  0.51320  1.0000 0.3818342835
H   H5        1.0  0.65410  0.03750  0.72640  1.0000 0.3606007248
H   H6        1.0  0.03750  0.65410  0.77360  1.0000 0.3606007248
H   H7        1.0  0.34590  0.96250  0.27360  1.0000 0.3606007248
H   H8        1.0  0.96250  0.34590  0.22640  1.0000 0.3606007248
H   H9        1.0  0.63690  0.91370  0.21440  1.0000 0.1298796386
H   H10       1.0  0.91370  0.63690  0.28560  1.0000 0.1298796386
H   H11       1.0  0.36310  0.08630  0.78560  1.0000 0.1298796386
H   H12       1.0  0.08630  0.36310  0.71440  1.0000 0.1298796386
C   C1        1.0  0.54332  0.02668  0.86100  1.0000 0.2923230975
C   C2        1.0  0.02668  0.54332  0.63900  1.0000 0.2923230975
C   C3        1.0  0.45668  0.97332  0.13900  1.0000 0.2923230975
C   C4        1.0  0.97332  0.45668  0.36100  1.0000 0.2923230975
C   C5        1.0  0.62691  0.97425  0.99010  1.0000 -0.3120189756
C   C6        1.0  0.97425  0.62691  0.50990  1.0000 -0.3120189756
C   C7        1.0  0.37309  0.02575  0.00990  1.0000 -0.3120189756
C   C8        1.0  0.02575  0.37309  0.49010  1.0000 -0.3120189756
C   C9        1.0  0.58180  0.94840  0.12820  1.0000 -0.1736024767
C   C10       1.0  0.94840  0.58180  0.37180  1.0000 -0.1736024767
C   C11       1.0  0.41820  0.05160  0.87180  1.0000 -0.1736024767
C   C12       1.0  0.05160  0.41820  0.62820  1.0000 -0.1736024767
O   O1        1.0  0.81519  0.80069  0.06210  1.0000 -0.5574202091
O   O2        1.0  0.80069  0.81519  0.43790  1.0000 -0.5574202091
O   O3        1.0  0.18481  0.19931  0.93790  1.0000 -0.5574202091
O   O4        1.0  0.19931  0.18481  0.56210  1.0000 -0.5574202091
O   O5        1.0  0.81232  0.97302  0.82700  1.0000 -0.7478894145
O   O6        1.0  0.97302  0.81232  0.67300  1.0000 -0.7478894145
O   O7        1.0  0.18768  0.02698  0.17300  1.0000 -0.7478894145
O   O8        1.0  0.02698  0.18768  0.32700  1.0000 -0.7478894145
O   O9        1.0  0.87936  0.03108  0.08930  1.0000 -0.730768472
O   O10       1.0  0.03108  0.87936  0.41070  1.0000 -0.730768472
O   O11       1.0  0.12064  0.96892  0.91070  1.0000 -0.730768472
O   O12       1.0  0.96892  0.12064  0.58930  1.0000 -0.730768472
O   O13       1.0  0.57912  0.05662  0.72100  1.0000 -0.4576843158
O   O14       1.0  0.05662  0.57912  0.77900  1.0000 -0.4576843158
O   O15       1.0  0.42088  0.94338  0.27900  1.0000 -0.4576843158
O   O16       1.0  0.94338  0.42088  0.22100  1.0000 -0.4576843158
