# DDEC6 charges by PACMAN v1.1 (https://github.com/mtap-research/PACMAN-charge/)
data_2007[La][nan]3[ASR]1
_chemical_formula_sum              "La8 C16 N4 O48"
_cell_length_a       6.56
_cell_length_b       11.411
_cell_length_c       18.929
_cell_angle_alpha    90
_cell_angle_beta     90
_cell_angle_gamma    90

_symmetry_space_group_name_H-M    "P 1"
_symmetry_Int_Tables_number       1

loop_
  _symmetry_equiv_pos_as_xyz
  'x, y, z'

loop_
  _atom_site_type_symbol
  _atom_site_label
  _atom_site_symmetry_multiplicity
  _atom_site_fract_x
  _atom_site_fract_y
  _atom_site_fract_z
  _atom_site_occupancy
  _atom_site_charge
La  La1       1.0  0.86248  0.00000  0.24714  1.0000 1.7902161757
La  La2       1.0  0.13752  0.00000  0.75286  1.0000 1.7902161757
La  La3       1.0  0.36248  0.50000  0.25286  1.0000 1.7902161757
La  La4       1.0  0.63752  0.50000  0.74714  1.0000 1.7902161757
La  La5       1.0  0.75247  0.50000  0.08065  1.0000 1.7578600626
La  La6       1.0  0.24753  0.50000  0.91935  1.0000 1.7578600626
La  La7       1.0  0.25247  0.00000  0.41935  1.0000 1.7578600626
La  La8       1.0  0.74753  0.00000  0.58065  1.0000 1.7578600626
C   C1        1.0  0.74320  0.72230  0.20591  1.0000 0.5083504001
C   C2        1.0  0.25680  0.72230  0.79409  1.0000 0.5083504001
C   C3        1.0  0.24320  0.77770  0.29409  1.0000 0.5083504001
C   C4        1.0  0.75680  0.77770  0.70591  1.0000 0.5083504001
C   C5        1.0  0.25680  0.27770  0.79409  1.0000 0.5083504001
C   C6        1.0  0.74320  0.27770  0.20591  1.0000 0.5083504001
C   C7        1.0  0.75680  0.22230  0.70591  1.0000 0.5083504001
C   C8        1.0  0.24320  0.22230  0.29409  1.0000 0.5083504001
C   C9        1.0  0.85460  0.77020  0.13970  1.0000 0.5189471523
C   C10       1.0  0.14540  0.77020  0.86030  1.0000 0.5189471523
C   C11       1.0  0.35460  0.72980  0.36030  1.0000 0.5189471523
C   C12       1.0  0.64540  0.72980  0.63970  1.0000 0.5189471523
C   C13       1.0  0.14540  0.22980  0.86030  1.0000 0.5189471523
C   C14       1.0  0.85460  0.22980  0.13970  1.0000 0.5189471523
C   C15       1.0  0.64540  0.27020  0.63970  1.0000 0.5189471523
C   C16       1.0  0.35460  0.27020  0.36030  1.0000 0.5189471523
N   N1        1.0  0.70480  0.00000  0.39230  1.0000 0.7325867842
N   N2        1.0  0.29520  0.00000  0.60770  1.0000 0.7325867842
N   N3        1.0  0.20480  0.50000  0.10770  1.0000 0.7325867842
N   N4        1.0  0.79520  0.50000  0.89230  1.0000 0.7325867842
O   O1        1.0  0.73220  0.78870  0.25785  1.0000 -0.5390212481
O   O2        1.0  0.26780  0.78870  0.74215  1.0000 -0.5390212481
O   O3        1.0  0.23220  0.71130  0.24215  1.0000 -0.5390212481
O   O4        1.0  0.76780  0.71130  0.75785  1.0000 -0.5390212481
O   O5        1.0  0.26780  0.21130  0.74215  1.0000 -0.5390212481
O   O6        1.0  0.73220  0.21130  0.25785  1.0000 -0.5390212481
O   O7        1.0  0.76780  0.28870  0.75785  1.0000 -0.5390212481
O   O8        1.0  0.23220  0.28870  0.24215  1.0000 -0.5390212481
O   O9        1.0  0.67410  0.61990  0.20082  1.0000 -0.5995791574
O   O10       1.0  0.32590  0.61990  0.79918  1.0000 -0.5995791574
O   O11       1.0  0.17410  0.88010  0.29918  1.0000 -0.5995791574
O   O12       1.0  0.82590  0.88010  0.70082  1.0000 -0.5995791574
O   O13       1.0  0.32590  0.38010  0.79918  1.0000 -0.5995791574
O   O14       1.0  0.67410  0.38010  0.20082  1.0000 -0.5995791574
O   O15       1.0  0.82590  0.11990  0.70082  1.0000 -0.5995791574
O   O16       1.0  0.17410  0.11990  0.29918  1.0000 -0.5995791574
O   O17       1.0  0.92700  0.87250  0.14428  1.0000 -0.5576696937
O   O18       1.0  0.07300  0.87250  0.85572  1.0000 -0.5576696937
O   O19       1.0  0.42700  0.62750  0.35572  1.0000 -0.5576696937
O   O20       1.0  0.57300  0.62750  0.64428  1.0000 -0.5576696937
O   O21       1.0  0.07300  0.12750  0.85572  1.0000 -0.5576696937
O   O22       1.0  0.92700  0.12750  0.14428  1.0000 -0.5576696937
O   O23       1.0  0.57300  0.37250  0.64428  1.0000 -0.5576696937
O   O24       1.0  0.42700  0.37250  0.35572  1.0000 -0.5576696937
O   O25       1.0  0.86800  0.70640  0.08688  1.0000 -0.5160356839
O   O26       1.0  0.13200  0.70640  0.91312  1.0000 -0.5160356839
O   O27       1.0  0.36800  0.79360  0.41312  1.0000 -0.5160356839
O   O28       1.0  0.63200  0.79360  0.58688  1.0000 -0.5142452353
O   O29       1.0  0.13200  0.29360  0.91312  1.0000 -0.5160356839
O   O30       1.0  0.86800  0.29360  0.08688  1.0000 -0.5160356839
O   O31       1.0  0.63200  0.20640  0.58688  1.0000 -0.5142452353
O   O32       1.0  0.36800  0.20640  0.41312  1.0000 -0.5142452353
O   O33       1.0  0.89610  0.00000  0.37810  1.0000 -0.5142452353
O   O34       1.0  0.10390  0.00000  0.62190  1.0000 -0.5142452353
O   O35       1.0  0.39610  0.50000  0.12190  1.0000 -0.5142452353
O   O36       1.0  0.60390  0.50000  0.87810  1.0000 -0.5142452353
O   O37       1.0  0.57930  0.00000  0.33986  1.0000 -0.5457113405
O   O38       1.0  0.42070  0.00000  0.66014  1.0000 -0.5457113405
O   O39       1.0  0.07930  0.50000  0.16014  1.0000 -0.5457113405
O   O40       1.0  0.92070  0.50000  0.83986  1.0000 -0.5457113405
O   O41       1.0  0.63720  0.00000  0.45459  1.0000 -0.484408321
O   O42       1.0  0.36280  0.00000  0.54541  1.0000 -0.486168625
O   O43       1.0  0.13720  0.50000  0.04541  1.0000 -0.486168625
O   O44       1.0  0.86280  0.50000  0.95459  1.0000 -0.486168625
O   O45       1.0  0.50000  0.36310  0.00000  1.0000 -0.3663042729
O   O46       1.0  0.00000  0.13690  0.50000  1.0000 -0.3663042729
O   O47       1.0  0.50000  0.63690  0.00000  1.0000 -0.3663042729
O   O48       1.0  0.00000  0.86310  0.50000  1.0000 -0.3663042729
