# DDEC6 charges by PACMAN v1.1 (https://github.com/mtap-research/PACMAN-charge/)
data_2007[RuTb][tfi]3[ASR]1
_chemical_formula_sum              "Tb2 P8 H16 Ru4 C8 O28"
_cell_length_a       9.58991
_cell_length_b       9.58991
_cell_length_c       15.524
_cell_angle_alpha    87.0808
_cell_angle_beta     92.9192
_cell_angle_gamma    81.0134

_symmetry_space_group_name_H-M    "P 1"
_symmetry_Int_Tables_number       1

loop_
  _symmetry_equiv_pos_as_xyz
  'x, y, z'

loop_
  _atom_site_type_symbol
  _atom_site_label
  _atom_site_symmetry_multiplicity
  _atom_site_fract_x
  _atom_site_fract_y
  _atom_site_fract_z
  _atom_site_occupancy
  _atom_site_charge
Tb  Tb1       1.0  0.98897  0.98897  0.75000  1.0000 2.1629668479
Tb  Tb2       1.0  0.01103  0.01103  0.25000  1.0000 2.1629668479
P   P1        1.0  0.04476  0.64550  0.64540  1.0000 1.2065609102
P   P2        1.0  0.64550  0.04476  0.85460  1.0000 1.2065609102
P   P3        1.0  0.95524  0.35450  0.35460  1.0000 1.2033697669
P   P4        1.0  0.35450  0.95524  0.14540  1.0000 1.2033697669
P   P5        1.0  0.97710  0.34864  0.65365  1.0000 1.2033697669
P   P6        1.0  0.34864  0.97710  0.84635  1.0000 1.2033697669
P   P7        1.0  0.02290  0.65136  0.34635  1.0000 1.2065609102
P   P8        1.0  0.65136  0.02290  0.15365  1.0000 1.2065609102
H   H1        1.0  0.83080  0.57840  0.73270  1.0000 0.3509539668
H   H2        1.0  0.57840  0.83080  0.76730  1.0000 0.3509539668
H   H3        1.0  0.16920  0.42160  0.26730  1.0000 0.3509539668
H   H4        1.0  0.42160  0.16920  0.23270  1.0000 0.3509539668
H   H5        1.0  0.15250  0.52170  0.81910  1.0000 0.1503659808
H   H6        1.0  0.52170  0.15250  0.68090  1.0000 0.1503659808
H   H7        1.0  0.84750  0.47830  0.18090  1.0000 0.1503659808
H   H8        1.0  0.47830  0.84750  0.31910  1.0000 0.1503659808
H   H9        1.0  0.13050  0.36050  0.81260  1.0000 0.1600596686
H   H10       1.0  0.36050  0.13050  0.68740  1.0000 0.1600596686
H   H11       1.0  0.86950  0.63950  0.18740  1.0000 0.1600596686
H   H12       1.0  0.63950  0.86950  0.31260  1.0000 0.1600596686
H   H13       1.0  0.22820  0.42860  0.74700  1.0000 0.1503659808
H   H14       1.0  0.42860  0.22820  0.75300  1.0000 0.1503659808
H   H15       1.0  0.77180  0.57140  0.25300  1.0000 0.1503659808
H   H16       1.0  0.57140  0.77180  0.24700  1.0000 0.1503659808
Ru  Ru1       1.0  0.12112  0.45474  0.50205  1.0000 0.9051461622
Ru  Ru2       1.0  0.45474  0.12112  0.99795  1.0000 0.9035303597
Ru  Ru3       1.0  0.87888  0.54526  0.49795  1.0000 0.9051461622
Ru  Ru4       1.0  0.54526  0.87888  0.00205  1.0000 0.9051461622
C   C1        1.0  0.01480  0.49400  0.71700  1.0000 -0.1872606608
C   C2        1.0  0.49400  0.01480  0.78300  1.0000 -0.1872606608
C   C3        1.0  0.98520  0.50600  0.28300  1.0000 -0.1872606608
C   C4        1.0  0.50600  0.98520  0.21700  1.0000 -0.1872606608
C   C5        1.0  0.14280  0.44700  0.77950  1.0000 -0.4217713695
C   C6        1.0  0.44700  0.14280  0.72050  1.0000 -0.4217713695
C   C7        1.0  0.85720  0.55300  0.22050  1.0000 -0.4217713695
C   C8        1.0  0.55300  0.85720  0.27950  1.0000 -0.4217713695
O   O1        1.0  0.16770  0.59130  0.58974  1.0000 -0.6079777326
O   O2        1.0  0.59130  0.16770  0.91026  1.0000 -0.6079777326
O   O3        1.0  0.83230  0.40870  0.41026  1.0000 -0.6079777326
O   O4        1.0  0.40870  0.83230  0.08974  1.0000 -0.6079777326
O   O5        1.0  0.90750  0.68910  0.58600  1.0000 -0.6723221685
O   O6        1.0  0.68910  0.90750  0.91400  1.0000 -0.6723221685
O   O7        1.0  0.09250  0.31090  0.41400  1.0000 -0.6723221685
O   O8        1.0  0.31090  0.09250  0.08600  1.0000 -0.6723221685
O   O9        1.0  0.07490  0.76390  0.69820  1.0000 -0.8289593603
O   O10       1.0  0.76390  0.07490  0.80180  1.0000 -0.8289593603
O   O11       1.0  0.92510  0.23610  0.30180  1.0000 -0.8289593603
O   O12       1.0  0.23610  0.92510  0.19820  1.0000 -0.8289593603
O   O13       1.0  0.10550  0.30870  0.59890  1.0000 -0.6421053181
O   O14       1.0  0.30870  0.10550  0.90110  1.0000 -0.6421053181
O   O15       1.0  0.89450  0.69130  0.40110  1.0000 -0.6421053181
O   O16       1.0  0.69130  0.89450  0.09890  1.0000 -0.6421053181
O   O17       1.0  0.84410  0.40550  0.59330  1.0000 -0.6421053181
O   O18       1.0  0.40550  0.84410  0.90670  1.0000 -0.6421053181
O   O19       1.0  0.15590  0.59450  0.40670  1.0000 -0.6421053181
O   O20       1.0  0.59450  0.15590  0.09330  1.0000 -0.6421053181
O   O21       1.0  0.95510  0.22690  0.71258  1.0000 -0.8362199809
O   O22       1.0  0.22690  0.95510  0.78742  1.0000 -0.8362199809
O   O23       1.0  0.04490  0.77310  0.28742  1.0000 -0.8362199809
O   O24       1.0  0.77310  0.04490  0.21258  1.0000 -0.8362199809
O   O25       1.0  0.90120  0.54820  0.76756  1.0000 -0.3691800009
O   O26       1.0  0.54820  0.90120  0.73244  1.0000 -0.3691800009
O   O27       1.0  0.09880  0.45180  0.23244  1.0000 -0.3691800009
O   O28       1.0  0.45180  0.09880  0.26756  1.0000 -0.3691800009
