# DDEC6 charges by PACMAN v1.1 (https://github.com/mtap-research/PACMAN-charge/)
data_2007[Zn][nan]3[ASR]12
_chemical_formula_sum              "Zn14 H32 C64 N36 O32"
_cell_length_a       14.4601
_cell_length_b       14.4601
_cell_length_c       18.719
_cell_angle_alpha    64.5206
_cell_angle_beta     115.479
_cell_angle_gamma    121.17

_symmetry_space_group_name_H-M    "P 1"
_symmetry_Int_Tables_number       1

loop_
  _symmetry_equiv_pos_as_xyz
  'x, y, z'

loop_
  _atom_site_type_symbol
  _atom_site_label
  _atom_site_symmetry_multiplicity
  _atom_site_fract_x
  _atom_site_fract_y
  _atom_site_fract_z
  _atom_site_occupancy
  _atom_site_charge
Zn  Zn1       1.0  0.50000  0.50000  0.50000  1.0000 0.5405694954
Zn  Zn2       1.0  0.50000  0.50000  0.00000  1.0000 0.5405694954
Zn  Zn3       1.0  0.24192  0.59868  0.63508  1.0000 0.7996468209
Zn  Zn4       1.0  0.59868  0.24192  0.86492  1.0000 0.7996468209
Zn  Zn5       1.0  0.75808  0.40132  0.36492  1.0000 0.7996468209
Zn  Zn6       1.0  0.40132  0.75808  0.13508  1.0000 0.7996468209
Zn  Zn7       1.0  0.62123  0.99345  0.42350  1.0000 0.8530288451
Zn  Zn8       1.0  0.99345  0.62123  0.07650  1.0000 0.8530288451
Zn  Zn9       1.0  0.37877  0.00655  0.57650  1.0000 0.8530288451
Zn  Zn10      1.0  0.00655  0.37877  0.92350  1.0000 0.8530288451
Zn  Zn11      1.0  0.81017  0.63141  0.59473  1.0000 0.5517870811
Zn  Zn12      1.0  0.63141  0.81017  0.90527  1.0000 0.5517870811
Zn  Zn13      1.0  0.18983  0.36859  0.40527  1.0000 0.5517870811
Zn  Zn14      1.0  0.36859  0.18983  0.09473  1.0000 0.5517870811
H   H1        1.0  0.48740  0.74100  0.43750  1.0000 0.1197660349
H   H2        1.0  0.74100  0.48740  0.06250  1.0000 0.1197660349
H   H3        1.0  0.51260  0.25900  0.56250  1.0000 0.1197660349
H   H4        1.0  0.25900  0.51260  0.93750  1.0000 0.1197660349
H   H5        1.0  0.46620  0.32400  0.68050  1.0000 0.1197660349
H   H6        1.0  0.32400  0.46620  0.81950  1.0000 0.1197660349
H   H7        1.0  0.53380  0.67600  0.31950  1.0000 0.1197660349
H   H8        1.0  0.67600  0.53380  0.18050  1.0000 0.1197660349
H   H9        1.0  0.78730  0.44590  0.77750  1.0000 0.1317410283
H   H10       1.0  0.44590  0.78730  0.72250  1.0000 0.1317410283
H   H11       1.0  0.21270  0.55410  0.22250  1.0000 0.1317410283
H   H12       1.0  0.55410  0.21270  0.27750  1.0000 0.1317410283
H   H13       1.0  0.12780  0.45700  0.50770  1.0000 0.1197660349
H   H14       1.0  0.45700  0.12780  0.99230  1.0000 0.1197660349
H   H15       1.0  0.87220  0.54300  0.49230  1.0000 0.1197660349
H   H16       1.0  0.54300  0.87220  0.00770  1.0000 0.1197660349
H   H17       1.0  0.19160  0.11680  0.47790  1.0000 0.1317410283
H   H18       1.0  0.11680  0.19160  0.02210  1.0000 0.1317410283
H   H19       1.0  0.80840  0.88320  0.52210  1.0000 0.1317410283
H   H20       1.0  0.88320  0.80840  0.97790  1.0000 0.1317410283
H   H21       1.0  0.26000  0.85260  0.25480  1.0000 0.1317410283
H   H22       1.0  0.85260  0.26000  0.24520  1.0000 0.1317410283
H   H23       1.0  0.74000  0.14740  0.74520  1.0000 0.1317410283
H   H24       1.0  0.14740  0.74000  0.75480  1.0000 0.1317410283
H   H25       1.0  0.07730  0.65230  0.45930  1.0000 0.1197660349
H   H26       1.0  0.65230  0.07730  0.04070  1.0000 0.1197660349
H   H27       1.0  0.92270  0.34770  0.54070  1.0000 0.1197660349
H   H28       1.0  0.34770  0.92270  0.95930  1.0000 0.1197660349
H   H29       1.0  0.44610  0.58610  0.61380  1.0000 0.1197660349
H   H30       1.0  0.58610  0.44610  0.88620  1.0000 0.1197660349
H   H31       1.0  0.55390  0.41390  0.38620  1.0000 0.1197660349
H   H32       1.0  0.41390  0.55390  0.11380  1.0000 0.1197660349
C   C1        1.0  0.56220  0.75220  0.46320  1.0000 0.146467112
C   C2        1.0  0.75220  0.56220  0.03680  1.0000 0.146467112
C   C3        1.0  0.43780  0.24780  0.53680  1.0000 0.146467112
C   C4        1.0  0.24780  0.43780  0.96320  1.0000 0.146467112
C   C5        1.0  0.38660  0.93820  0.37760  1.0000 0.5762051605
C   C6        1.0  0.93820  0.38660  0.12240  1.0000 0.5762051605
C   C7        1.0  0.61340  0.06180  0.62240  1.0000 0.5762051605
C   C8        1.0  0.06180  0.61340  0.87760  1.0000 0.5762051605
C   C9        1.0  0.21700  0.78340  0.43010  1.0000 -0.064098021
C   C10       1.0  0.78340  0.21700  0.06990  1.0000 -0.064098021
C   C11       1.0  0.78300  0.21660  0.56990  1.0000 -0.064098021
C   C12       1.0  0.21660  0.78300  0.93010  1.0000 -0.064098021
C   C13       1.0  0.94470  0.57950  0.32860  1.0000 0.5653024428
C   C14       1.0  0.57950  0.94470  0.17140  1.0000 0.5653024428
C   C15       1.0  0.05530  0.42050  0.67140  1.0000 0.5653024428
C   C16       1.0  0.42050  0.05530  0.82860  1.0000 0.5653024428
C   C17       1.0  0.54280  0.36800  0.68750  1.0000 0.1384363063
C   C18       1.0  0.36800  0.54280  0.81250  1.0000 0.1384363063
C   C19       1.0  0.45720  0.63200  0.31250  1.0000 0.1384363063
C   C20       1.0  0.63200  0.45720  0.18750  1.0000 0.1384363063
C   C21       1.0  0.71690  0.43390  0.74030  1.0000 0.1691255383
C   C22       1.0  0.43390  0.71690  0.75970  1.0000 0.1691255383
C   C23       1.0  0.28310  0.56610  0.25970  1.0000 0.1691255383
C   C24       1.0  0.56610  0.28310  0.24030  1.0000 0.1691255383
C   C25       1.0  0.20490  0.47830  0.52320  1.0000 0.1602210291
C   C26       1.0  0.47830  0.20490  0.97680  1.0000 0.1602210291
C   C27       1.0  0.79510  0.52170  0.47680  1.0000 0.1602210291
C   C28       1.0  0.52170  0.79510  0.02320  1.0000 0.1602210291
C   C29       1.0  0.06270  0.66490  0.34350  1.0000 -0.0353386439
C   C30       1.0  0.66490  0.06270  0.15650  1.0000 -0.0353386439
C   C31       1.0  0.93730  0.33510  0.65650  1.0000 -0.0353386439
C   C32       1.0  0.33510  0.93730  0.84350  1.0000 -0.0353386439
C   C33       1.0  0.26430  0.17070  0.49100  1.0000 0.1602210291
C   C34       1.0  0.17070  0.26430  0.00900  1.0000 0.1602210291
C   C35       1.0  0.73570  0.82930  0.50900  1.0000 0.1602210291
C   C36       1.0  0.82930  0.73570  0.99100  1.0000 0.1602210291
C   C37       1.0  0.26380  0.82280  0.50510  1.0000 0.6079986058
C   C38       1.0  0.82280  0.26380  0.99490  1.0000 0.6079986058
C   C39       1.0  0.73620  0.17720  0.49490  1.0000 0.6079986058
C   C40       1.0  0.17720  0.73620  0.00510  1.0000 0.6079986058
C   C41       1.0  0.07670  0.70330  0.19910  1.0000 0.5517870811
C   C42       1.0  0.70330  0.07670  0.30090  1.0000 0.5559100025
C   C43       1.0  0.92330  0.29670  0.80090  1.0000 0.5517870811
C   C44       1.0  0.29670  0.92330  0.69910  1.0000 0.5517870811
C   C45       1.0  0.22190  0.81330  0.29540  1.0000 -0.1303777284
C   C46       1.0  0.81330  0.22190  0.20460  1.0000 -0.1303777284
C   C47       1.0  0.77810  0.18670  0.70460  1.0000 -0.1303777284
C   C48       1.0  0.18670  0.77810  0.79540  1.0000 -0.1303777284
C   C49       1.0  0.11890  0.72750  0.28080  1.0000 -0.010327455
C   C50       1.0  0.72750  0.11890  0.21920  1.0000 -0.010327455
C   C51       1.0  0.88110  0.27250  0.71920  1.0000 -0.010327455
C   C52       1.0  0.27250  0.88110  0.78080  1.0000 -0.010327455
C   C53       1.0  0.11340  0.69380  0.41760  1.0000 -0.1468560733
C   C54       1.0  0.69380  0.11340  0.08240  1.0000 -0.1468560733
C   C55       1.0  0.88660  0.30620  0.58240  1.0000 -0.1468560733
C   C56       1.0  0.30620  0.88660  0.91760  1.0000 -0.1468560733
C   C57       1.0  0.37790  0.54830  0.58060  1.0000 0.1384363063
C   C58       1.0  0.54830  0.37790  0.91940  1.0000 0.1384363063
C   C59       1.0  0.62210  0.45170  0.41940  1.0000 0.1384363063
C   C60       1.0  0.45170  0.62210  0.08060  1.0000 0.1384363063
C   C61       1.0  0.27220  0.84440  0.36800  1.0000 -0.010327455
C   C62       1.0  0.84440  0.27220  0.13200  1.0000 -0.010327455
C   C63       1.0  0.72780  0.15560  0.63200  1.0000 -0.010327455
C   C64       1.0  0.15560  0.72780  0.86800  1.0000 -0.010327455
N   N1        1.0  0.58590  0.45190  0.62930  1.0000 -0.1809212786
N   N2        1.0  0.45190  0.58590  0.87070  1.0000 -0.1858527101
N   N3        1.0  0.41410  0.54810  0.37070  1.0000 -0.1858527101
N   N4        1.0  0.54810  0.41410  0.12930  1.0000 -0.1858527101
N   N5        1.0  0.69959  0.49561  0.66340  1.0000 -0.168612048
N   N6        1.0  0.49561  0.69959  0.83660  1.0000 -0.168612048
N   N7        1.0  0.30041  0.50439  0.33660  1.0000 -0.168612048
N   N8        1.0  0.50439  0.30041  0.16340  1.0000 -0.168612048
N   N9        1.0  0.28959  0.27861  0.47180  1.0000 -0.1809212786
N   N10       1.0  0.27861  0.28959  0.02820  1.0000 -0.1809212786
N   N11       1.0  0.71041  0.72139  0.52820  1.0000 -0.1809212786
N   N12       1.0  0.72139  0.71041  0.97180  1.0000 -0.1809212786
N   N13       1.0  0.64590  0.85210  0.46900  1.0000 -0.3014909439
N   N14       1.0  0.85210  0.64590  0.03100  1.0000 -0.3014909439
N   N15       1.0  0.35410  0.14790  0.53100  1.0000 -0.3014909439
N   N16       1.0  0.14790  0.35410  0.96900  1.0000 -0.3014909439
N   N17       1.0  0.27850  0.53850  0.57810  1.0000 -0.341790203
N   N18       1.0  0.53850  0.27850  0.92190  1.0000 -0.341790203
N   N19       1.0  0.72150  0.46150  0.42190  1.0000 -0.341790203
N   N20       1.0  0.46150  0.72150  0.07810  1.0000 -0.341790203
N   N21       1.0  0.62080  0.35200  0.75850  1.0000 -0.3303980343
N   N22       1.0  0.35200  0.62080  0.74150  1.0000 -0.3303980343
N   N23       1.0  0.37920  0.64800  0.24150  1.0000 -0.3303980343
N   N24       1.0  0.64800  0.37920  0.25850  1.0000 -0.3303980343
N   N25       1.0  0.25500  0.45320  0.49410  1.0000 -0.168612048
N   N26       1.0  0.45320  0.25500  0.00590  1.0000 -0.168612048
N   N27       1.0  0.74500  0.54680  0.50590  1.0000 -0.168612048
N   N28       1.0  0.54680  0.74500  0.99410  1.0000 -0.168612048
N   N29       1.0  0.59727  0.67133  0.49790  1.0000 -0.1809212786
N   N30       1.0  0.67133  0.59727  0.00210  1.0000 -0.1809212786
N   N31       1.0  0.40273  0.32867  0.50210  1.0000 -0.1809212786
N   N32       1.0  0.32867  0.40273  0.99790  1.0000 -0.1809212786
N   N33       1.0  0.36870  0.49930  0.53180  1.0000 -0.1809212786
N   N34       1.0  0.49930  0.36870  0.96820  1.0000 -0.1809212786
N   N35       1.0  0.63130  0.50070  0.46820  1.0000 -0.1809212786
N   N36       1.0  0.50070  0.63130  0.03180  1.0000 -0.1809212786
O   O1        1.0  0.04110  0.60530  0.19880  1.0000 -0.5045171864
O   O2        1.0  0.60530  0.04110  0.30120  1.0000 -0.5045171864
O   O3        1.0  0.95890  0.39470  0.80120  1.0000 -0.5045171864
O   O4        1.0  0.39470  0.95890  0.69880  1.0000 -0.5045171864
O   O5        1.0  0.46371  0.91169  0.43200  1.0000 -0.5371658392
O   O6        1.0  0.91169  0.46371  0.06800  1.0000 -0.5371658392
O   O7        1.0  0.53629  0.08831  0.56800  1.0000 -0.5371658392
O   O8        1.0  0.08831  0.53629  0.93200  1.0000 -0.5371658392
O   O9        1.0  0.08000  0.78040  0.13510  1.0000 -0.5306880884
O   O10       1.0  0.78040  0.08000  0.36490  1.0000 -0.5306880884
O   O11       1.0  0.92000  0.21960  0.86490  1.0000 -0.5306880884
O   O12       1.0  0.21960  0.92000  0.63510  1.0000 -0.5306880884
O   O13       1.0  0.74137  0.24463  0.42520  1.0000 -0.5487611977
O   O14       1.0  0.24463  0.74137  0.07480  1.0000 -0.5487611977
O   O15       1.0  0.25863  0.75537  0.57480  1.0000 -0.5487611977
O   O16       1.0  0.75537  0.25863  0.92520  1.0000 -0.5487611977
O   O17       1.0  0.30325  0.92655  0.49230  1.0000 -0.4938078187
O   O18       1.0  0.92655  0.30325  0.00770  1.0000 -0.4938078187
O   O19       1.0  0.69675  0.07345  0.50770  1.0000 -0.4938078187
O   O20       1.0  0.07345  0.69675  0.99230  1.0000 -0.4938078187
O   O21       1.0  0.87250  0.60450  0.27050  1.0000 -0.5306880884
O   O22       1.0  0.60450  0.87250  0.22950  1.0000 -0.5306880884
O   O23       1.0  0.12750  0.39550  0.72950  1.0000 -0.5306880884
O   O24       1.0  0.39550  0.12750  0.77050  1.0000 -0.5306880884
O   O25       1.0  0.07650  0.51750  0.61780  1.0000 -0.5557867177
O   O26       1.0  0.51750  0.07650  0.88220  1.0000 -0.5487611977
O   O27       1.0  0.92350  0.48250  0.38220  1.0000 -0.5557867177
O   O28       1.0  0.48250  0.92350  0.11780  1.0000 -0.5557867177
O   O29       1.0  0.40120  0.03340  0.32840  1.0000 -0.5487611977
O   O30       1.0  0.03340  0.40120  0.17160  1.0000 -0.5487611977
O   O31       1.0  0.59880  0.96660  0.67160  1.0000 -0.5487611977
O   O32       1.0  0.96660  0.59880  0.82840  1.0000 -0.5487611977
