# DDEC6 charges by PACMAN v1.1 (https://github.com/mtap-research/PACMAN-charge/)
data_2007[Cu][cds]3[ASR]1
_chemical_formula_sum              "Cu6 H40 C48 N24 O4"
_cell_length_a       11.0314
_cell_length_b       11.0314
_cell_length_c       19.1034
_cell_angle_alpha    77.1223
_cell_angle_beta     102.878
_cell_angle_gamma    88.7046

_symmetry_space_group_name_H-M    "P 1"
_symmetry_Int_Tables_number       1

loop_
  _symmetry_equiv_pos_as_xyz
  'x, y, z'

loop_
  _atom_site_type_symbol
  _atom_site_label
  _atom_site_symmetry_multiplicity
  _atom_site_fract_x
  _atom_site_fract_y
  _atom_site_fract_z
  _atom_site_occupancy
  _atom_site_charge
Cu  Cu1       1.0  0.50000  0.00000  0.50000  1.0000 0.6877899574
Cu  Cu2       1.0  0.00000  0.50000  0.00000  1.0000 0.6877899574
Cu  Cu3       1.0  0.61302  0.80498  0.42281  1.0000 0.4285926726
Cu  Cu4       1.0  0.80498  0.61302  0.07719  1.0000 0.4285926726
Cu  Cu5       1.0  0.38698  0.19502  0.57719  1.0000 0.4285926726
Cu  Cu6       1.0  0.19502  0.38698  0.92281  1.0000 0.4198347436
H   H1        1.0  0.64680  0.01620  0.41990  1.0000 0.3553613232
H   H2        1.0  0.01620  0.64680  0.08010  1.0000 0.3553613232
H   H3        1.0  0.35320  0.98380  0.58010  1.0000 0.3553613232
H   H4        1.0  0.98380  0.35320  0.91990  1.0000 0.3553613232
H   H5        1.0  0.41210  0.12830  0.32330  1.0000 0.1024087247
H   H6        1.0  0.12830  0.41210  0.17670  1.0000 0.1024087247
H   H7        1.0  0.58790  0.87170  0.67670  1.0000 0.1024087247
H   H8        1.0  0.87170  0.58790  0.82330  1.0000 0.1024087247
H   H9        1.0  0.20600  0.45240  0.28670  1.0000 0.1194496273
H   H10       1.0  0.45240  0.20600  0.21330  1.0000 0.1194496273
H   H11       1.0  0.79400  0.54760  0.71330  1.0000 0.1194496273
H   H12       1.0  0.54760  0.79400  0.78670  1.0000 0.1194496273
H   H13       1.0  0.23830  0.41870  0.41540  1.0000 0.0907872081
H   H14       1.0  0.41870  0.23830  0.08460  1.0000 0.0907872081
H   H15       1.0  0.76170  0.58130  0.58460  1.0000 0.0907872081
H   H16       1.0  0.58130  0.76170  0.91540  1.0000 0.0907872081
H   H17       1.0  0.22130  0.94150  0.47150  1.0000 0.1024087247
H   H18       1.0  0.94150  0.22130  0.02850  1.0000 0.1024087247
H   H19       1.0  0.77870  0.05850  0.52850  1.0000 0.1024087247
H   H20       1.0  0.05850  0.77870  0.97150  1.0000 0.1024087247
H   H21       1.0  0.17700  0.65900  0.36630  1.0000 0.1194496273
H   H22       1.0  0.65900  0.17700  0.13370  1.0000 0.1194496273
H   H23       1.0  0.82300  0.34100  0.63370  1.0000 0.1194496273
H   H24       1.0  0.34100  0.82300  0.86630  1.0000 0.1194496273
H   H25       1.0  0.39110  0.66090  0.36940  1.0000 0.1024087247
H   H26       1.0  0.66090  0.39110  0.13060  1.0000 0.1024087247
H   H27       1.0  0.60890  0.33910  0.63060  1.0000 0.1024087247
H   H28       1.0  0.33910  0.60890  0.86940  1.0000 0.1024087247
H   H29       1.0  0.05560  0.84620  0.51850  1.0000 0.1024087247
H   H30       1.0  0.84620  0.05560  0.98150  1.0000 0.1024087247
H   H31       1.0  0.94440  0.15380  0.48150  1.0000 0.1024087247
H   H32       1.0  0.15380  0.94440  0.01850  1.0000 0.1024087247
H   H33       1.0  0.97720  0.77180  0.31580  1.0000 0.1194496273
H   H34       1.0  0.77180  0.97720  0.18420  1.0000 0.1194496273
H   H35       1.0  0.02280  0.22820  0.68420  1.0000 0.1194496273
H   H36       1.0  0.22820  0.02280  0.81580  1.0000 0.1194496273
H   H37       1.0  0.76850  0.77790  0.31770  1.0000 0.0907872081
H   H38       1.0  0.77790  0.76850  0.18230  1.0000 0.0907872081
H   H39       1.0  0.23150  0.22210  0.68230  1.0000 0.0907872081
H   H40       1.0  0.22210  0.23150  0.81770  1.0000 0.0907872081
C   C1        1.0  0.37552  0.19132  0.34150  1.0000 -0.017199258
C   C2        1.0  0.19132  0.37552  0.15850  1.0000 -0.017199258
C   C3        1.0  0.62448  0.80868  0.65850  1.0000 -0.017199258
C   C4        1.0  0.80868  0.62448  0.84150  1.0000 -0.017199258
C   C5        1.0  0.30682  0.29362  0.29014  1.0000 0.0478325549
C   C6        1.0  0.29362  0.30682  0.20986  1.0000 0.0478325549
C   C7        1.0  0.69318  0.70638  0.70986  1.0000 0.0478325549
C   C8        1.0  0.70638  0.69318  0.79014  1.0000 0.0478325549
C   C9        1.0  0.25490  0.37970  0.31850  1.0000 -0.1888259804
C   C10       1.0  0.37970  0.25490  0.18150  1.0000 -0.1888259804
C   C11       1.0  0.74510  0.62030  0.68150  1.0000 -0.1888259804
C   C12       1.0  0.62030  0.74510  0.81850  1.0000 -0.1888259804
C   C13       1.0  0.27540  0.35880  0.39531  1.0000 0.0295185273
C   C14       1.0  0.35880  0.27540  0.10469  1.0000 0.0295185273
C   C15       1.0  0.72460  0.64120  0.60469  1.0000 0.0295185273
C   C16       1.0  0.64120  0.72460  0.89531  1.0000 0.0295185273
C   C17       1.0  0.25529  0.88199  0.44988  1.0000 -0.0044476122
C   C18       1.0  0.88199  0.25529  0.05012  1.0000 -0.0044476122
C   C19       1.0  0.74471  0.11801  0.55012  1.0000 -0.0044476122
C   C20       1.0  0.11801  0.74471  0.94988  1.0000 -0.0044476122
C   C21       1.0  0.17449  0.80091  0.41834  1.0000 0.0478325549
C   C22       1.0  0.80091  0.17449  0.08166  1.0000 0.0478325549
C   C23       1.0  0.82551  0.19909  0.58166  1.0000 0.0478325549
C   C24       1.0  0.19909  0.82551  0.91834  1.0000 0.0478325549
C   C25       1.0  0.22660  0.71720  0.38830  1.0000 -0.1780195167
C   C26       1.0  0.71720  0.22660  0.11170  1.0000 -0.1780195167
C   C27       1.0  0.77340  0.28280  0.61170  1.0000 -0.1780195167
C   C28       1.0  0.28280  0.77340  0.88830  1.0000 -0.1780195167
C   C29       1.0  0.35383  0.71883  0.39065  1.0000 0.0295185273
C   C30       1.0  0.71883  0.35383  0.10935  1.0000 0.0295185273
C   C31       1.0  0.64617  0.28117  0.60935  1.0000 0.0295185273
C   C32       1.0  0.28117  0.64617  0.89065  1.0000 0.0295185273
C   C33       1.0  0.99727  0.83147  0.47637  1.0000 -0.0438115528
C   C34       1.0  0.83147  0.99727  0.02363  1.0000 -0.0438115528
C   C35       1.0  0.00273  0.16853  0.52363  1.0000 -0.0438115528
C   C36       1.0  0.16853  0.00273  0.97637  1.0000 -0.0438115528
C   C37       1.0  0.04060  0.80746  0.41764  1.0000 0.0478325549
C   C38       1.0  0.80746  0.04060  0.08236  1.0000 0.0478325549
C   C39       1.0  0.95940  0.19254  0.58236  1.0000 0.0478325549
C   C40       1.0  0.19254  0.95940  0.91764  1.0000 0.0478325549
C   C41       1.0  0.95185  0.78785  0.35803  1.0000 -0.1888259804
C   C42       1.0  0.78785  0.95185  0.14197  1.0000 -0.1888259804
C   C43       1.0  0.04815  0.21215  0.64197  1.0000 -0.1888259804
C   C44       1.0  0.21215  0.04815  0.85803  1.0000 -0.1888259804
C   C45       1.0  0.82930  0.79130  0.35928  1.0000 -0.0044476122
C   C46       1.0  0.79130  0.82930  0.14072  1.0000 -0.0044476122
C   C47       1.0  0.17070  0.20870  0.64072  1.0000 -0.0044476122
C   C48       1.0  0.20870  0.17070  0.85928  1.0000 -0.0044476122
N   N1        1.0  0.39320  0.17620  0.41402  1.0000 -0.146797325
N   N2        1.0  0.17620  0.39320  0.08598  1.0000 -0.146797325
N   N3        1.0  0.60680  0.82380  0.58598  1.0000 -0.146797325
N   N4        1.0  0.82380  0.60680  0.91402  1.0000 -0.146797325
N   N5        1.0  0.34288  0.26114  0.44171  1.0000 -0.1592852405
N   N6        1.0  0.26114  0.34288  0.05829  1.0000 -0.1592852405
N   N7        1.0  0.65712  0.73886  0.55829  1.0000 -0.1592852405
N   N8        1.0  0.73886  0.65712  0.94171  1.0000 -0.1592852405
N   N9        1.0  0.37503  0.87959  0.45091  1.0000 -0.146797325
N   N10       1.0  0.87959  0.37503  0.04909  1.0000 -0.1382247044
N   N11       1.0  0.62497  0.12041  0.54909  1.0000 -0.146797325
N   N12       1.0  0.12041  0.62497  0.95091  1.0000 -0.146797325
N   N13       1.0  0.42520  0.79728  0.42104  1.0000 -0.1382247044
N   N14       1.0  0.79728  0.42520  0.07896  1.0000 -0.1382247044
N   N15       1.0  0.57480  0.20272  0.57896  1.0000 -0.1382247044
N   N16       1.0  0.20272  0.57480  0.92104  1.0000 -0.1382247044
N   N17       1.0  0.79251  0.81315  0.41760  1.0000 -0.1315995666
N   N18       1.0  0.81315  0.79251  0.08240  1.0000 -0.1315995666
N   N19       1.0  0.20749  0.18685  0.58240  1.0000 -0.1315995666
N   N20       1.0  0.18685  0.20749  0.91760  1.0000 -0.1315995666
N   N21       1.0  0.87438  0.83444  0.47535  1.0000 -0.1592852405
N   N22       1.0  0.83444  0.87438  0.02465  1.0000 -0.1592852405
N   N23       1.0  0.12562  0.16556  0.52465  1.0000 -0.1592852405
N   N24       1.0  0.16556  0.12562  0.97535  1.0000 -0.1592852405
O   O1        1.0  0.59939  0.96815  0.43652  1.0000 -0.7723286493
O   O2        1.0  0.96815  0.59939  0.06348  1.0000 -0.7723286493
O   O3        1.0  0.40061  0.03185  0.56348  1.0000 -0.7723286493
O   O4        1.0  0.03185  0.40061  0.93652  1.0000 -0.7723286493
