# DDEC6 charges by PACMAN v1.1 (https://github.com/mtap-research/PACMAN-charge/)
data_2007[CuEu][nan]3[ASR]3
_chemical_formula_sum              "Eu4 Cu4 H32 C56 N8 O32"
_cell_length_a       11.5997
_cell_length_b       11.5997
_cell_length_c       17.063
_cell_angle_alpha    75.3992
_cell_angle_beta     104.601
_cell_angle_gamma    133.257

_symmetry_space_group_name_H-M    "P 1"
_symmetry_Int_Tables_number       1

loop_
  _symmetry_equiv_pos_as_xyz
  'x, y, z'

loop_
  _atom_site_type_symbol
  _atom_site_label
  _atom_site_symmetry_multiplicity
  _atom_site_fract_x
  _atom_site_fract_y
  _atom_site_fract_z
  _atom_site_occupancy
  _atom_site_charge
Eu  Eu1       1.0  0.19824  0.17210  0.57317  1.0000 2.0595682913
Eu  Eu2       1.0  0.17210  0.19824  0.92683  1.0000 2.0595682913
Eu  Eu3       1.0  0.80176  0.82790  0.42683  1.0000 2.0595682913
Eu  Eu4       1.0  0.82790  0.80176  0.07317  1.0000 2.0595682913
Cu  Cu1       1.0  0.73447  0.40943  0.63067  1.0000 0.3176688159
Cu  Cu2       1.0  0.40943  0.73447  0.86933  1.0000 0.3176688159
Cu  Cu3       1.0  0.26553  0.59057  0.36933  1.0000 0.3176688159
Cu  Cu4       1.0  0.59057  0.26553  0.13067  1.0000 0.3176688159
H   H1        1.0  0.29340  0.99300  0.19320  1.0000 0.1123329064
H   H2        1.0  0.99300  0.29340  0.30680  1.0000 0.1123329064
H   H3        1.0  0.70660  0.00700  0.80680  1.0000 0.1123329064
H   H4        1.0  0.00700  0.70660  0.69320  1.0000 0.1123329064
H   H5        1.0  0.63810  0.41350  0.26400  1.0000 0.1191738031
H   H6        1.0  0.41350  0.63810  0.23600  1.0000 0.1191738031
H   H7        1.0  0.36190  0.58650  0.73600  1.0000 0.1191738031
H   H8        1.0  0.58650  0.36190  0.76400  1.0000 0.1191738031
H   H9        1.0  0.49160  0.36300  0.35670  1.0000 0.1500768268
H   H10       1.0  0.36300  0.49160  0.14330  1.0000 0.1500768268
H   H11       1.0  0.50840  0.63700  0.64330  1.0000 0.1500768268
H   H12       1.0  0.63700  0.50840  0.85670  1.0000 0.1500768268
H   H13       1.0  0.13220  0.93460  0.27990  1.0000 0.1500768268
H   H14       1.0  0.93460  0.13220  0.22010  1.0000 0.1500768268
H   H15       1.0  0.86780  0.06540  0.72010  1.0000 0.1500768268
H   H16       1.0  0.06540  0.86780  0.77990  1.0000 0.1500768268
H   H17       1.0  0.02180  0.58240  0.37600  1.0000 0.1123329064
H   H18       1.0  0.58240  0.02180  0.12400  1.0000 0.1123329064
H   H19       1.0  0.97820  0.41760  0.62400  1.0000 0.1123329064
H   H20       1.0  0.41760  0.97820  0.87600  1.0000 0.1123329064
H   H21       1.0  0.42600  0.77940  0.50950  1.0000 0.1191738031
H   H22       1.0  0.77940  0.42600  0.99050  1.0000 0.1191738031
H   H23       1.0  0.57400  0.22060  0.49050  1.0000 0.1191738031
H   H24       1.0  0.22060  0.57400  0.00950  1.0000 0.1191738031
H   H25       1.0  0.96580  0.68660  0.44080  1.0000 0.1500768268
H   H26       1.0  0.68660  0.96580  0.05920  1.0000 0.1500768268
H   H27       1.0  0.03420  0.31340  0.55920  1.0000 0.1500768268
H   H28       1.0  0.31340  0.03420  0.94080  1.0000 0.1500768268
H   H29       1.0  0.38130  0.89090  0.57790  1.0000 0.1375977451
H   H30       1.0  0.89090  0.38130  0.92210  1.0000 0.1375977451
H   H31       1.0  0.61870  0.10910  0.42210  1.0000 0.1375977451
H   H32       1.0  0.10910  0.61870  0.07790  1.0000 0.1375977451
C   C1        1.0  0.29239  0.14481  0.32614  1.0000 0.0123464352
C   C2        1.0  0.14481  0.29239  0.17386  1.0000 0.0123464352
C   C3        1.0  0.70761  0.85519  0.67386  1.0000 0.0123464352
C   C4        1.0  0.85519  0.70761  0.82614  1.0000 0.0123464352
C   C5        1.0  0.20673  0.28107  0.73196  1.0000 0.4747175926
C   C6        1.0  0.28107  0.20673  0.76804  1.0000 0.4747175926
C   C7        1.0  0.79327  0.71893  0.26804  1.0000 0.4747175926
C   C8        1.0  0.71893  0.79327  0.23196  1.0000 0.4747175926
C   C9        1.0  0.14492  0.89488  0.54920  1.0000 0.5842393094
C   C10       1.0  0.89488  0.14492  0.95080  1.0000 0.5842393094
C   C11       1.0  0.85508  0.10512  0.45080  1.0000 0.5842393094
C   C12       1.0  0.10512  0.85508  0.04920  1.0000 0.5842393094
C   C13       1.0  0.33230  0.07030  0.22490  1.0000 0.0751651132
C   C14       1.0  0.07030  0.33230  0.27510  1.0000 0.0751651132
C   C15       1.0  0.66770  0.92970  0.77510  1.0000 0.0751651132
C   C16       1.0  0.92970  0.66770  0.72490  1.0000 0.0751651132
C   C17       1.0  0.53460  0.31600  0.26710  1.0000 0.0615103876
C   C18       1.0  0.31600  0.53460  0.23290  1.0000 0.0615103876
C   C19       1.0  0.46540  0.68400  0.73290  1.0000 0.0615103876
C   C20       1.0  0.68400  0.46540  0.76710  1.0000 0.0615103876
C   C21       1.0  0.17073  0.80667  0.51450  1.0000 0.0299398357
C   C22       1.0  0.80667  0.17073  0.98550  1.0000 0.0299398357
C   C23       1.0  0.82927  0.19333  0.48550  1.0000 0.0299398357
C   C24       1.0  0.19333  0.82927  0.01450  1.0000 0.0299398357
C   C25       1.0  0.44700  0.28740  0.32240  1.0000 -0.1601775514
C   C26       1.0  0.28740  0.44700  0.17760  1.0000 -0.1601775514
C   C27       1.0  0.55300  0.71260  0.67760  1.0000 -0.1601775514
C   C28       1.0  0.71260  0.55300  0.82240  1.0000 -0.1601775514
C   C29       1.0  0.55205  0.48035  0.52318  1.0000 0.4897545481
C   C30       1.0  0.48035  0.55205  0.97682  1.0000 0.4897545481
C   C31       1.0  0.44795  0.51965  0.47682  1.0000 0.4897545481
C   C32       1.0  0.51965  0.44795  0.02318  1.0000 0.4897545481
C   C33       1.0  0.18864  0.11156  0.38226  1.0000 0.627002185
C   C34       1.0  0.11156  0.18864  0.11774  1.0000 0.627002185
C   C35       1.0  0.81136  0.88844  0.61774  1.0000 0.627002185
C   C36       1.0  0.88844  0.81136  0.88226  1.0000 0.627002185
C   C37       1.0  0.23498  0.03342  0.27750  1.0000 -0.1324859841
C   C38       1.0  0.03342  0.23498  0.22250  1.0000 -0.1324859841
C   C39       1.0  0.76502  0.96658  0.72250  1.0000 -0.1324859841
C   C40       1.0  0.96658  0.76502  0.77750  1.0000 -0.1324859841
C   C41       1.0  0.09690  0.64770  0.41640  1.0000 0.0522919965
C   C42       1.0  0.64770  0.09690  0.08360  1.0000 0.0522919965
C   C43       1.0  0.90310  0.35230  0.58360  1.0000 0.0522919965
C   C44       1.0  0.35230  0.90310  0.91640  1.0000 0.0522919965
C   C45       1.0  0.33310  0.76290  0.49430  1.0000 0.0699218193
C   C46       1.0  0.76290  0.33310  0.00570  1.0000 0.0699218193
C   C47       1.0  0.66690  0.23710  0.50570  1.0000 0.0699218193
C   C48       1.0  0.23710  0.66690  0.99430  1.0000 0.0699218193
C   C49       1.0  0.06232  0.71008  0.45500  1.0000 -0.1453425458
C   C50       1.0  0.71008  0.06232  0.04500  1.0000 -0.1453425458
C   C51       1.0  0.93768  0.28992  0.54500  1.0000 -0.1453425458
C   C52       1.0  0.28992  0.93768  0.95500  1.0000 -0.1453425458
C   C53       1.0  0.30700  0.83020  0.53590  1.0000 -0.1601775514
C   C54       1.0  0.83020  0.30700  0.96410  1.0000 -0.1601775514
C   C55       1.0  0.69300  0.16980  0.46410  1.0000 -0.1601775514
C   C56       1.0  0.16980  0.69300  0.03590  1.0000 -0.1601775514
N   N1        1.0  0.47806  0.21034  0.21760  1.0000 -0.1878463125
N   N2        1.0  0.21034  0.47806  0.28240  1.0000 -0.1878463125
N   N3        1.0  0.52194  0.78966  0.78240  1.0000 -0.1878463125
N   N4        1.0  0.78966  0.52194  0.71760  1.0000 -0.1878463125
N   N5        1.0  0.23160  0.67600  0.43380  1.0000 -0.1765086634
N   N6        1.0  0.67600  0.23160  0.06620  1.0000 -0.1765086634
N   N7        1.0  0.76840  0.32400  0.56620  1.0000 -0.1765086634
N   N8        1.0  0.32400  0.76840  0.93380  1.0000 -0.1765086634
O   O1        1.0  0.48973  0.36267  0.57714  1.0000 -0.581453318
O   O2        1.0  0.36267  0.48973  0.92286  1.0000 -0.581453318
O   O3        1.0  0.51027  0.63733  0.42286  1.0000 -0.581453318
O   O4        1.0  0.63733  0.51027  0.07714  1.0000 -0.581453318
O   O5        1.0  0.20669  0.32231  0.65675  1.0000 -0.5993853456
O   O6        1.0  0.32231  0.20669  0.84325  1.0000 -0.5993853456
O   O7        1.0  0.79331  0.67769  0.34325  1.0000 -0.5993853456
O   O8        1.0  0.67769  0.79331  0.15675  1.0000 -0.5993853456
O   O9        1.0  0.25868  0.18532  0.44378  1.0000 -0.6514031833
O   O10       1.0  0.18532  0.25868  0.05622  1.0000 -0.6514031833
O   O11       1.0  0.74132  0.81468  0.55622  1.0000 -0.6514031833
O   O12       1.0  0.81468  0.74132  0.94378  1.0000 -0.6514031833
O   O13       1.0  0.02053  0.87407  0.52466  1.0000 -0.7003989166
O   O14       1.0  0.87407  0.02053  0.97534  1.0000 -0.7003989166
O   O15       1.0  0.97947  0.12593  0.47534  1.0000 -0.7003989166
O   O16       1.0  0.12593  0.97947  0.02466  1.0000 -0.7003989166
O   O17       1.0  0.68907  0.56713  0.50409  1.0000 -0.569324339
O   O18       1.0  0.56713  0.68907  0.99591  1.0000 -0.569324339
O   O19       1.0  0.31093  0.43287  0.49591  1.0000 -0.569324339
O   O20       1.0  0.43287  0.31093  0.00409  1.0000 -0.569324339
O   O21       1.0  0.04061  0.00999  0.36318  1.0000 -0.6567659324
O   O22       1.0  0.00999  0.04061  0.13682  1.0000 -0.6567659324
O   O23       1.0  0.95939  0.99001  0.63682  1.0000 -0.6567659324
O   O24       1.0  0.99001  0.95939  0.86318  1.0000 -0.6567659324
O   O25       1.0  0.15636  0.29764  0.78148  1.0000 -0.5918491653
O   O26       1.0  0.29764  0.15636  0.71852  1.0000 -0.5918491653
O   O27       1.0  0.84364  0.70236  0.21852  1.0000 -0.5918491653
O   O28       1.0  0.70236  0.84364  0.28148  1.0000 -0.5918491653
O   O29       1.0  0.25393  0.99327  0.59778  1.0000 -0.5918491653
O   O30       1.0  0.99327  0.25393  0.90222  1.0000 -0.5918491653
O   O31       1.0  0.74607  0.00673  0.40222  1.0000 -0.5918491653
O   O32       1.0  0.00673  0.74607  0.09778  1.0000 -0.5918491653
