# DDEC6 charges by PACMAN v1.1 (https://github.com/mtap-research/PACMAN-charge/)
data_2007[Fe][dia]3[ASR]11
_chemical_formula_sum              "Fe12 H24 C24 O48"
_cell_length_a       11.3577
_cell_length_b       9.8862
_cell_length_c       18.2191
_cell_angle_alpha    90
_cell_angle_beta     127.302
_cell_angle_gamma    90

_symmetry_space_group_name_H-M    "P 1"
_symmetry_Int_Tables_number       1

loop_
  _symmetry_equiv_pos_as_xyz
  'x, y, z'

loop_
  _atom_site_type_symbol
  _atom_site_label
  _atom_site_symmetry_multiplicity
  _atom_site_fract_x
  _atom_site_fract_y
  _atom_site_fract_z
  _atom_site_occupancy
  _atom_site_charge
Fe  Fe1       1.0  0.62296  0.91859  0.86756  1.0000 0.9023948424
Fe  Fe2       1.0  0.37704  0.41859  0.63244  1.0000 0.9023948424
Fe  Fe3       1.0  0.37704  0.08141  0.13244  1.0000 0.9023948424
Fe  Fe4       1.0  0.62296  0.58141  0.36756  1.0000 0.9023948424
Fe  Fe5       1.0  0.57442  0.89455  0.31390  1.0000 0.9071928077
Fe  Fe6       1.0  0.42558  0.39455  0.18610  1.0000 0.9071928077
Fe  Fe7       1.0  0.42558  0.10545  0.68610  1.0000 0.9071928077
Fe  Fe8       1.0  0.57442  0.60545  0.81390  1.0000 0.9071928077
Fe  Fe9       1.0  0.50000  0.00000  0.00000  1.0000 0.9423748069
Fe  Fe10      1.0  0.50000  0.50000  0.50000  1.0000 0.9423748069
Fe  Fe11      1.0  0.00000  0.00000  0.00000  1.0000 0.9581038766
Fe  Fe12      1.0  0.00000  0.50000  0.50000  1.0000 0.9581038766
H   H1        1.0  0.49060  0.74950  0.63140  1.0000 0.1098606461
H   H2        1.0  0.50940  0.24950  0.86860  1.0000 0.1098606461
H   H3        1.0  0.50940  0.25050  0.36860  1.0000 0.1098606461
H   H4        1.0  0.49060  0.75050  0.13140  1.0000 0.1098606461
H   H5        1.0  0.20500  0.02450  0.73100  1.0000 0.1181598828
H   H6        1.0  0.79500  0.52450  0.76900  1.0000 0.1181598828
H   H7        1.0  0.79500  0.97550  0.26900  1.0000 0.1181598828
H   H8        1.0  0.20500  0.47550  0.23100  1.0000 0.1181598828
H   H9        1.0  0.52040  0.61660  0.96370  1.0000 0.1098606461
H   H10       1.0  0.47960  0.11660  0.53630  1.0000 0.1098606461
H   H11       1.0  0.47960  0.38340  0.03630  1.0000 0.1098606461
H   H12       1.0  0.52040  0.88340  0.46370  1.0000 0.1098606461
H   H13       1.0  0.74870  0.17490  0.75980  1.0000 0.1098606461
H   H14       1.0  0.25130  0.67490  0.74020  1.0000 0.1098606461
H   H15       1.0  0.25130  0.82510  0.24020  1.0000 0.1098606461
H   H16       1.0  0.74870  0.32510  0.25980  1.0000 0.1098606461
H   H17       1.0  0.76720  0.16680  0.06940  1.0000 0.1098606461
H   H18       1.0  0.23280  0.66680  0.43060  1.0000 0.1098606461
H   H19       1.0  0.23280  0.83320  0.93060  1.0000 0.1098606461
H   H20       1.0  0.76720  0.33320  0.56940  1.0000 0.1098606461
H   H21       1.0  0.98420  0.69980  0.00040  1.0000 0.1181598828
H   H22       1.0  0.01580  0.19980  0.49960  1.0000 0.1181598828
H   H23       1.0  0.01580  0.30020  0.99960  1.0000 0.1181598828
H   H24       1.0  0.98420  0.80020  0.50040  1.0000 0.1181598828
C   C1        1.0  0.49680  0.82150  0.66815  1.0000 0.4531320371
C   C2        1.0  0.50320  0.32150  0.83185  1.0000 0.4531320371
C   C3        1.0  0.50320  0.17850  0.33185  1.0000 0.4531320371
C   C4        1.0  0.49680  0.67850  0.16815  1.0000 0.4531320371
C   C5        1.0  0.30130  0.00750  0.78620  1.0000 0.4364070185
C   C6        1.0  0.69870  0.50750  0.71380  1.0000 0.4364070185
C   C7        1.0  0.69870  0.99250  0.21380  1.0000 0.4364070185
C   C8        1.0  0.30130  0.49250  0.28620  1.0000 0.4364070185
C   C9        1.0  0.52990  0.70980  0.95540  1.0000 0.4312984236
C   C10       1.0  0.47010  0.20980  0.54460  1.0000 0.4312984236
C   C11       1.0  0.47010  0.29020  0.04460  1.0000 0.4312984236
C   C12       1.0  0.52990  0.79020  0.45540  1.0000 0.4312984236
C   C13       1.0  0.76680  0.12020  0.80860  1.0000 0.4312984236
C   C14       1.0  0.23320  0.62020  0.69140  1.0000 0.4312984236
C   C15       1.0  0.23320  0.87980  0.19140  1.0000 0.4312984236
C   C16       1.0  0.76680  0.37980  0.30860  1.0000 0.4312984236
C   C17       1.0  0.77350  0.10950  0.03012  1.0000 0.4698583559
C   C18       1.0  0.22650  0.60950  0.46988  1.0000 0.4698583559
C   C19       1.0  0.22650  0.89050  0.96988  1.0000 0.4698583559
C   C20       1.0  0.77350  0.39050  0.53012  1.0000 0.4698583559
C   C21       1.0  0.88150  0.71640  0.95488  1.0000 0.4698583559
C   C22       1.0  0.11850  0.21640  0.54512  1.0000 0.4698583559
C   C23       1.0  0.11850  0.28360  0.04512  1.0000 0.4698583559
C   C24       1.0  0.88150  0.78360  0.45488  1.0000 0.4698583559
O   O1        1.0  0.56190  0.79609  0.75336  1.0000 -0.5396169684
O   O2        1.0  0.43810  0.29609  0.74664  1.0000 -0.5396169684
O   O3        1.0  0.43810  0.20391  0.24664  1.0000 -0.5396169684
O   O4        1.0  0.56190  0.70391  0.25336  1.0000 -0.5396169684
O   O5        1.0  0.44090  0.93052  0.62867  1.0000 -0.470716805
O   O6        1.0  0.55910  0.43052  0.87133  1.0000 -0.470716805
O   O7        1.0  0.55910  0.06948  0.37133  1.0000 -0.470716805
O   O8        1.0  0.44090  0.56948  0.12867  1.0000 -0.470716805
O   O9        1.0  0.40610  0.00107  0.77977  1.0000 -0.5396169684
O   O10       1.0  0.59390  0.50107  0.72023  1.0000 -0.5396169684
O   O11       1.0  0.59390  0.99893  0.22023  1.0000 -0.5396169684
O   O12       1.0  0.40610  0.49893  0.27977  1.0000 -0.5396169684
O   O13       1.0  0.31290  0.99375  0.85766  1.0000 -0.4807822468
O   O14       1.0  0.68710  0.49375  0.64234  1.0000 -0.4807822468
O   O15       1.0  0.68710  0.00625  0.14234  1.0000 -0.4807822468
O   O16       1.0  0.31290  0.50625  0.35766  1.0000 -0.4807822468
O   O17       1.0  0.54600  0.73950  0.89419  1.0000 -0.5396169684
O   O18       1.0  0.45400  0.23950  0.60581  1.0000 -0.5396169684
O   O19       1.0  0.45400  0.26050  0.10581  1.0000 -0.5396169684
O   O20       1.0  0.54600  0.76050  0.39419  1.0000 -0.5396169684
O   O21       1.0  0.52530  0.79096  0.00539  1.0000 -0.4869249351
O   O22       1.0  0.47470  0.29096  0.49461  1.0000 -0.4869249351
O   O23       1.0  0.47470  0.20904  0.99461  1.0000 -0.4869249351
O   O24       1.0  0.52530  0.70904  0.50539  1.0000 -0.4869249351
O   O25       1.0  0.65394  0.07999  0.80153  1.0000 -0.5396169684
O   O26       1.0  0.34606  0.57999  0.69847  1.0000 -0.5396169684
O   O27       1.0  0.34606  0.92001  0.19847  1.0000 -0.5396169684
O   O28       1.0  0.65394  0.42001  0.30153  1.0000 -0.5396169684
O   O29       1.0  0.89670  0.09535  0.87212  1.0000 -0.470716805
O   O30       1.0  0.10330  0.59535  0.62788  1.0000 -0.4642660704
O   O31       1.0  0.10330  0.90465  0.12788  1.0000 -0.4642660704
O   O32       1.0  0.89670  0.40465  0.37212  1.0000 -0.4642660704
O   O33       1.0  0.66440  0.02930  0.97731  1.0000 -0.5565805174
O   O34       1.0  0.33560  0.52930  0.52269  1.0000 -0.5565805174
O   O35       1.0  0.33560  0.97070  0.02269  1.0000 -0.5565805174
O   O36       1.0  0.66440  0.47070  0.47731  1.0000 -0.5565805174
O   O37       1.0  0.88530  0.11882  0.03452  1.0000 -0.4807822468
O   O38       1.0  0.11470  0.61882  0.46548  1.0000 -0.4807822468
O   O39       1.0  0.11470  0.88118  0.96548  1.0000 -0.4807822468
O   O40       1.0  0.88530  0.38118  0.53452  1.0000 -0.4807822468
O   O41       1.0  0.83875  0.83939  0.94243  1.0000 -0.5465263314
O   O42       1.0  0.16125  0.33939  0.55757  1.0000 -0.5465263314
O   O43       1.0  0.16125  0.16061  0.05757  1.0000 -0.5465263314
O   O44       1.0  0.83875  0.66061  0.44243  1.0000 -0.5465263314
O   O45       1.0  0.80210  0.61704  0.91334  1.0000 -0.4807822468
O   O46       1.0  0.19790  0.11704  0.58666  1.0000 -0.4807822468
O   O47       1.0  0.19790  0.38296  0.08666  1.0000 -0.4807822468
O   O48       1.0  0.80210  0.88296  0.41334  1.0000 -0.4807822468
