# DDEC6 charges by PACMAN v1.1 (https://github.com/mtap-research/PACMAN-charge/)
data_2007[NdRu][tfi]3[ASR]1
_chemical_formula_sum              "Nd2 P8 H16 Ru4 C8 O28"
_cell_length_a       9.66022
_cell_length_b       9.66022
_cell_length_c       15.625
_cell_angle_alpha    87.0947
_cell_angle_beta     92.9053
_cell_angle_gamma    80.8938

_symmetry_space_group_name_H-M    "P 1"
_symmetry_Int_Tables_number       1

loop_
  _symmetry_equiv_pos_as_xyz
  'x, y, z'

loop_
  _atom_site_type_symbol
  _atom_site_label
  _atom_site_symmetry_multiplicity
  _atom_site_fract_x
  _atom_site_fract_y
  _atom_site_fract_z
  _atom_site_occupancy
  _atom_site_charge
Nd  Nd1       1.0  0.98865  0.98865  0.75000  1.0000 2.2701914001
Nd  Nd2       1.0  0.01135  0.01135  0.25000  1.0000 2.2758791137
P   P1        1.0  0.04489  0.64469  0.64424  1.0000 1.1986598182
P   P2        1.0  0.64469  0.04489  0.85576  1.0000 1.1986598182
P   P3        1.0  0.95511  0.35531  0.35576  1.0000 1.1986598182
P   P4        1.0  0.35531  0.95511  0.14424  1.0000 1.1986598182
P   P5        1.0  0.97491  0.34995  0.65262  1.0000 1.1986598182
P   P6        1.0  0.34995  0.97491  0.84738  1.0000 1.1946052004
P   P7        1.0  0.02509  0.65005  0.34738  1.0000 1.1946052004
P   P8        1.0  0.65005  0.02509  0.15262  1.0000 1.1946052004
H   H1        1.0  0.15460  0.52140  0.81630  1.0000 0.1524565246
H   H2        1.0  0.52140  0.15460  0.68370  1.0000 0.1524565246
H   H3        1.0  0.84540  0.47860  0.18370  1.0000 0.1524565246
H   H4        1.0  0.47860  0.84540  0.31630  1.0000 0.1524565246
H   H5        1.0  0.12850  0.36230  0.81210  1.0000 0.1606888723
H   H6        1.0  0.36230  0.12850  0.68790  1.0000 0.1606888723
H   H7        1.0  0.87150  0.63770  0.18790  1.0000 0.1606888723
H   H8        1.0  0.63770  0.87150  0.31210  1.0000 0.1606888723
H   H9        1.0  0.22660  0.42460  0.74550  1.0000 0.1524565246
H   H10       1.0  0.42460  0.22660  0.75450  1.0000 0.1524565246
H   H11       1.0  0.77340  0.57540  0.25450  1.0000 0.1524565246
H   H12       1.0  0.57540  0.77340  0.24550  1.0000 0.1524565246
H   H13       1.0  0.82500  0.58100  0.73200  1.0000 0.3614602748
H   H14       1.0  0.58100  0.82500  0.76800  1.0000 0.3614602748
H   H15       1.0  0.17500  0.41900  0.26800  1.0000 0.3614602748
H   H16       1.0  0.41900  0.17500  0.23200  1.0000 0.3614602748
Ru  Ru1       1.0  0.12039  0.45397  0.50221  1.0000 0.898379131
Ru  Ru2       1.0  0.45397  0.12039  0.99779  1.0000 0.898379131
Ru  Ru3       1.0  0.87961  0.54603  0.49779  1.0000 0.898379131
Ru  Ru4       1.0  0.54603  0.87961  0.00221  1.0000 0.898379131
C   C1        1.0  0.01540  0.49420  0.71620  1.0000 -0.1906774204
C   C2        1.0  0.49420  0.01540  0.78380  1.0000 -0.1906774204
C   C3        1.0  0.98460  0.50580  0.28380  1.0000 -0.1906774204
C   C4        1.0  0.50580  0.98460  0.21620  1.0000 -0.1906774204
C   C5        1.0  0.14260  0.44640  0.77800  1.0000 -0.416489565
C   C6        1.0  0.44640  0.14260  0.72200  1.0000 -0.416489565
C   C7        1.0  0.85740  0.55360  0.22200  1.0000 -0.416489565
C   C8        1.0  0.55360  0.85740  0.27800  1.0000 -0.416489565
O   O1        1.0  0.16850  0.59030  0.58889  1.0000 -0.6010913264
O   O2        1.0  0.59030  0.16850  0.91111  1.0000 -0.6010913264
O   O3        1.0  0.83150  0.40970  0.41111  1.0000 -0.6010913264
O   O4        1.0  0.40970  0.83150  0.08889  1.0000 -0.6010913264
O   O5        1.0  0.91000  0.68940  0.58562  1.0000 -0.6667937647
O   O6        1.0  0.68940  0.91000  0.91438  1.0000 -0.6667937647
O   O7        1.0  0.09000  0.31060  0.41438  1.0000 -0.6667937647
O   O8        1.0  0.31060  0.09000  0.08562  1.0000 -0.6667937647
O   O9        1.0  0.07760  0.76460  0.69856  1.0000 -0.8613086205
O   O10       1.0  0.76460  0.07760  0.80144  1.0000 -0.8613086205
O   O11       1.0  0.92240  0.23540  0.30144  1.0000 -0.8613086205
O   O12       1.0  0.23540  0.92240  0.19856  1.0000 -0.8613086205
O   O13       1.0  0.10180  0.30920  0.59825  1.0000 -0.6459237647
O   O14       1.0  0.30920  0.10180  0.90175  1.0000 -0.6459237647
O   O15       1.0  0.89820  0.69080  0.40175  1.0000 -0.6459237647
O   O16       1.0  0.69080  0.89820  0.09825  1.0000 -0.6423219394
O   O17       1.0  0.84388  0.40748  0.59238  1.0000 -0.6423219394
O   O18       1.0  0.40748  0.84388  0.90762  1.0000 -0.6423219394
O   O19       1.0  0.15612  0.59252  0.40762  1.0000 -0.6423219394
O   O20       1.0  0.59252  0.15612  0.09238  1.0000 -0.6423219394
O   O21       1.0  0.95137  0.23117  0.71214  1.0000 -0.8373128485
O   O22       1.0  0.23117  0.95137  0.78786  1.0000 -0.8373128485
O   O23       1.0  0.04863  0.76883  0.28786  1.0000 -0.8373128485
O   O24       1.0  0.76883  0.04863  0.21214  1.0000 -0.8373128485
O   O25       1.0  0.89870  0.54990  0.76600  1.0000 -0.3981330406
O   O26       1.0  0.54990  0.89870  0.73400  1.0000 -0.3923046302
O   O27       1.0  0.10130  0.45010  0.23400  1.0000 -0.3981330406
O   O28       1.0  0.45010  0.10130  0.26600  1.0000 -0.3923046302
