# DDEC6 charges by PACMAN v1.1 (https://github.com/mtap-research/PACMAN-charge/)
data_2007[Ni][pcu]3[ASR]1
_chemical_formula_sum              "Ni2 H48 C52 N14"
_cell_length_a       13.5204
_cell_length_b       13.5204
_cell_length_c       8.632
_cell_angle_alpha    83.0242
_cell_angle_beta     96.9758
_cell_angle_gamma    84.6643

_symmetry_space_group_name_H-M    "P 1"
_symmetry_Int_Tables_number       1

loop_
  _symmetry_equiv_pos_as_xyz
  'x, y, z'

loop_
  _atom_site_type_symbol
  _atom_site_label
  _atom_site_symmetry_multiplicity
  _atom_site_fract_x
  _atom_site_fract_y
  _atom_site_fract_z
  _atom_site_occupancy
  _atom_site_charge
Ni  Ni1       1.0  0.67731  0.67731  0.25000  1.0000 0.5927324488
Ni  Ni2       1.0  0.32269  0.32269  0.75000  1.0000 0.5927324488
H   H1        1.0  0.86620  0.60200  0.49130  1.0000 0.0987602268
H   H2        1.0  0.60200  0.86620  0.00870  1.0000 0.0987602268
H   H3        1.0  0.03950  0.60130  0.51270  1.0000 0.1226361885
H   H4        1.0  0.60130  0.03950  0.98730  1.0000 0.1226361885
H   H5        1.0  0.00400  0.75600  0.07350  1.0000 0.1256330505
H   H6        1.0  0.75600  0.00400  0.42650  1.0000 0.1256330505
H   H7        1.0  0.83230  0.75130  0.06360  1.0000 0.0987602268
H   H8        1.0  0.75130  0.83230  0.43640  1.0000 0.0987602268
H   H9        1.0  0.17770  0.70850  0.38790  1.0000 0.1119445066
H   H10       1.0  0.70850  0.17770  0.11210  1.0000 0.1119445066
H   H11       1.0  0.18230  0.60310  0.33370  1.0000 0.1226361885
H   H12       1.0  0.60310  0.18230  0.16630  1.0000 0.1226361885
H   H13       1.0  0.49990  0.81290  0.32500  1.0000 0.0909516483
H   H14       1.0  0.81290  0.49990  0.17500  1.0000 0.0909516483
H   H15       1.0  0.32400  0.82980  0.29250  1.0000 0.1256330505
H   H16       1.0  0.82980  0.32400  0.20750  1.0000 0.1256330505
H   H17       1.0  0.32860  0.57860  0.07920  1.0000 0.1226361885
H   H18       1.0  0.57860  0.32860  0.42080  1.0000 0.1226361885
H   H19       1.0  0.50180  0.57320  0.10060  1.0000 0.0987602268
H   H20       1.0  0.57320  0.50180  0.39940  1.0000 0.0987602268
H   H21       1.0  0.16670  0.77970  0.13420  1.0000 0.1119445066
H   H22       1.0  0.77970  0.16670  0.36580  1.0000 0.1119445066
H   H23       1.0  0.17150  0.67430  0.08010  1.0000 0.1119445066
H   H24       1.0  0.67430  0.17150  0.41990  1.0000 0.1119445066
H   H25       1.0  0.13380  0.39800  0.50870  1.0000 0.0987602268
H   H26       1.0  0.39800  0.13380  0.99130  1.0000 0.0987602268
H   H27       1.0  0.96050  0.39870  0.48730  1.0000 0.1226361885
H   H28       1.0  0.39870  0.96050  0.01270  1.0000 0.1226361885
H   H29       1.0  0.99600  0.24400  0.92650  1.0000 0.1226361885
H   H30       1.0  0.24400  0.99600  0.57350  1.0000 0.1226361885
H   H31       1.0  0.16770  0.24870  0.93640  1.0000 0.0987602268
H   H32       1.0  0.24870  0.16770  0.56360  1.0000 0.0987602268
H   H33       1.0  0.82230  0.29150  0.61210  1.0000 0.1119445066
H   H34       1.0  0.29150  0.82230  0.88790  1.0000 0.1119445066
H   H35       1.0  0.81770  0.39690  0.66630  1.0000 0.1226361885
H   H36       1.0  0.39690  0.81770  0.83370  1.0000 0.1226361885
H   H37       1.0  0.50010  0.18710  0.67500  1.0000 0.0909516483
H   H38       1.0  0.18710  0.50010  0.82500  1.0000 0.0909516483
H   H39       1.0  0.67600  0.17020  0.70750  1.0000 0.1256330505
H   H40       1.0  0.17020  0.67600  0.79250  1.0000 0.1256330505
H   H41       1.0  0.67140  0.42140  0.92080  1.0000 0.1226361885
H   H42       1.0  0.42140  0.67140  0.57920  1.0000 0.1226361885
H   H43       1.0  0.49820  0.42680  0.89940  1.0000 0.0987602268
H   H44       1.0  0.42680  0.49820  0.60060  1.0000 0.0987602268
H   H45       1.0  0.83330  0.22030  0.86580  1.0000 0.1119445066
H   H46       1.0  0.22030  0.83330  0.63420  1.0000 0.1119445066
H   H47       1.0  0.82850  0.32570  0.91990  1.0000 0.1119445066
H   H48       1.0  0.32570  0.82850  0.58010  1.0000 0.1119445066
C   C1        1.0  0.89510  0.63310  0.40450  1.0000 0.0582124318
C   C2        1.0  0.63310  0.89510  0.09550  1.0000 0.0582124318
C   C3        1.0  0.99740  0.63260  0.41640  1.0000 -0.2308638182
C   C4        1.0  0.63260  0.99740  0.08360  1.0000 -0.2308638182
C   C5        1.0  0.04120  0.67700  0.29380  1.0000 0.1607750699
C   C6        1.0  0.67700  0.04120  0.20620  1.0000 0.1607750699
C   C7        1.0  0.97740  0.72280  0.16120  1.0000 -0.2129497186
C   C8        1.0  0.72280  0.97740  0.33880  1.0000 -0.2129497186
C   C9        1.0  0.87520  0.71960  0.15550  1.0000 0.0690674901
C   C10       1.0  0.71960  0.87520  0.34450  1.0000 0.0690674901
C   C11       1.0  0.15420  0.67420  0.30480  1.0000 -0.2510931317
C   C12       1.0  0.67420  0.15420  0.19520  1.0000 -0.2510931317
C   C13       1.0  0.46550  0.62550  0.14460  1.0000 0.0582124318
C   C14       1.0  0.62550  0.46550  0.35540  1.0000 0.0582124318
C   C15       1.0  0.36170  0.62910  0.13070  1.0000 -0.2129497186
C   C16       1.0  0.62910  0.36170  0.36930  1.0000 -0.2129497186
C   C17       1.0  0.30690  0.70450  0.18420  1.0000 0.1501330927
C   C18       1.0  0.70450  0.30690  0.31580  1.0000 0.1501330927
C   C19       1.0  0.35980  0.77380  0.25510  1.0000 -0.2308638182
C   C20       1.0  0.77380  0.35980  0.24490  1.0000 -0.2308638182
C   C21       1.0  0.46440  0.76420  0.27170  1.0000 0.0690674901
C   C22       1.0  0.76420  0.46440  0.22830  1.0000 0.0690674901
C   C23       1.0  0.19420  0.71220  0.16650  1.0000 -0.2510931317
C   C24       1.0  0.71220  0.19420  0.33350  1.0000 -0.2510931317
C   C25       1.0  0.65490  0.65350  0.61540  1.0000 0.4278472259
C   C26       1.0  0.65350  0.65490  0.88460  1.0000 0.4278472259
C   C27       1.0  0.10490  0.36690  0.59550  1.0000 0.0582124318
C   C28       1.0  0.36690  0.10490  0.90450  1.0000 0.0582124318
C   C29       1.0  0.00260  0.36740  0.58360  1.0000 -0.2308638182
C   C30       1.0  0.36740  0.00260  0.91640  1.0000 -0.2308638182
C   C31       1.0  0.95880  0.32300  0.70620  1.0000 0.1607750699
C   C32       1.0  0.32300  0.95880  0.79380  1.0000 0.1607750699
C   C33       1.0  0.02260  0.27720  0.83880  1.0000 -0.2129497186
C   C34       1.0  0.27720  0.02260  0.66120  1.0000 -0.2129497186
C   C35       1.0  0.12480  0.28040  0.84450  1.0000 0.0690674901
C   C36       1.0  0.28040  0.12480  0.65550  1.0000 0.0690674901
C   C37       1.0  0.84580  0.32580  0.69520  1.0000 -0.2510931317
C   C38       1.0  0.32580  0.84580  0.80480  1.0000 -0.2510931317
C   C39       1.0  0.53450  0.37450  0.85540  1.0000 0.0582124318
C   C40       1.0  0.37450  0.53450  0.64460  1.0000 0.0582124318
C   C41       1.0  0.63830  0.37090  0.86930  1.0000 -0.2129497186
C   C42       1.0  0.37090  0.63830  0.63070  1.0000 -0.2129497186
C   C43       1.0  0.69310  0.29550  0.81580  1.0000 0.1501330927
C   C44       1.0  0.29550  0.69310  0.68420  1.0000 0.1501330927
C   C45       1.0  0.64020  0.22620  0.74490  1.0000 -0.2308638182
C   C46       1.0  0.22620  0.64020  0.75510  1.0000 -0.2308638182
C   C47       1.0  0.53560  0.23580  0.72830  1.0000 0.0690674901
C   C48       1.0  0.23580  0.53560  0.77170  1.0000 0.0690674901
C   C49       1.0  0.80580  0.28780  0.83350  1.0000 -0.2510931317
C   C50       1.0  0.28780  0.80580  0.66650  1.0000 -0.2510931317
C   C51       1.0  0.34510  0.34650  0.38460  1.0000 0.4278472259
C   C52       1.0  0.34650  0.34510  0.11540  1.0000 0.4278472259
N   N1        1.0  0.83360  0.67460  0.27450  1.0000 -0.2170355723
N   N2        1.0  0.67460  0.83360  0.22550  1.0000 -0.2170355723
N   N3        1.0  0.51720  0.69100  0.21690  1.0000 -0.2370307103
N   N4        1.0  0.69100  0.51720  0.28310  1.0000 -0.2370307103
N   N5        1.0  0.67170  0.66970  0.49020  1.0000 -0.5619151399
N   N6        1.0  0.66970  0.67170  0.00980  1.0000 -0.5619151399
N   N7        1.0  0.62560  0.62560  0.75000  1.0000 -0.4492575631
N   N8        1.0  0.16640  0.32540  0.72550  1.0000 -0.2170355723
N   N9        1.0  0.32540  0.16640  0.77450  1.0000 -0.2170355723
N   N10       1.0  0.48280  0.30900  0.78310  1.0000 -0.2370307103
N   N11       1.0  0.30900  0.48280  0.71690  1.0000 -0.2370307103
N   N12       1.0  0.32830  0.33030  0.50980  1.0000 -0.5619151399
N   N13       1.0  0.33030  0.32830  0.99020  1.0000 -0.5619151399
N   N14       1.0  0.37440  0.37440  0.25000  1.0000 -0.4492575631
