# DDEC6 charges by PACMAN v1.1 (https://github.com/mtap-research/PACMAN-charge/)
data_2007[CuEu][nan]3[ASR]2
_chemical_formula_sum              "Eu2 Cu1 H16 C28 N2 O12"
_cell_length_a       18.7585
_cell_length_b       18.7585
_cell_length_c       6.21
_cell_angle_alpha    83.1035
_cell_angle_beta     96.8965
_cell_angle_gamma    158.524

_symmetry_space_group_name_H-M    "P 1"
_symmetry_Int_Tables_number       1

loop_
  _symmetry_equiv_pos_as_xyz
  'x, y, z'

loop_
  _atom_site_type_symbol
  _atom_site_label
  _atom_site_symmetry_multiplicity
  _atom_site_fract_x
  _atom_site_fract_y
  _atom_site_fract_z
  _atom_site_occupancy
  _atom_site_charge
Eu  Eu1       1.0  0.09087  0.53089  0.47762  1.0000 2.0771081394
Eu  Eu2       1.0  0.53089  0.09087  0.52238  1.0000 2.0771081394
Cu  Cu1       1.0  0.31020  0.31020  0.00000  1.0000 0.1146105946
H   H1        1.0  0.26130  0.52350  0.93040  1.0000 0.1512139982
H   H2        1.0  0.52350  0.26130  0.06960  1.0000 0.1512139982
H   H3        1.0  0.32620  0.47380  0.82450  1.0000 0.0986508102
H   H4        1.0  0.47380  0.32620  0.17550  1.0000 0.0986508102
H   H5        1.0  0.16730  0.22950  0.38340  1.0000 0.0890578723
H   H6        1.0  0.22950  0.16730  0.61660  1.0000 0.0890578723
H   H7        1.0  0.10380  0.27900  0.50480  1.0000 0.1263219064
H   H8        1.0  0.27900  0.10380  0.49520  1.0000 0.1263219064
H   H9        1.0  0.09600  0.81920  0.19160  1.0000 0.1184760353
H   H10       1.0  0.81920  0.09600  0.80840  1.0000 0.1184760353
H   H11       1.0  0.93050  0.75850  0.98220  1.0000 0.0986508102
H   H12       1.0  0.75850  0.93050  0.01780  1.0000 0.0986508102
H   H13       1.0  0.82150  0.64350  0.63760  1.0000 0.0986508102
H   H14       1.0  0.64350  0.82150  0.36240  1.0000 0.0986508102
H   H15       1.0  0.84880  0.55920  0.50970  1.0000 0.1146105946
H   H16       1.0  0.55920  0.84880  0.49030  1.0000 0.1146105946
C   C1        1.0  0.15092  0.45508  0.31450  1.0000 0.5402337259
C   C2        1.0  0.45508  0.15092  0.68550  1.0000 0.5402337259
C   C3        1.0  0.18870  0.41930  0.23260  1.0000 0.0312507517
C   C4        1.0  0.41930  0.18870  0.76740  1.0000 0.0312507517
C   C5        1.0  0.24685  0.46875  0.02760  1.0000 -0.1355280558
C   C6        1.0  0.46875  0.24685  0.97240  1.0000 -0.1355280558
C   C7        1.0  0.28430  0.43730  0.96470  1.0000 0.0369651841
C   C8        1.0  0.43730  0.28430  0.03530  1.0000 0.0369651841
C   C9        1.0  0.19171  0.29449  0.29340  1.0000 0.0312507517
C   C10       1.0  0.29449  0.19171  0.70660  1.0000 0.0312507517
C   C11       1.0  0.15287  0.32313  0.36710  1.0000 -0.1716751212
C   C12       1.0  0.32313  0.15287  0.63290  1.0000 -0.1716751212
C   C13       1.0  0.04605  0.76615  0.05490  1.0000 -0.1227916831
C   C14       1.0  0.76615  0.04605  0.94510  1.0000 -0.1227916831
C   C15       1.0  0.94840  0.73160  0.92760  1.0000 -0.1100600466
C   C16       1.0  0.73160  0.94840  0.07240  1.0000 -0.1100600466
C   C17       1.0  0.88045  0.65995  0.72390  1.0000 -0.1100600466
C   C18       1.0  0.65995  0.88045  0.27610  1.0000 -0.1100600466
C   C19       1.0  0.89905  0.61175  0.64680  1.0000 -0.1100600466
C   C20       1.0  0.61175  0.89905  0.35320  1.0000 -0.1100600466
C   C21       1.0  0.99036  0.63964  0.76950  1.0000 -0.0317472162
C   C22       1.0  0.63964  0.99036  0.23050  1.0000 -0.0317472162
C   C23       1.0  0.06782  0.71998  0.97550  1.0000 -0.0244751543
C   C24       1.0  0.71998  0.06782  0.02450  1.0000 -0.0244751543
C   C25       1.0  0.03215  0.61185  0.66640  1.0000 0.6586494988
C   C26       1.0  0.61185  0.03215  0.33360  1.0000 0.6586494988
C   C27       1.0  0.16087  0.74693  0.13170  1.0000 0.6528052634
C   C28       1.0  0.74693  0.16087  0.86830  1.0000 0.6528052634
N   N1        1.0  0.26329  0.35671  0.09670  1.0000 -0.1906264776
N   N2        1.0  0.35671  0.26329  0.90330  1.0000 -0.1906264776
O   O1        1.0  0.10164  0.40896  0.51120  1.0000 -0.6601471508
O   O2        1.0  0.40896  0.10164  0.48880  1.0000 -0.6601471508
O   O3        1.0  0.14981  0.51179  0.18990  1.0000 -0.5904208774
O   O4        1.0  0.51179  0.14981  0.81010  1.0000 -0.5904208774
O   O5        1.0  0.19597  0.74123  0.65020  1.0000 -0.6376426274
O   O6        1.0  0.74123  0.19597  0.34980  1.0000 -0.6376426274
O   O7        1.0  0.88127  0.43913  0.59100  1.0000 -0.7744454199
O   O8        1.0  0.43913  0.88127  0.40900  1.0000 -0.7744454199
O   O9        1.0  0.06572  0.59888  0.16360  1.0000 -0.6601471508
O   O10       1.0  0.59888  0.06572  0.83640  1.0000 -0.6601471508
O   O11       1.0  0.31340  0.90380  0.22300  1.0000 -0.6513743753
O   O12       1.0  0.90380  0.31340  0.77700  1.0000 -0.6513743753
