# DDEC6 charges by PACMAN v1.1 (https://github.com/mtap-research/PACMAN-charge/)
data_2007[Co][nan]3[ASR]6
_chemical_formula_sum              "Co12 P8 H28 C12 N4 O40"
_cell_length_a       15.7062
_cell_length_b       15.7062
_cell_length_c       8.266
_cell_angle_alpha    83.3835
_cell_angle_beta     96.6165
_cell_angle_gamma    131.611

_symmetry_space_group_name_H-M    "P 1"
_symmetry_Int_Tables_number       1

loop_
  _symmetry_equiv_pos_as_xyz
  'x, y, z'

loop_
  _atom_site_type_symbol
  _atom_site_label
  _atom_site_symmetry_multiplicity
  _atom_site_fract_x
  _atom_site_fract_y
  _atom_site_fract_z
  _atom_site_occupancy
  _atom_site_charge
Co  Co1       1.0  0.11205  0.61721  0.93339  1.0000 1.1868169539
Co  Co2       1.0  0.61721  0.11205  0.56661  1.0000 1.1868169539
Co  Co3       1.0  0.88795  0.38279  0.06661  1.0000 1.1868169539
Co  Co4       1.0  0.38279  0.88795  0.43339  1.0000 1.1868169539
Co  Co5       1.0  0.11102  0.61916  0.54361  1.0000 1.2158197893
Co  Co6       1.0  0.61916  0.11102  0.95639  1.0000 1.2158197893
Co  Co7       1.0  0.88898  0.38084  0.45639  1.0000 1.2158197893
Co  Co8       1.0  0.38084  0.88898  0.04361  1.0000 1.2145680123
Co  Co9       1.0  0.01832  0.74614  0.85619  1.0000 1.0400655501
Co  Co10      1.0  0.74614  0.01832  0.64381  1.0000 1.0400655501
Co  Co11      1.0  0.98168  0.25386  0.14381  1.0000 1.0400655501
Co  Co12      1.0  0.25386  0.98168  0.35619  1.0000 1.0400655501
P   P1        1.0  0.88077  0.51047  0.72380  1.0000 1.5260488126
P   P2        1.0  0.51047  0.88077  0.77620  1.0000 1.5260488126
P   P3        1.0  0.11923  0.48953  0.27620  1.0000 1.5260488126
P   P4        1.0  0.48953  0.11923  0.22380  1.0000 1.5244303875
P   P5        1.0  0.14630  0.77378  0.20520  1.0000 1.5452796154
P   P6        1.0  0.77378  0.14630  0.29480  1.0000 1.5444430046
P   P7        1.0  0.85370  0.22622  0.79480  1.0000 1.5452796154
P   P8        1.0  0.22622  0.85370  0.70520  1.0000 1.5444430046
H   H1        1.0  0.74030  0.35990  0.66470  1.0000 0.3936059706
H   H2        1.0  0.35990  0.74030  0.83530  1.0000 0.3936059706
H   H3        1.0  0.25970  0.64010  0.33530  1.0000 0.3936059706
H   H4        1.0  0.64010  0.25970  0.16470  1.0000 0.3936059706
H   H5        1.0  0.93250  0.75990  0.08630  1.0000 0.3206350737
H   H6        1.0  0.75990  0.93250  0.41370  1.0000 0.3206350737
H   H7        1.0  0.06750  0.24010  0.91370  1.0000 0.3206350737
H   H8        1.0  0.24010  0.06750  0.58630  1.0000 0.3206350737
H   H9        1.0  0.86850  0.84590  0.97790  1.0000 0.0827908524
H   H10       1.0  0.84590  0.86850  0.52210  1.0000 0.0827908524
H   H11       1.0  0.13150  0.15410  0.02210  1.0000 0.0827908524
H   H12       1.0  0.15410  0.13150  0.47790  1.0000 0.0827908524
H   H13       1.0  0.80080  0.70640  0.71740  1.0000 0.1100694322
H   H14       1.0  0.70640  0.80080  0.78260  1.0000 0.1100694322
H   H15       1.0  0.19920  0.29360  0.28260  1.0000 0.1100694322
H   H16       1.0  0.29360  0.19920  0.21740  1.0000 0.1100694322
H   H17       1.0  0.72640  0.66880  0.86580  1.0000 0.101220521
H   H18       1.0  0.66880  0.72640  0.63420  1.0000 0.101220521
H   H19       1.0  0.27360  0.33120  0.13420  1.0000 0.101220521
H   H20       1.0  0.33120  0.27360  0.36580  1.0000 0.101220521
H   H21       1.0  0.04590  0.98490  0.85890  1.0000 0.1164845534
H   H22       1.0  0.98490  0.04590  0.64110  1.0000 0.1164845534
H   H23       1.0  0.95410  0.01510  0.14110  1.0000 0.1164845534
H   H24       1.0  0.01510  0.95410  0.35890  1.0000 0.1164845534
H   H25       1.0  0.00180  0.90860  0.70990  1.0000 0.1164845534
H   H26       1.0  0.90860  0.00180  0.79010  1.0000 0.1164845534
H   H27       1.0  0.99820  0.09140  0.29010  1.0000 0.1164845534
H   H28       1.0  0.09140  0.99820  0.20990  1.0000 0.1164845534
C   C1        1.0  0.88960  0.82300  0.89640  1.0000 0.1861300514
C   C2        1.0  0.82300  0.88960  0.60360  1.0000 0.1861300514
C   C3        1.0  0.11040  0.17700  0.10360  1.0000 0.1861300514
C   C4        1.0  0.17700  0.11040  0.39640  1.0000 0.1861300514
C   C5        1.0  0.78250  0.73330  0.79500  1.0000 -0.2105068538
C   C6        1.0  0.73330  0.78250  0.70500  1.0000 -0.2105068538
C   C7        1.0  0.21750  0.26670  0.20500  1.0000 -0.2105068538
C   C8        1.0  0.26670  0.21750  0.29500  1.0000 -0.2105068538
C   C9        1.0  0.97890  0.92910  0.79120  1.0000 -0.2105068538
C   C10       1.0  0.92910  0.97890  0.70880  1.0000 -0.2105068538
C   C11       1.0  0.02110  0.07090  0.20880  1.0000 -0.2105068538
C   C12       1.0  0.07090  0.02110  0.29120  1.0000 -0.2105068538
N   N1        1.0  0.93830  0.77530  0.98280  1.0000 -0.6630438037
N   N2        1.0  0.77530  0.93830  0.51720  1.0000 -0.6630438037
N   N3        1.0  0.06170  0.22470  0.01720  1.0000 -0.6630438037
N   N4        1.0  0.22470  0.06170  0.48280  1.0000 -0.6630438037
O   O1        1.0  0.93475  0.51405  0.57830  1.0000 -0.7674973823
O   O2        1.0  0.51405  0.93475  0.92170  1.0000 -0.7674973823
O   O3        1.0  0.06525  0.48595  0.42170  1.0000 -0.7674973823
O   O4        1.0  0.48595  0.06525  0.07830  1.0000 -0.7674973823
O   O5        1.0  0.93680  0.50360  0.88240  1.0000 -0.7870692528
O   O6        1.0  0.50360  0.93680  0.61760  1.0000 -0.7870692528
O   O7        1.0  0.06320  0.49640  0.11760  1.0000 -0.7870692528
O   O8        1.0  0.49640  0.06320  0.38240  1.0000 -0.7870692528
O   O9        1.0  0.90130  0.61970  0.72050  1.0000 -0.7383942373
O   O10       1.0  0.61970  0.90130  0.77950  1.0000 -0.7383942373
O   O11       1.0  0.09870  0.38030  0.27950  1.0000 -0.7383942373
O   O12       1.0  0.38030  0.09870  0.22050  1.0000 -0.7383942373
O   O13       1.0  0.75400  0.40880  0.71870  1.0000 -0.5849069424
O   O14       1.0  0.40880  0.75400  0.78130  1.0000 -0.5881017172
O   O15       1.0  0.24600  0.59120  0.28130  1.0000 -0.5881017172
O   O16       1.0  0.59120  0.24600  0.21870  1.0000 -0.5881017172
O   O17       1.0  0.09941  0.72339  0.03650  1.0000 -0.8088263191
O   O18       1.0  0.72339  0.09941  0.46350  1.0000 -0.8088263191
O   O19       1.0  0.90059  0.27661  0.96350  1.0000 -0.8088263191
O   O20       1.0  0.27661  0.90059  0.53650  1.0000 -0.8088263191
O   O21       1.0  0.27520  0.84240  0.22170  1.0000 -0.8384589769
O   O22       1.0  0.84240  0.27520  0.27830  1.0000 -0.8384589769
O   O23       1.0  0.72480  0.15760  0.77830  1.0000 -0.8384589769
O   O24       1.0  0.15760  0.72480  0.72170  1.0000 -0.8384589769
O   O25       1.0  0.08440  0.67820  0.33300  1.0000 -0.6999916948
O   O26       1.0  0.67820  0.08440  0.16700  1.0000 -0.6999916948
O   O27       1.0  0.91560  0.32180  0.66700  1.0000 -0.6999916948
O   O28       1.0  0.32180  0.91560  0.83300  1.0000 -0.6999916948
O   O29       1.0  0.12540  0.85420  0.22360  1.0000 -0.7571340866
O   O30       1.0  0.85420  0.12540  0.27640  1.0000 -0.7571340866
O   O31       1.0  0.87460  0.14580  0.77640  1.0000 -0.7571340866
O   O32       1.0  0.14580  0.87460  0.72360  1.0000 -0.7571340866
O   O33       1.0  0.11385  0.52355  0.76250  1.0000 -0.2856734164
O   O34       1.0  0.52355  0.11385  0.73750  1.0000 -0.28275109
O   O35       1.0  0.88615  0.47645  0.23750  1.0000 -0.28275109
O   O36       1.0  0.47645  0.88615  0.26250  1.0000 -0.28275109
O   O37       1.0  0.28460  0.71120  0.00840  1.0000 -0.5881017172
O   O38       1.0  0.71120  0.28460  0.49160  1.0000 -0.5881017172
O   O39       1.0  0.71540  0.28880  0.99160  1.0000 -0.5881017172
O   O40       1.0  0.28880  0.71540  0.50840  1.0000 -0.5881017172
