# DDEC6 charges by PACMAN v1.1 (https://github.com/mtap-research/PACMAN-charge/)
data_2007[Nd][bcu]3[ASR]1
_chemical_formula_sum              "Nd4 H48 C60 O36"
_cell_length_a       8.9529
_cell_length_b       16.7338
_cell_length_c       12.2203
_cell_angle_alpha    90
_cell_angle_beta     110.009
_cell_angle_gamma    90

_symmetry_space_group_name_H-M    "P 1"
_symmetry_Int_Tables_number       1

loop_
  _symmetry_equiv_pos_as_xyz
  'x, y, z'

loop_
  _atom_site_type_symbol
  _atom_site_label
  _atom_site_symmetry_multiplicity
  _atom_site_fract_x
  _atom_site_fract_y
  _atom_site_fract_z
  _atom_site_occupancy
  _atom_site_charge
Nd  Nd1       1.0  0.56367  0.88303  0.04773  1.0000 2.0847123433
Nd  Nd2       1.0  0.93633  0.38303  0.95227  1.0000 2.0863087941
Nd  Nd3       1.0  0.43633  0.11697  0.95227  1.0000 2.0847123433
Nd  Nd4       1.0  0.06367  0.61697  0.04773  1.0000 2.0863087941
H   H1        1.0  0.08810  0.82220  0.27410  1.0000 0.1379769344
H   H2        1.0  0.41190  0.32220  0.72590  1.0000 0.1379769344
H   H3        1.0  0.91190  0.17780  0.72590  1.0000 0.1306929002
H   H4        1.0  0.58810  0.67780  0.27410  1.0000 0.1379769344
H   H5        1.0  0.16990  0.83350  0.17990  1.0000 0.1379769344
H   H6        1.0  0.33010  0.33350  0.82010  1.0000 0.1379769344
H   H7        1.0  0.83010  0.16650  0.82010  1.0000 0.1379769344
H   H8        1.0  0.66990  0.66650  0.17990  1.0000 0.1379769344
H   H9        1.0  0.40480  0.80500  0.34560  1.0000 0.1379769344
H   H10       1.0  0.09520  0.30500  0.65440  1.0000 0.1379769344
H   H11       1.0  0.59520  0.19500  0.65440  1.0000 0.1379769344
H   H12       1.0  0.90480  0.69500  0.34560  1.0000 0.1379769344
H   H13       1.0  0.59670  0.77290  0.52480  1.0000 0.1306929002
H   H14       1.0  0.90330  0.27290  0.47520  1.0000 0.1306929002
H   H15       1.0  0.40330  0.22710  0.47520  1.0000 0.1306929002
H   H16       1.0  0.09670  0.72710  0.52480  1.0000 0.1306929002
H   H17       1.0  0.36640  0.56800  0.53100  1.0000 0.1074603219
H   H18       1.0  0.13360  0.06800  0.46900  1.0000 0.1074603219
H   H19       1.0  0.63360  0.43200  0.46900  1.0000 0.1074603219
H   H20       1.0  0.86640  0.93200  0.53100  1.0000 0.1074603219
H   H21       1.0  0.17410  0.60310  0.35700  1.0000 0.1379769344
H   H22       1.0  0.32590  0.10310  0.64300  1.0000 0.1379769344
H   H23       1.0  0.82590  0.39690  0.64300  1.0000 0.1379769344
H   H24       1.0  0.67410  0.89690  0.35700  1.0000 0.1379769344
H   H25       1.0  0.52620  0.56540  0.70970  1.0000 0.1306929002
H   H26       1.0  0.97380  0.06540  0.29030  1.0000 0.1306929002
H   H27       1.0  0.47380  0.43460  0.29030  1.0000 0.1306929002
H   H28       1.0  0.02620  0.93460  0.70970  1.0000 0.1306929002
H   H29       1.0  0.62180  0.53290  0.63290  1.0000 0.1208930296
H   H30       1.0  0.87820  0.03290  0.36710  1.0000 0.1208930296
H   H31       1.0  0.37820  0.46710  0.36710  1.0000 0.1208930296
H   H32       1.0  0.12180  0.96710  0.63290  1.0000 0.1208930296
H   H33       1.0  0.87200  0.98340  0.86280  1.0000 0.1469529663
H   H34       1.0  0.62800  0.48340  0.13720  1.0000 0.1469529663
H   H35       1.0  0.12800  0.01660  0.13720  1.0000 0.1469529663
H   H36       1.0  0.37200  0.51660  0.86280  1.0000 0.1469529663
H   H37       1.0  0.73270  0.92630  0.79440  1.0000 0.1306929002
H   H38       1.0  0.76730  0.42630  0.20560  1.0000 0.1306929002
H   H39       1.0  0.26730  0.07370  0.20560  1.0000 0.1306929002
H   H40       1.0  0.23270  0.57370  0.79440  1.0000 0.1306929002
H   H41       1.0  0.50470  0.92600  0.66080  1.0000 0.1208930296
H   H42       1.0  0.99530  0.42600  0.33920  1.0000 0.1208930296
H   H43       1.0  0.49530  0.07400  0.33920  1.0000 0.1208930296
H   H44       1.0  0.00470  0.57400  0.66080  1.0000 0.1208930296
H   H45       1.0  0.70850  0.08310  0.51020  1.0000 0.1306929002
H   H46       1.0  0.79150  0.58310  0.48980  1.0000 0.1306929002
H   H47       1.0  0.29150  0.91690  0.48980  1.0000 0.1306929002
H   H48       1.0  0.20850  0.41690  0.51020  1.0000 0.1306929002
C   C1        1.0  0.93810  0.79750  0.10900  1.0000 0.6607353259
C   C2        1.0  0.56190  0.29750  0.89100  1.0000 0.6607353259
C   C3        1.0  0.06190  0.20250  0.89100  1.0000 0.6607353259
C   C4        1.0  0.43810  0.70250  0.10900  1.0000 0.6607353259
C   C5        1.0  0.09790  0.80000  0.20360  1.0000 -0.1825316231
C   C6        1.0  0.40210  0.30000  0.79640  1.0000 -0.1825316231
C   C7        1.0  0.90210  0.20000  0.79640  1.0000 -0.1825316231
C   C8        1.0  0.59790  0.70000  0.20360  1.0000 -0.1825316231
C   C9        1.0  0.27540  0.70550  0.33520  1.0000 0.2090814431
C   C10       1.0  0.22460  0.20550  0.66480  1.0000 0.2090814431
C   C11       1.0  0.72460  0.29450  0.66480  1.0000 0.2090814431
C   C12       1.0  0.77540  0.79450  0.33520  1.0000 0.2090814431
C   C13       1.0  0.39810  0.75750  0.38320  1.0000 -0.1966454218
C   C14       1.0  0.10190  0.25750  0.61680  1.0000 -0.1966454218
C   C15       1.0  0.60190  0.24250  0.61680  1.0000 -0.1966454218
C   C16       1.0  0.89810  0.74250  0.38320  1.0000 -0.1966454218
C   C17       1.0  0.51350  0.73780  0.49000  1.0000 -0.1906563211
C   C18       1.0  0.98650  0.23780  0.51000  1.0000 -0.1906563211
C   C19       1.0  0.48650  0.26220  0.51000  1.0000 -0.1906563211
C   C20       1.0  0.01350  0.76220  0.49000  1.0000 -0.1906563211
C   C21       1.0  0.50460  0.66667  0.54410  1.0000 0.2264835407
C   C22       1.0  0.99540  0.16660  0.45590  1.0000 0.2264835407
C   C23       1.0  0.49540  0.33340  0.45590  1.0000 0.2264835407
C   C24       1.0  0.00460  0.83340  0.54410  1.0000 0.2264835407
C   C25       1.0  0.37520  0.61550  0.49420  1.0000 -0.2213259543
C   C26       1.0  0.12480  0.11550  0.50580  1.0000 -0.2213259543
C   C27       1.0  0.62480  0.38450  0.50580  1.0000 -0.2213259543
C   C28       1.0  0.87520  0.88450  0.49420  1.0000 -0.2213259543
C   C29       1.0  0.26120  0.63630  0.39020  1.0000 -0.1906563211
C   C30       1.0  0.23880  0.13630  0.60980  1.0000 -0.1906563211
C   C31       1.0  0.73880  0.36370  0.60980  1.0000 -0.1906563211
C   C32       1.0  0.76120  0.86370  0.39020  1.0000 -0.1906563211
C   C33       1.0  0.62310  0.57190  0.69190  1.0000 -0.168367369
C   C34       1.0  0.87690  0.07190  0.30810  1.0000 -0.168367369
C   C35       1.0  0.37690  0.42810  0.30810  1.0000 -0.168367369
C   C36       1.0  0.12310  0.92810  0.69190  1.0000 -0.168367369
C   C37       1.0  0.76640  0.55590  0.80190  1.0000 0.6657437701
C   C38       1.0  0.73360  0.05590  0.19810  1.0000 0.6657437701
C   C39       1.0  0.23360  0.44410  0.19810  1.0000 0.6657437701
C   C40       1.0  0.26640  0.94410  0.80190  1.0000 0.6657437701
C   C41       1.0  0.65550  0.02450  0.85870  1.0000 0.6250463296
C   C42       1.0  0.84450  0.52450  0.14130  1.0000 0.624607103
C   C43       1.0  0.34450  0.97550  0.14130  1.0000 0.624607103
C   C44       1.0  0.15550  0.47550  0.85870  1.0000 0.624607103
C   C45       1.0  0.76460  0.98190  0.80700  1.0000 -0.1610554177
C   C46       1.0  0.73540  0.48190  0.19300  1.0000 -0.1610554177
C   C47       1.0  0.23540  0.01810  0.19300  1.0000 -0.1610554177
C   C48       1.0  0.26460  0.51810  0.80700  1.0000 -0.1610554177
C   C49       1.0  0.62960  0.00620  0.60220  1.0000 0.2090814431
C   C50       1.0  0.87040  0.50620  0.39780  1.0000 0.2090814431
C   C51       1.0  0.37040  0.99380  0.39780  1.0000 0.2090814431
C   C52       1.0  0.12960  0.49380  0.60220  1.0000 0.2090814431
C   C53       1.0  0.50320  0.95580  0.59620  1.0000 -0.2071858662
C   C54       1.0  0.99680  0.45580  0.40380  1.0000 -0.2071858662
C   C55       1.0  0.49680  0.04420  0.40380  1.0000 -0.2071858662
C   C56       1.0  0.00320  0.54420  0.59620  1.0000 -0.2071858662
C   C57       1.0  0.62430  0.04940  0.50640  1.0000 -0.1906563211
C   C58       1.0  0.87570  0.54940  0.49360  1.0000 -0.1906563211
C   C59       1.0  0.37570  0.95060  0.49360  1.0000 -0.1906563211
C   C60       1.0  0.12430  0.45060  0.50640  1.0000 -0.1906563211
O   O1        1.0  0.84940  0.85700  0.09820  1.0000 -0.6501308313
O   O2        1.0  0.65060  0.35700  0.90180  1.0000 -0.6501308313
O   O3        1.0  0.15060  0.14300  0.90180  1.0000 -0.6501308313
O   O4        1.0  0.34940  0.64300  0.09820  1.0000 -0.6501308313
O   O5        1.0  0.90270  0.73640  0.04520  1.0000 -0.6501308313
O   O6        1.0  0.59730  0.23640  0.95480  1.0000 -0.6501308313
O   O7        1.0  0.09730  0.26360  0.95480  1.0000 -0.6501308313
O   O8        1.0  0.40270  0.76360  0.04520  1.0000 -0.6501308313
O   O9        1.0  0.15920  0.71990  0.22490  1.0000 -0.2893204297
O   O10       1.0  0.34080  0.21990  0.77510  1.0000 -0.2893204297
O   O11       1.0  0.84080  0.28010  0.77510  1.0000 -0.2893204297
O   O12       1.0  0.65920  0.78010  0.22490  1.0000 -0.2893204297
O   O13       1.0  0.62630  0.64940  0.64730  1.0000 -0.1610554177
O   O14       1.0  0.87370  0.14940  0.35270  1.0000 -0.1610554177
O   O15       1.0  0.37370  0.35060  0.35270  1.0000 -0.1610554177
O   O16       1.0  0.12630  0.85060  0.64730  1.0000 -0.1610554177
O   O17       1.0  0.83420  0.61330  0.86590  1.0000 -0.6431938688
O   O18       1.0  0.66580  0.11330  0.13410  1.0000 -0.6431938688
O   O19       1.0  0.16580  0.38670  0.13410  1.0000 -0.6431938688
O   O20       1.0  0.33420  0.88670  0.86590  1.0000 -0.6431938688
O   O21       1.0  0.79890  0.48380  0.81600  1.0000 -0.6501308313
O   O22       1.0  0.70110  0.98380  0.18400  1.0000 -0.6501308313
O   O23       1.0  0.20110  0.51620  0.18400  1.0000 -0.6501308313
O   O24       1.0  0.29890  0.01620  0.81600  1.0000 -0.6501308313
O   O25       1.0  0.62790  0.99120  0.94190  1.0000 -0.7238212209
O   O26       1.0  0.87210  0.49120  0.05810  1.0000 -0.7238212209
O   O27       1.0  0.37210  0.00880  0.05810  1.0000 -0.7238212209
O   O28       1.0  0.12790  0.50880  0.94190  1.0000 -0.7238212209
O   O29       1.0  0.60000  0.09150  0.82250  1.0000 -0.5769012104
O   O30       1.0  0.90000  0.59150  0.17750  1.0000 -0.5769012104
O   O31       1.0  0.40000  0.90850  0.17750  1.0000 -0.5769012104
O   O32       1.0  0.10000  0.40850  0.82250  1.0000 -0.5769012104
O   O33       1.0  0.76510  0.01450  0.70180  1.0000 -0.1966454218
O   O34       1.0  0.73490  0.51450  0.29820  1.0000 -0.1966454218
O   O35       1.0  0.23490  0.98550  0.29820  1.0000 -0.1966454218
O   O36       1.0  0.26510  0.48550  0.70180  1.0000 -0.1966454218
