# DDEC6 charges by PACMAN v1.1 (https://github.com/mtap-research/PACMAN-charge/)
data_2007[PrRu][tfi]3[ASR]1
_chemical_formula_sum              "Pr2 P8 H24 Ru4 C8 O32"
_cell_length_a       9.9402
_cell_length_b       9.9402
_cell_length_c       15.69
_cell_angle_alpha    87.5338
_cell_angle_beta     92.4662
_cell_angle_gamma    82.8219

_symmetry_space_group_name_H-M    "P 1"
_symmetry_Int_Tables_number       1

loop_
  _symmetry_equiv_pos_as_xyz
  'x, y, z'

loop_
  _atom_site_type_symbol
  _atom_site_label
  _atom_site_symmetry_multiplicity
  _atom_site_fract_x
  _atom_site_fract_y
  _atom_site_fract_z
  _atom_site_occupancy
  _atom_site_charge
Pr  Pr1       1.0  0.98942  0.98942  0.75000  1.0000 2.1939543376
Pr  Pr2       1.0  0.01058  0.01058  0.25000  1.0000 2.1977544913
P   P1        1.0  0.04635  0.64317  0.64161  1.0000 1.1655510554
P   P2        1.0  0.64317  0.04635  0.85839  1.0000 1.1655510554
P   P3        1.0  0.95365  0.35683  0.35839  1.0000 1.1655510554
P   P4        1.0  0.35683  0.95365  0.14161  1.0000 1.1655510554
P   P5        1.0  0.97740  0.35026  0.65167  1.0000 1.1073741009
P   P6        1.0  0.35026  0.97740  0.84833  1.0000 1.1049883256
P   P7        1.0  0.02260  0.64974  0.34833  1.0000 1.1073741009
P   P8        1.0  0.64974  0.02260  0.15167  1.0000 1.1073741009
H   H1        1.0  0.84750  0.56990  0.72070  1.0000 0.3479110265
H   H2        1.0  0.56990  0.84750  0.77930  1.0000 0.3479110265
H   H3        1.0  0.15250  0.43010  0.27930  1.0000 0.3479110265
H   H4        1.0  0.43010  0.15250  0.22070  1.0000 0.3479110265
H   H5        1.0  0.11900  0.06980  0.88730  1.0000 0.4009305427
H   H6        1.0  0.06980  0.11900  0.61270  1.0000 0.4009305427
H   H7        1.0  0.88100  0.93020  0.11270  1.0000 0.4009305427
H   H8        1.0  0.93020  0.88100  0.38730  1.0000 0.4009305427
H   H9        1.0  0.98550  0.15070  0.87870  1.0000 0.4198407123
H   H10       1.0  0.15070  0.98550  0.62130  1.0000 0.4198407123
H   H11       1.0  0.01450  0.84930  0.12130  1.0000 0.4198407123
H   H12       1.0  0.84930  0.01450  0.37870  1.0000 0.4198407123
H   H13       1.0  0.12860  0.45040  0.83060  1.0000 0.1396685952
H   H14       1.0  0.45040  0.12860  0.66940  1.0000 0.1396685952
H   H15       1.0  0.87140  0.54960  0.16940  1.0000 0.1396685952
H   H16       1.0  0.54960  0.87140  0.33060  1.0000 0.1396685952
H   H17       1.0  0.17660  0.35280  0.75620  1.0000 0.1333264002
H   H18       1.0  0.35280  0.17660  0.74380  1.0000 0.1333264002
H   H19       1.0  0.82340  0.64720  0.24380  1.0000 0.1333264002
H   H20       1.0  0.64720  0.82340  0.25620  1.0000 0.1333264002
H   H21       1.0  0.21760  0.50340  0.75660  1.0000 0.153209191
H   H22       1.0  0.50340  0.21760  0.74340  1.0000 0.153209191
H   H23       1.0  0.78240  0.49660  0.24340  1.0000 0.153209191
H   H24       1.0  0.49660  0.78240  0.25660  1.0000 0.153209191
Ru  Ru1       1.0  0.11899  0.45531  0.50338  1.0000 0.8852469215
Ru  Ru2       1.0  0.45531  0.11899  0.99662  1.0000 0.8823721299
Ru  Ru3       1.0  0.88101  0.54469  0.49662  1.0000 0.8823721299
Ru  Ru4       1.0  0.54469  0.88101  0.00338  1.0000 0.8823721299
C   C1        1.0  0.01870  0.49870  0.71730  1.0000 0.0036399832
C   C2        1.0  0.49870  0.01870  0.78270  1.0000 0.0036399832
C   C3        1.0  0.98130  0.50130  0.28270  1.0000 0.0036399832
C   C4        1.0  0.50130  0.98130  0.21730  1.0000 0.0036399832
C   C5        1.0  0.14650  0.44670  0.76980  1.0000 -0.4585926792
C   C6        1.0  0.44670  0.14650  0.73020  1.0000 -0.4585926792
C   C7        1.0  0.85350  0.55330  0.23020  1.0000 -0.4585926792
C   C8        1.0  0.55330  0.85350  0.26980  1.0000 -0.4585926792
O   O1        1.0  0.16880  0.59280  0.59120  1.0000 -0.6170095762
O   O2        1.0  0.59280  0.16880  0.90880  1.0000 -0.6170095762
O   O3        1.0  0.83120  0.40720  0.40880  1.0000 -0.6170095762
O   O4        1.0  0.40720  0.83120  0.09120  1.0000 -0.6170095762
O   O5        1.0  0.90510  0.69430  0.58040  1.0000 -0.7012773713
O   O6        1.0  0.69430  0.90510  0.91960  1.0000 -0.7012773713
O   O7        1.0  0.09490  0.30570  0.41960  1.0000 -0.7012773713
O   O8        1.0  0.30570  0.09490  0.08040  1.0000 -0.7012773713
O   O9        1.0  0.07680  0.76300  0.69870  1.0000 -0.8344019464
O   O10       1.0  0.76300  0.07680  0.80130  1.0000 -0.8344019464
O   O11       1.0  0.92320  0.23700  0.30130  1.0000 -0.8344019464
O   O12       1.0  0.23700  0.92320  0.19870  1.0000 -0.8344019464
O   O13       1.0  0.10160  0.31180  0.59590  1.0000 -0.6482118393
O   O14       1.0  0.31180  0.10160  0.90410  1.0000 -0.6482118393
O   O15       1.0  0.89840  0.68820  0.40410  1.0000 -0.6445009818
O   O16       1.0  0.68820  0.89840  0.09590  1.0000 -0.6482118393
O   O17       1.0  0.84330  0.41530  0.59710  1.0000 -0.6482118393
O   O18       1.0  0.41530  0.84330  0.90290  1.0000 -0.6482118393
O   O19       1.0  0.15670  0.58470  0.40290  1.0000 -0.6482118393
O   O20       1.0  0.58470  0.15670  0.09710  1.0000 -0.6482118393
O   O21       1.0  0.93740  0.24380  0.72220  1.0000 -0.8186822346
O   O22       1.0  0.24380  0.93740  0.77780  1.0000 -0.8186822346
O   O23       1.0  0.06260  0.75620  0.27780  1.0000 -0.8186822346
O   O24       1.0  0.75620  0.06260  0.22220  1.0000 -0.8186822346
O   O25       1.0  0.91810  0.53970  0.75560  1.0000 -0.2857974877
O   O26       1.0  0.53970  0.91810  0.74440  1.0000 -0.2857974877
O   O27       1.0  0.08190  0.46030  0.24440  1.0000 -0.2857974877
O   O28       1.0  0.46030  0.08190  0.25560  1.0000 -0.2857974877
O   O29       1.0  0.03170  0.06810  0.87660  1.0000 -0.8406159392
O   O30       1.0  0.06810  0.03170  0.62340  1.0000 -0.8406159392
O   O31       1.0  0.96830  0.93190  0.12340  1.0000 -0.8406159392
O   O32       1.0  0.93190  0.96830  0.37660  1.0000 -0.8406159392
