# DDEC6 charges by PACMAN v1.1 (https://github.com/mtap-research/PACMAN-charge/)
data_2007[CuNd][nan]3[ASR]1
_chemical_formula_sum              "Nd4 Cu4 H32 C56 N8 O32"
_cell_length_a       11.5506
_cell_length_b       11.5506
_cell_length_c       17.2671
_cell_angle_alpha    75.1734
_cell_angle_beta     104.827
_cell_angle_gamma    132.651

_symmetry_space_group_name_H-M    "P 1"
_symmetry_Int_Tables_number       1

loop_
  _symmetry_equiv_pos_as_xyz
  'x, y, z'

loop_
  _atom_site_type_symbol
  _atom_site_label
  _atom_site_symmetry_multiplicity
  _atom_site_fract_x
  _atom_site_fract_y
  _atom_site_fract_z
  _atom_site_occupancy
  _atom_site_charge
Nd  Nd1       1.0  0.30240  0.32946  0.92694  1.0000 2.0551548457
Nd  Nd2       1.0  0.32946  0.30240  0.57306  1.0000 2.0551548457
Nd  Nd3       1.0  0.69760  0.67054  0.07306  1.0000 2.0551548457
Nd  Nd4       1.0  0.67054  0.69760  0.42694  1.0000 2.0551548457
Cu  Cu1       1.0  0.23433  0.90589  0.13452  1.0000 0.3211940085
Cu  Cu2       1.0  0.90589  0.23433  0.36548  1.0000 0.3211940085
Cu  Cu3       1.0  0.76567  0.09411  0.86548  1.0000 0.3211940085
Cu  Cu4       1.0  0.09411  0.76567  0.63452  1.0000 0.3211940085
H   H1        1.0  0.63470  0.43790  0.77930  1.0000 0.1477471695
H   H2        1.0  0.43790  0.63470  0.72070  1.0000 0.1477471695
H   H3        1.0  0.36530  0.56210  0.22070  1.0000 0.1477471695
H   H4        1.0  0.56210  0.36530  0.27930  1.0000 0.1477471695
H   H5        1.0  0.79420  0.49680  0.69260  1.0000 0.1125063455
H   H6        1.0  0.49680  0.79420  0.80740  1.0000 0.1125063455
H   H7        1.0  0.20580  0.50320  0.30740  1.0000 0.1125063455
H   H8        1.0  0.50320  0.20580  0.19260  1.0000 0.1125063455
H   H9        1.0  0.13830  0.91110  0.76560  1.0000 0.1177983141
H   H10       1.0  0.91110  0.13830  0.73440  1.0000 0.1177983141
H   H11       1.0  0.86170  0.08890  0.23440  1.0000 0.1177983141
H   H12       1.0  0.08890  0.86170  0.26560  1.0000 0.1177983141
H   H13       1.0  0.99250  0.86090  0.85740  1.0000 0.1477471695
H   H14       1.0  0.86090  0.99250  0.64260  1.0000 0.1477471695
H   H15       1.0  0.00750  0.13910  0.14260  1.0000 0.1477471695
H   H16       1.0  0.13910  0.00750  0.35740  1.0000 0.1477471695
H   H17       1.0  0.53610  0.81750  0.05460  1.0000 0.1477471695
H   H18       1.0  0.81750  0.53610  0.44540  1.0000 0.1477471695
H   H19       1.0  0.46390  0.18250  0.94540  1.0000 0.1477471695
H   H20       1.0  0.18250  0.46390  0.55460  1.0000 0.1477471695
H   H21       1.0  0.48160  0.91860  0.12310  1.0000 0.1125063455
H   H22       1.0  0.91860  0.48160  0.37690  1.0000 0.1125063455
H   H23       1.0  0.51840  0.08140  0.87690  1.0000 0.1125063455
H   H24       1.0  0.08140  0.51840  0.62310  1.0000 0.1125063455
H   H25       1.0  0.07270  0.72050  0.99630  1.0000 0.1177983141
H   H26       1.0  0.72050  0.07270  0.50370  1.0000 0.1177983141
H   H27       1.0  0.92730  0.27950  0.00370  1.0000 0.1177983141
H   H28       1.0  0.27950  0.92730  0.49630  1.0000 0.1177983141
H   H29       1.0  0.11470  0.61010  0.92560  1.0000 0.1367410576
H   H30       1.0  0.61010  0.11470  0.57440  1.0000 0.1367410576
H   H31       1.0  0.88530  0.38990  0.07440  1.0000 0.1367410576
H   H32       1.0  0.38990  0.88530  0.42560  1.0000 0.1367410576
C   C1        1.0  0.69124  0.61056  0.88290  1.0000 0.6214138424
C   C2        1.0  0.61056  0.69124  0.61710  1.0000 0.6214138424
C   C3        1.0  0.30876  0.38944  0.11710  1.0000 0.6214138424
C   C4        1.0  0.38944  0.30876  0.38290  1.0000 0.6214138424
C   C5        1.0  0.79524  0.64536  0.82688  1.0000 0.0146138213
C   C6        1.0  0.64536  0.79524  0.67312  1.0000 0.0146138213
C   C7        1.0  0.20476  0.35464  0.17312  1.0000 0.0146138213
C   C8        1.0  0.35464  0.20476  0.32688  1.0000 0.0146138213
C   C9        1.0  0.73710  0.53550  0.77740  1.0000 -0.1344728614
C   C10       1.0  0.53550  0.73710  0.72260  1.0000 -0.1344728614
C   C11       1.0  0.26290  0.46450  0.22260  1.0000 -0.1344728614
C   C12       1.0  0.46450  0.26290  0.27740  1.0000 -0.1344728614
C   C13       1.0  0.83320  0.57240  0.72500  1.0000 0.0721672099
C   C14       1.0  0.57240  0.83320  0.77500  1.0000 0.0721672099
C   C15       1.0  0.16680  0.42760  0.27500  1.0000 0.0721672099
C   C16       1.0  0.42760  0.16680  0.22500  1.0000 0.0721672099
C   C17       1.0  0.03530  0.81470  0.76820  1.0000 0.0721672099
C   C18       1.0  0.81470  0.03530  0.73180  1.0000 0.0721672099
C   C19       1.0  0.96470  0.18530  0.23180  1.0000 0.0721672099
C   C20       1.0  0.18530  0.96470  0.26820  1.0000 0.0721672099
C   C21       1.0  0.94820  0.78600  0.82320  1.0000 -0.1560115958
C   C22       1.0  0.78600  0.94820  0.67680  1.0000 -0.1560115958
C   C23       1.0  0.05180  0.21400  0.17680  1.0000 -0.1560115958
C   C24       1.0  0.21400  0.05180  0.32320  1.0000 -0.1560115958
C   C25       1.0  0.35049  0.60611  0.94961  1.0000 0.5787367081
C   C26       1.0  0.60611  0.35049  0.55039  1.0000 0.5787367081
C   C27       1.0  0.64951  0.39389  0.05039  1.0000 0.5787367081
C   C28       1.0  0.39389  0.64951  0.44961  1.0000 0.5787367081
C   C29       1.0  0.32758  0.69422  0.98580  1.0000 0.0309146946
C   C30       1.0  0.69422  0.32758  0.51420  1.0000 0.0309146946
C   C31       1.0  0.67242  0.30578  0.01420  1.0000 0.0309146946
C   C32       1.0  0.30578  0.67242  0.48580  1.0000 0.0309146946
C   C33       1.0  0.43840  0.79220  0.04300  1.0000 -0.1440965975
C   C34       1.0  0.79220  0.43840  0.45700  1.0000 -0.1440965975
C   C35       1.0  0.56160  0.20780  0.95700  1.0000 -0.1440965975
C   C36       1.0  0.20780  0.56160  0.54300  1.0000 -0.1440965975
C   C37       1.0  0.40520  0.85340  0.08360  1.0000 0.0527899122
C   C38       1.0  0.85340  0.40520  0.41640  1.0000 0.0527899122
C   C39       1.0  0.59480  0.14660  0.91640  1.0000 0.0527899122
C   C40       1.0  0.14660  0.59480  0.58360  1.0000 0.0527899122
C   C41       1.0  0.16600  0.73720  0.00970  1.0000 0.0784711247
C   C42       1.0  0.73720  0.16600  0.49030  1.0000 0.0784711247
C   C43       1.0  0.83400  0.26280  0.99030  1.0000 0.0784711247
C   C44       1.0  0.26280  0.83400  0.50970  1.0000 0.0784711247
C   C45       1.0  0.19040  0.67040  0.96680  1.0000 -0.1678439671
C   C46       1.0  0.67040  0.19040  0.53320  1.0000 -0.1678439671
C   C47       1.0  0.80960  0.32960  0.03320  1.0000 -0.1678439671
C   C48       1.0  0.32960  0.80960  0.46680  1.0000 -0.1678439671
C   C49       1.0  0.94771  0.01969  0.97648  1.0000 0.4870694732
C   C50       1.0  0.01969  0.94771  0.52352  1.0000 0.4870694732
C   C51       1.0  0.05229  0.98031  0.02352  1.0000 0.4870694732
C   C52       1.0  0.98031  0.05229  0.47648  1.0000 0.4870694732
C   C53       1.0  0.21860  0.29340  0.73212  1.0000 0.4726571893
C   C54       1.0  0.29340  0.21860  0.76788  1.0000 0.4726571893
C   C55       1.0  0.78140  0.70660  0.26788  1.0000 0.4726571893
C   C56       1.0  0.70660  0.78140  0.23212  1.0000 0.4726571893
N   N1        1.0  0.97928  0.71152  0.71880  1.0000 -0.1856492752
N   N2        1.0  0.71152  0.97928  0.78120  1.0000 -0.1856492752
N   N3        1.0  0.02072  0.28848  0.28120  1.0000 -0.1856492752
N   N4        1.0  0.28848  0.02072  0.21880  1.0000 -0.1856492752
N   N5        1.0  0.26870  0.82350  0.06880  1.0000 -0.177274778
N   N6        1.0  0.82350  0.26870  0.43120  1.0000 -0.177274778
N   N7        1.0  0.73130  0.17650  0.93120  1.0000 -0.177274778
N   N8        1.0  0.17650  0.73130  0.56880  1.0000 -0.177274778
O   O1        1.0  0.54491  0.50949  0.86444  1.0000 -0.6473166639
O   O2        1.0  0.50949  0.54491  0.63556  1.0000 -0.6473166639
O   O3        1.0  0.45509  0.49051  0.13556  1.0000 -0.6473166639
O   O4        1.0  0.49051  0.45509  0.36444  1.0000 -0.6473166639
O   O5        1.0  0.76133  0.68407  0.94360  1.0000 -0.6473166639
O   O6        1.0  0.68407  0.76133  0.55640  1.0000 -0.6473166639
O   O7        1.0  0.23867  0.31593  0.05640  1.0000 -0.6473166639
O   O8        1.0  0.31593  0.23867  0.44360  1.0000 -0.6473166639
O   O9        1.0  0.24222  0.51018  0.90114  1.0000 -0.5907710487
O   O10       1.0  0.51018  0.24222  0.59886  1.0000 -0.5907710487
O   O11       1.0  0.75778  0.48982  0.09886  1.0000 -0.5907710487
O   O12       1.0  0.48982  0.75778  0.40114  1.0000 -0.5907710487
O   O13       1.0  0.47465  0.62455  0.97312  1.0000 -0.7013774658
O   O14       1.0  0.62455  0.47465  0.52688  1.0000 -0.7013774658
O   O15       1.0  0.52535  0.37545  0.02688  1.0000 -0.7013774658
O   O16       1.0  0.37545  0.52535  0.47312  1.0000 -0.7013774658
O   O17       1.0  0.00755  0.13665  0.92316  1.0000 -0.5789851317
O   O18       1.0  0.13665  0.00755  0.57684  1.0000 -0.5789851317
O   O19       1.0  0.99245  0.86335  0.07684  1.0000 -0.5789851317
O   O20       1.0  0.86335  0.99245  0.42316  1.0000 -0.5789851317
O   O21       1.0  0.81108  0.93372  0.99582  1.0000 -0.5789851317
O   O22       1.0  0.93372  0.81108  0.50418  1.0000 -0.5789851317
O   O23       1.0  0.18892  0.06628  0.00418  1.0000 -0.5789851317
O   O24       1.0  0.06628  0.18892  0.49582  1.0000 -0.5789851317
O   O25       1.0  0.20242  0.34498  0.78060  1.0000 -0.5907710487
O   O26       1.0  0.34498  0.20242  0.71940  1.0000 -0.5907710487
O   O27       1.0  0.79758  0.65502  0.21940  1.0000 -0.5907710487
O   O28       1.0  0.65502  0.79758  0.28060  1.0000 -0.5907710487
O   O29       1.0  0.17662  0.29338  0.65770  1.0000 -0.5970696951
O   O30       1.0  0.29338  0.17662  0.84230  1.0000 -0.5970696951
O   O31       1.0  0.82338  0.70662  0.34230  1.0000 -0.5970696951
O   O32       1.0  0.70662  0.82338  0.15770  1.0000 -0.5970696951
