# DDEC6 charges by PACMAN v1.1 (https://github.com/mtap-research/PACMAN-charge/)
data_2007[LaRu][tfi]3[ASR]1
_chemical_formula_sum              "La2 P8 H16 Ru4 C8 O28"
_cell_length_a       9.72002
_cell_length_b       9.72002
_cell_length_c       15.7262
_cell_angle_alpha    87.2586
_cell_angle_beta     92.7414
_cell_angle_gamma    80.914

_symmetry_space_group_name_H-M    "P 1"
_symmetry_Int_Tables_number       1

loop_
  _symmetry_equiv_pos_as_xyz
  'x, y, z'

loop_
  _atom_site_type_symbol
  _atom_site_label
  _atom_site_symmetry_multiplicity
  _atom_site_fract_x
  _atom_site_fract_y
  _atom_site_fract_z
  _atom_site_occupancy
  _atom_site_charge
La  La1       1.0  0.98829  0.98829  0.75000  1.0000 2.0309664856
La  La2       1.0  0.01171  0.01171  0.25000  1.0000 2.0309664856
P   P1        1.0  0.04578  0.64286  0.64359  1.0000 1.1999272655
P   P2        1.0  0.64286  0.04578  0.85641  1.0000 1.1999272655
P   P3        1.0  0.95422  0.35714  0.35641  1.0000 1.1999272655
P   P4        1.0  0.35714  0.95422  0.14359  1.0000 1.1999272655
P   P5        1.0  0.97366  0.35190  0.65131  1.0000 1.160943235
P   P6        1.0  0.35190  0.97366  0.84869  1.0000 1.160943235
P   P7        1.0  0.02634  0.64810  0.34869  1.0000 1.160943235
P   P8        1.0  0.64810  0.02634  0.15131  1.0000 1.160943235
H   H1        1.0  0.15960  0.52120  0.81110  1.0000 0.1572240616
H   H2        1.0  0.52120  0.15960  0.68890  1.0000 0.1572240616
H   H3        1.0  0.84040  0.47880  0.18890  1.0000 0.1572240616
H   H4        1.0  0.47880  0.84040  0.31110  1.0000 0.1572240616
H   H5        1.0  0.12610  0.36530  0.81060  1.0000 0.1517882092
H   H6        1.0  0.36530  0.12610  0.68940  1.0000 0.1517882092
H   H7        1.0  0.87390  0.63470  0.18940  1.0000 0.1517882092
H   H8        1.0  0.63470  0.87390  0.31060  1.0000 0.1517882092
H   H9        1.0  0.22450  0.41850  0.74160  1.0000 0.1517882092
H   H10       1.0  0.41850  0.22450  0.75840  1.0000 0.1517882092
H   H11       1.0  0.77550  0.58150  0.25840  1.0000 0.1517882092
H   H12       1.0  0.58150  0.77550  0.24160  1.0000 0.1517882092
H   H13       1.0  0.82100  0.48900  0.76300  1.0000 0.3730784307
H   H14       1.0  0.48900  0.82100  0.73700  1.0000 0.3730784307
H   H15       1.0  0.17900  0.51100  0.23700  1.0000 0.3730784307
H   H16       1.0  0.51100  0.17900  0.26300  1.0000 0.3730784307
Ru  Ru1       1.0  0.11972  0.45354  0.50209  1.0000 0.919832925
Ru  Ru2       1.0  0.45354  0.11972  0.99791  1.0000 0.919832925
Ru  Ru3       1.0  0.88028  0.54646  0.49791  1.0000 0.919832925
Ru  Ru4       1.0  0.54646  0.88028  0.00209  1.0000 0.919832925
C   C1        1.0  0.01501  0.49581  0.71435  1.0000 -0.1872066309
C   C2        1.0  0.49581  0.01501  0.78565  1.0000 -0.1849754055
C   C3        1.0  0.98499  0.50419  0.28565  1.0000 -0.1872066309
C   C4        1.0  0.50419  0.98499  0.21435  1.0000 -0.1872066309
C   C5        1.0  0.14273  0.44573  0.77486  1.0000 -0.4285438558
C   C6        1.0  0.44573  0.14273  0.72514  1.0000 -0.4285438558
C   C7        1.0  0.85727  0.55427  0.22514  1.0000 -0.4285438558
C   C8        1.0  0.55427  0.85727  0.27486  1.0000 -0.4285438558
O   O1        1.0  0.16827  0.58813  0.58897  1.0000 -0.6113192191
O   O2        1.0  0.58813  0.16827  0.91103  1.0000 -0.6113192191
O   O3        1.0  0.83173  0.41187  0.41103  1.0000 -0.6113192191
O   O4        1.0  0.41187  0.83173  0.08897  1.0000 -0.6113192191
O   O5        1.0  0.91155  0.68839  0.58512  1.0000 -0.6508824428
O   O6        1.0  0.68839  0.91155  0.91488  1.0000 -0.6508824428
O   O7        1.0  0.08845  0.31161  0.41488  1.0000 -0.6508824428
O   O8        1.0  0.31161  0.08845  0.08512  1.0000 -0.6508824428
O   O9        1.0  0.07834  0.75852  0.69730  1.0000 -0.7763387312
O   O10       1.0  0.75852  0.07834  0.80270  1.0000 -0.7763387312
O   O11       1.0  0.92166  0.24148  0.30270  1.0000 -0.7763387312
O   O12       1.0  0.24148  0.92166  0.19730  1.0000 -0.7763387312
O   O13       1.0  0.10061  0.31015  0.59704  1.0000 -0.6420677414
O   O14       1.0  0.31015  0.10061  0.90296  1.0000 -0.6420677414
O   O15       1.0  0.89939  0.68985  0.40296  1.0000 -0.6420677414
O   O16       1.0  0.68985  0.89939  0.09704  1.0000 -0.6420677414
O   O17       1.0  0.84398  0.40836  0.59211  1.0000 -0.6335292806
O   O18       1.0  0.40836  0.84398  0.90789  1.0000 -0.6335292806
O   O19       1.0  0.15602  0.59164  0.40789  1.0000 -0.6420677414
O   O20       1.0  0.59164  0.15602  0.09211  1.0000 -0.6335292806
O   O21       1.0  0.94954  0.23372  0.71056  1.0000 -0.7895551225
O   O22       1.0  0.23372  0.94954  0.78944  1.0000 -0.7895551225
O   O23       1.0  0.05046  0.76628  0.28944  1.0000 -0.7895551225
O   O24       1.0  0.76628  0.05046  0.21056  1.0000 -0.7895551225
O   O25       1.0  0.89809  0.54991  0.76346  1.0000 -0.4090457459
O   O26       1.0  0.54991  0.89809  0.73654  1.0000 -0.4090457459
O   O27       1.0  0.10191  0.45009  0.23654  1.0000 -0.4090457459
O   O28       1.0  0.45009  0.10191  0.26346  1.0000 -0.4090457459
