# DDEC6 charges by PACMAN v1.1 (https://github.com/mtap-research/PACMAN-charge/)
data_2008[Cu][xft]3[ASR]1
_chemical_formula_sum              "Cu8 H32 C64 N32 O16 F16"
_cell_length_a       15.5508
_cell_length_b       15.5508
_cell_length_c       15.5508
_cell_angle_alpha    95.935
_cell_angle_beta     95.935
_cell_angle_gamma    142.485

_symmetry_space_group_name_H-M    "P 1"
_symmetry_Int_Tables_number       1

loop_
  _symmetry_equiv_pos_as_xyz
  'x, y, z'

loop_
  _atom_site_type_symbol
  _atom_site_label
  _atom_site_symmetry_multiplicity
  _atom_site_fract_x
  _atom_site_fract_y
  _atom_site_fract_z
  _atom_site_occupancy
  _atom_site_charge
Cu  Cu1       1.0  0.61013  0.61154  0.73887  1.0000 0.6938698335
Cu  Cu2       1.0  0.87267  0.61154  0.00141  1.0000 0.6938698335
Cu  Cu3       1.0  0.87267  0.87126  0.26113  1.0000 0.6938698335
Cu  Cu4       1.0  0.61013  0.87126  0.99859  1.0000 0.6938698335
Cu  Cu5       1.0  0.12126  0.62267  0.76113  1.0000 0.6938698335
Cu  Cu6       1.0  0.86154  0.62267  0.50141  1.0000 0.6938698335
Cu  Cu7       1.0  0.12126  0.36013  0.49859  1.0000 0.6938698335
Cu  Cu8       1.0  0.86154  0.36013  0.23887  1.0000 0.6938698335
H   H1        1.0  0.94440  0.92890  0.79450  1.0000 0.1407561797
H   H2        1.0  0.13440  0.92890  0.98450  1.0000 0.1407561797
H   H3        1.0  0.13440  0.14990  0.20550  1.0000 0.1407561797
H   H4        1.0  0.94440  0.14990  0.01550  1.0000 0.1407561797
H   H5        1.0  0.39990  0.88440  0.70550  1.0000 0.1407561797
H   H6        1.0  0.17890  0.88440  0.48450  1.0000 0.1407561797
H   H7        1.0  0.39990  0.69440  0.51550  1.0000 0.1407561797
H   H8        1.0  0.17890  0.69440  0.29450  1.0000 0.1407561797
H   H9        1.0  0.72160  0.86210  0.66870  1.0000 0.1529332089
H   H10       1.0  0.19340  0.86210  0.14050  1.0000 0.1529332089
H   H11       1.0  0.19340  0.05290  0.33130  1.0000 0.1529332089
H   H12       1.0  0.72160  0.05290  0.85950  1.0000 0.1529332089
H   H13       1.0  0.30290  0.94340  0.83130  1.0000 0.1529332089
H   H14       1.0  0.11210  0.94340  0.64050  1.0000 0.1529332089
H   H15       1.0  0.30290  0.47160  0.35950  1.0000 0.1529332089
H   H16       1.0  0.11210  0.47160  0.16870  1.0000 0.1529332089
H   H17       1.0  0.62060  0.31300  0.51840  1.0000 0.1558232922
H   H18       1.0  0.79460  0.31300  0.69240  1.0000 0.1558232922
H   H19       1.0  0.79460  0.10220  0.48160  1.0000 0.1558232922
H   H20       1.0  0.62060  0.10220  0.30760  1.0000 0.1558232922
H   H21       1.0  0.35220  0.54460  0.98160  1.0000 0.1558232922
H   H22       1.0  0.56300  0.54460  0.19240  1.0000 0.1558232922
H   H23       1.0  0.35220  0.37060  0.80760  1.0000 0.1558232922
H   H24       1.0  0.56300  0.37060  0.01840  1.0000 0.1558232922
H   H25       1.0  0.43800  0.29700  0.68660  1.0000 0.1407561797
H   H26       1.0  0.61040  0.29700  0.85900  1.0000 0.1407561797
H   H27       1.0  0.61040  0.75140  0.31340  1.0000 0.1407561797
H   H28       1.0  0.43800  0.75140  0.14100  1.0000 0.1407561797
H   H29       1.0  0.00140  0.36040  0.81340  1.0000 0.1407561797
H   H30       1.0  0.54700  0.36040  0.35900  1.0000 0.1407561797
H   H31       1.0  0.00140  0.18800  0.64100  1.0000 0.1407561797
H   H32       1.0  0.54700  0.18800  0.18660  1.0000 0.1407561797
C   C1        1.0  0.79260  0.66860  0.87600  1.0000 0.5894163915
C   C2        1.0  0.79260  0.91660  0.12400  1.0000 0.5894163915
C   C3        1.0  0.16660  0.54260  0.62400  1.0000 0.5894163915
C   C4        1.0  0.91860  0.54260  0.37600  1.0000 0.5894163915
C   C5        1.0  0.93675  0.88052  0.83107  1.0000 -0.0005282431
C   C6        1.0  0.04945  0.88052  0.94377  1.0000 -0.0005282431
C   C7        1.0  0.04945  0.10568  0.16893  1.0000 -0.0005282431
C   C8        1.0  0.93675  0.10568  0.05623  1.0000 0.0010548768
C   C9        1.0  0.35568  0.79945  0.66893  1.0000 -0.0005282431
C   C10       1.0  0.13052  0.79945  0.44377  1.0000 -0.0005282431
C   C11       1.0  0.35568  0.68675  0.55623  1.0000 -0.0005282431
C   C12       1.0  0.13052  0.68675  0.33107  1.0000 -0.0005282431
C   C13       1.0  0.06070  0.95500  0.89430  1.0000 0.1558232922
C   C14       1.0  0.06070  0.16640  0.10570  1.0000 0.1558232922
C   C15       1.0  0.41640  0.81070  0.60570  1.0000 0.1558232922
C   C16       1.0  0.20500  0.81070  0.39430  1.0000 0.1558232922
C   C17       1.0  0.63120  0.78350  0.84770  1.0000 0.5717939405
C   C18       1.0  0.93580  0.78350  0.15230  1.0000 0.5717939405
C   C19       1.0  0.03350  0.68580  0.65230  1.0000 0.5717939405
C   C20       1.0  0.03350  0.38120  0.34770  1.0000 0.5717939405
C   C21       1.0  0.70532  0.86864  0.72336  1.0000 0.0156286846
C   C22       1.0  0.14528  0.86864  0.16332  1.0000 0.0156286846
C   C23       1.0  0.14528  0.98196  0.27664  1.0000 0.0156286846
C   C24       1.0  0.70532  0.98196  0.83668  1.0000 0.0156286846
C   C25       1.0  0.23196  0.89528  0.77664  1.0000 0.0156286846
C   C26       1.0  0.11864  0.89528  0.66332  1.0000 0.0156286846
C   C27       1.0  0.23196  0.45532  0.33668  1.0000 0.0156286846
C   C28       1.0  0.11864  0.45532  0.22336  1.0000 0.0156286846
C   C29       1.0  0.73500  0.97750  0.75750  1.0000 0.1407561797
C   C30       1.0  0.22000  0.97750  0.24250  1.0000 0.1407561797
C   C31       1.0  0.22750  0.97000  0.74250  1.0000 0.1407561797
C   C32       1.0  0.22750  0.48500  0.25750  1.0000 0.1407561797
C   C33       1.0  0.69129  0.56309  0.61078  1.0000 0.5894163915
C   C34       1.0  0.95231  0.56309  0.87180  1.0000 0.5894163915
C   C35       1.0  0.95231  0.08051  0.38922  1.0000 0.5894163915
C   C36       1.0  0.69129  0.08051  0.12820  1.0000 0.5894163915
C   C37       1.0  0.33051  0.70231  0.88922  1.0000 0.5894163915
C   C38       1.0  0.81309  0.70231  0.37180  1.0000 0.5894163915
C   C39       1.0  0.33051  0.44129  0.62820  1.0000 0.5894163915
C   C40       1.0  0.81309  0.44129  0.11078  1.0000 0.5894163915
C   C41       1.0  0.61246  0.35746  0.55332  1.0000 -0.0144991627
C   C42       1.0  0.80414  0.35746  0.74500  1.0000 -0.0155641533
C   C43       1.0  0.80414  0.05914  0.44668  1.0000 -0.0155641533
C   C44       1.0  0.61246  0.05914  0.25500  1.0000 -0.0155641533
C   C45       1.0  0.30914  0.55414  0.94668  1.0000 -0.0155641533
C   C46       1.0  0.60746  0.55414  0.24500  1.0000 -0.0144991627
C   C47       1.0  0.30914  0.36246  0.75500  1.0000 -0.0155641533
C   C48       1.0  0.60746  0.36246  0.05332  1.0000 -0.0144991627
C   C49       1.0  0.51010  0.28130  0.59780  1.0000 0.1407561797
C   C50       1.0  0.68350  0.28130  0.77120  1.0000 0.1407561797
C   C51       1.0  0.68350  0.91230  0.40220  1.0000 0.1407561797
C   C52       1.0  0.51010  0.91230  0.22880  1.0000 0.1407561797
C   C53       1.0  0.16230  0.43350  0.90220  1.0000 0.1407561797
C   C54       1.0  0.53130  0.43350  0.27120  1.0000 0.1407561797
C   C55       1.0  0.16230  0.26010  0.72880  1.0000 0.1407561797
C   C56       1.0  0.53130  0.26010  0.09780  1.0000 0.1407561797
C   C57       1.0  0.50480  0.34850  0.65330  1.0000 0.0010548768
C   C58       1.0  0.69520  0.34850  0.84370  1.0000 0.0010548768
C   C59       1.0  0.69520  0.85150  0.34670  1.0000 0.0010548768
C   C60       1.0  0.50480  0.85150  0.15630  1.0000 0.0010548768
C   C61       1.0  0.10150  0.44520  0.84670  1.0000 0.0010548768
C   C62       1.0  0.59850  0.44520  0.34370  1.0000 0.0010548768
C   C63       1.0  0.10150  0.25480  0.65630  1.0000 0.0010548768
C   C64       1.0  0.59850  0.25480  0.15330  1.0000 0.0010548768
N   N1        1.0  0.80469  0.73926  0.82095  1.0000 -0.3343829693
N   N2        1.0  0.91831  0.73926  0.93457  1.0000 -0.3343829693
N   N3        1.0  0.91831  0.98374  0.17905  1.0000 -0.3343829693
N   N4        1.0  0.80469  0.98374  0.06543  1.0000 -0.3343829693
N   N5        1.0  0.23374  0.66831  0.67905  1.0000 -0.3343829693
N   N6        1.0  0.98926  0.66831  0.43457  1.0000 -0.3343829693
N   N7        1.0  0.23374  0.55469  0.56543  1.0000 -0.3343829693
N   N8        1.0  0.98926  0.55469  0.32095  1.0000 -0.3343829693
N   N9        1.0  0.65430  0.77353  0.76683  1.0000 -0.3411363257
N   N10       1.0  0.00670  0.77353  0.11923  1.0000 -0.3411363257
N   N11       1.0  0.00670  0.88747  0.23317  1.0000 -0.3411363257
N   N12       1.0  0.65430  0.88747  0.88077  1.0000 -0.3411363257
N   N13       1.0  0.13747  0.75670  0.73317  1.0000 -0.3411363257
N   N14       1.0  0.02353  0.75670  0.61923  1.0000 -0.3411363257
N   N15       1.0  0.13747  0.40430  0.38077  1.0000 -0.3411363257
N   N16       1.0  0.02353  0.40430  0.26683  1.0000 -0.3411363257
N   N17       1.0  0.59392  0.48778  0.66150  1.0000 -0.3454401226
N   N18       1.0  0.82628  0.48778  0.89386  1.0000 -0.3411363257
N   N19       1.0  0.82628  0.93242  0.33850  1.0000 -0.3411363257
N   N20       1.0  0.59392  0.93242  0.10614  1.0000 -0.3411363257
N   N21       1.0  0.18242  0.57628  0.83850  1.0000 -0.3454401226
N   N22       1.0  0.73778  0.57628  0.39386  1.0000 -0.3411363257
N   N23       1.0  0.18242  0.34392  0.60614  1.0000 -0.3411363257
N   N24       1.0  0.73778  0.34392  0.16150  1.0000 -0.3454401226
N   N25       1.0  0.70283  0.49793  0.55956  1.0000 -0.3612335132
N   N26       1.0  0.93837  0.49793  0.79510  1.0000 -0.3612335132
N   N27       1.0  0.93837  0.14327  0.44044  1.0000 -0.3612335132
N   N28       1.0  0.70283  0.14327  0.20490  1.0000 -0.3612335132
N   N29       1.0  0.39327  0.68837  0.94044  1.0000 -0.3612335132
N   N30       1.0  0.74793  0.68837  0.29510  1.0000 -0.3612335132
N   N31       1.0  0.39327  0.45283  0.70490  1.0000 -0.3612335132
N   N32       1.0  0.74793  0.45283  0.05956  1.0000 -0.3612335132
O   O1        1.0  0.66860  0.53969  0.87109  1.0000 -0.5525080163
O   O2        1.0  0.66860  0.79751  0.12891  1.0000 -0.5525080163
O   O3        1.0  0.04751  0.41860  0.62891  1.0000 -0.5525080163
O   O4        1.0  0.78969  0.41860  0.37109  1.0000 -0.5525080163
O   O5        1.0  0.59020  0.69910  0.89110  1.0000 -0.5315420957
O   O6        1.0  0.80800  0.69910  0.10890  1.0000 -0.5315420957
O   O7        1.0  0.94910  0.55800  0.60890  1.0000 -0.5315420957
O   O8        1.0  0.94910  0.34020  0.39110  1.0000 -0.5315420957
O   O9        1.0  0.76884  0.68986  0.61530  1.0000 -0.5525080163
O   O10       1.0  0.07456  0.68986  0.92102  1.0000 -0.5551467867
O   O11       1.0  0.07456  0.15354  0.38470  1.0000 -0.5525080163
O   O12       1.0  0.76884  0.15354  0.07898  1.0000 -0.5525080163
O   O13       1.0  0.40354  0.82456  0.88470  1.0000 -0.5551467867
O   O14       1.0  0.93986  0.82456  0.42102  1.0000 -0.5551467867
O   O15       1.0  0.40354  0.51884  0.57898  1.0000 -0.5525080163
O   O16       1.0  0.93986  0.51884  0.11530  1.0000 -0.5525080163
F   F1        1.0  0.19340  0.09820  0.90480  1.0000 -0.1311533334
F   F2        1.0  0.19340  0.28860  0.09520  1.0000 -0.1311533334
F   F3        1.0  0.53860  0.94340  0.59520  1.0000 -0.1311533334
F   F4        1.0  0.34820  0.94340  0.40480  1.0000 -0.1311533334
F   F5        1.0  0.79048  0.07650  0.71398  1.0000 -0.1311533334
F   F6        1.0  0.36252  0.07650  0.28602  1.0000 -0.1311533334
F   F7        1.0  0.32650  0.11252  0.78602  1.0000 -0.1311533334
F   F8        1.0  0.32650  0.54048  0.21398  1.0000 -0.1311533334
F   F9        1.0  0.41634  0.13880  0.58834  1.0000 -0.1382155915
F   F10       1.0  0.55046  0.13880  0.72246  1.0000 -0.1382155915
F   F11       1.0  0.55046  0.82800  0.41166  1.0000 -0.1382155915
F   F12       1.0  0.41634  0.82800  0.27754  1.0000 -0.1382155915
F   F13       1.0  0.07800  0.30046  0.91166  1.0000 -0.1382155915
F   F14       1.0  0.38880  0.30046  0.22246  1.0000 -0.1382155915
F   F15       1.0  0.07800  0.16634  0.77754  1.0000 -0.1382155915
F   F16       1.0  0.38880  0.16634  0.08834  1.0000 -0.1382155915
