# DDEC6 charges by PACMAN v1.1 (https://github.com/mtap-research/PACMAN-charge/)
data_2008[La][nan]3[ASR]2
_chemical_formula_sum              "La2 H24 C42 O12"
_cell_length_a       14.498
_cell_length_b       14.498
_cell_length_c       14.318
_cell_angle_alpha    66.9159
_cell_angle_beta     113.084
_cell_angle_gamma    144.491

_symmetry_space_group_name_H-M    "P 1"
_symmetry_Int_Tables_number       1

loop_
  _symmetry_equiv_pos_as_xyz
  'x, y, z'

loop_
  _atom_site_type_symbol
  _atom_site_label
  _atom_site_symmetry_multiplicity
  _atom_site_fract_x
  _atom_site_fract_y
  _atom_site_fract_z
  _atom_site_occupancy
  _atom_site_charge
La  La1       1.0  0.04699  0.49841  0.00353  1.0000 1.9043750319
La  La2       1.0  0.49841  0.04699  0.99647  1.0000 1.9043750319
H   H1        1.0  0.22910  0.55910  0.78530  1.0000 0.1189029089
H   H2        1.0  0.55910  0.22910  0.21470  1.0000 0.1189029089
H   H3        1.0  0.23000  0.54840  0.63270  1.0000 0.1098167644
H   H4        1.0  0.54840  0.23000  0.36730  1.0000 0.1098167644
H   H5        1.0  0.55630  0.02330  0.55440  1.0000 0.1098167644
H   H6        1.0  0.02330  0.55630  0.44560  1.0000 0.1098167644
H   H7        1.0  0.55600  0.03680  0.71000  1.0000 0.1098167644
H   H8        1.0  0.03680  0.55600  0.29000  1.0000 0.1098167644
H   H9        1.0  0.34420  0.59180  0.52070  1.0000 0.1098167644
H   H10       1.0  0.59180  0.34420  0.47930  1.0000 0.1098167644
H   H11       1.0  0.28590  0.54050  0.35830  1.0000 0.1189029089
H   H12       1.0  0.54050  0.28590  0.64170  1.0000 0.1189029089
H   H13       1.0  0.40070  0.91890  0.23350  1.0000 0.1189029089
H   H14       1.0  0.91890  0.40070  0.76650  1.0000 0.1189029089
H   H15       1.0  0.43640  0.95620  0.39180  1.0000 0.1098167644
H   H16       1.0  0.95620  0.43640  0.60820  1.0000 0.1098167644
H   H17       1.0  0.83340  0.61760  0.71700  1.0000 0.1189029089
H   H18       1.0  0.61760  0.83340  0.28300  1.0000 0.1189029089
H   H19       1.0  0.76120  0.68720  0.56450  1.0000 0.1098167644
H   H20       1.0  0.68720  0.76120  0.43550  1.0000 0.1098167644
H   H21       1.0  0.21320  0.14340  0.56470  1.0000 0.1098167644
H   H22       1.0  0.14340  0.21320  0.43530  1.0000 0.1098167644
H   H23       1.0  0.27650  0.07010  0.72550  1.0000 0.1295108053
H   H24       1.0  0.07010  0.27650  0.27450  1.0000 0.1295108053
C   C1        1.0  0.38630  0.81170  0.86220  1.0000 0.618678883
C   C2        1.0  0.81170  0.38630  0.13780  1.0000 0.618678883
C   C3        1.0  0.38790  0.80030  0.76140  1.0000 -0.0223316375
C   C4        1.0  0.80030  0.38790  0.23860  1.0000 -0.0223316375
C   C5        1.0  0.29210  0.65150  0.73830  1.0000 -0.1006993715
C   C6        1.0  0.65150  0.29210  0.26170  1.0000 -0.1006993715
C   C7        1.0  0.29390  0.64650  0.64760  1.0000 -0.1563361806
C   C8        1.0  0.64650  0.29390  0.35240  1.0000 -0.1563361806
C   C9        1.0  0.38690  0.78110  0.57450  1.0000 0.0627516734
C   C10       1.0  0.78110  0.38690  0.42550  1.0000 0.0627516734
C   C11       1.0  0.48930  0.93070  0.60000  1.0000 -0.1509507594
C   C12       1.0  0.93070  0.48930  0.40000  1.0000 -0.1509507594
C   C13       1.0  0.48840  0.93820  0.69320  1.0000 -0.1006993715
C   C14       1.0  0.93820  0.48840  0.30680  1.0000 -0.1006993715
C   C15       1.0  0.38110  0.76810  0.47390  1.0000 0.0705081525
C   C16       1.0  0.76810  0.38110  0.52610  1.0000 0.0705081525
C   C17       1.0  0.34770  0.65310  0.46260  1.0000 -0.1563361806
C   C18       1.0  0.65310  0.34770  0.53740  1.0000 -0.1563361806
C   C19       1.0  0.31860  0.62560  0.36530  1.0000 -0.1006993715
C   C20       1.0  0.62560  0.31860  0.63470  1.0000 -0.1006993715
C   C21       1.0  0.33980  0.72880  0.27950  1.0000 -0.0223316375
C   C22       1.0  0.72880  0.33980  0.72050  1.0000 -0.0223316375
C   C23       1.0  0.38400  0.84900  0.29100  1.0000 -0.1006993715
C   C24       1.0  0.84900  0.38400  0.70900  1.0000 -0.1006993715
C   C25       1.0  0.40550  0.87170  0.38610  1.0000 -0.1396420521
C   C26       1.0  0.87170  0.40550  0.61390  1.0000 -0.1396420521
C   C27       1.0  0.29310  0.68930  0.17360  1.0000 0.5868700298
C   C28       1.0  0.68930  0.29310  0.82640  1.0000 0.5868700298
C   C29       1.0  0.11290  0.78890  0.83780  1.0000 0.618678883
C   C30       1.0  0.78890  0.11290  0.16220  1.0000 0.618678883
C   C31       1.0  0.06000  0.83380  0.73870  1.0000 -0.0344472096
C   C32       1.0  0.83380  0.06000  0.26130  1.0000 -0.0344472096
C   C33       1.0  0.90930  0.72470  0.68820  1.0000 -0.0900758316
C   C34       1.0  0.72470  0.90930  0.31180  1.0000 -0.0900758316
C   C35       1.0  0.86540  0.76660  0.59690  1.0000 -0.1509507594
C   C36       1.0  0.76660  0.86540  0.40310  1.0000 -0.1509507594
C   C37       1.0  0.97220  0.92580  0.54950  1.0000 0.0705081525
C   C38       1.0  0.92580  0.97220  0.45050  1.0000 0.0705081525
C   C39       1.0  0.13340  0.03860  0.59710  1.0000 -0.1563361806
C   C40       1.0  0.03860  0.13340  0.40290  1.0000 -0.1563361806
C   C41       1.0  0.17250  0.99290  0.69180  1.0000 -0.1006993715
C   C42       1.0  0.99290  0.17250  0.30820  1.0000 -0.1006993715
O   O1        1.0  0.26780  0.67860  0.91010  1.0000 -0.6784829345
O   O2        1.0  0.67860  0.26780  0.08990  1.0000 -0.6784829345
O   O3        1.0  0.49560  0.94560  0.89000  1.0000 -0.5887388435
O   O4        1.0  0.94560  0.49560  0.11000  1.0000 -0.5887388435
O   O5        1.0  0.29500  0.77120  0.09580  1.0000 -0.6571028676
O   O6        1.0  0.77120  0.29500  0.90420  1.0000 -0.6571028676
O   O7        1.0  0.24700  0.57180  0.16770  1.0000 -0.5774199811
O   O8        1.0  0.57180  0.24700  0.83230  1.0000 -0.5774199811
O   O9        1.0  0.00850  0.63890  0.87150  1.0000 -0.6234747317
O   O10       1.0  0.63890  0.00850  0.12850  1.0000 -0.6234747317
O   O11       1.0  0.24880  0.89160  0.88070  1.0000 -0.5977559534
O   O12       1.0  0.89160  0.24880  0.11930  1.0000 -0.5977559534
