# DDEC6 charges by PACMAN v1.1 (https://github.com/mtap-research/PACMAN-charge/)
data_2008[Cu][nan]3[ASR]7
_chemical_formula_sum              "Cu16 C40 N16"
_cell_length_a       12.3444
_cell_length_b       13.3522
_cell_length_c       14.3384
_cell_angle_alpha    90
_cell_angle_beta     90
_cell_angle_gamma    90

_symmetry_space_group_name_H-M    "P 1"
_symmetry_Int_Tables_number       1

loop_
  _symmetry_equiv_pos_as_xyz
  'x, y, z'

loop_
  _atom_site_type_symbol
  _atom_site_label
  _atom_site_symmetry_multiplicity
  _atom_site_fract_x
  _atom_site_fract_y
  _atom_site_fract_z
  _atom_site_occupancy
  _atom_site_charge
Cu  Cu1       1.0  0.96104  0.43738  0.44566  1.0000 0.1882605207
Cu  Cu2       1.0  0.46104  0.56262  0.05434  1.0000 0.1834297977
Cu  Cu3       1.0  0.03896  0.93738  0.55434  1.0000 0.1834297977
Cu  Cu4       1.0  0.53896  0.06262  0.94566  1.0000 0.1834297977
Cu  Cu5       1.0  0.03896  0.56262  0.55434  1.0000 0.1834297977
Cu  Cu6       1.0  0.53896  0.43738  0.94566  1.0000 0.1834297977
Cu  Cu7       1.0  0.96104  0.06262  0.44566  1.0000 0.1834297977
Cu  Cu8       1.0  0.46104  0.93738  0.05434  1.0000 0.1882605207
Cu  Cu9       1.0  0.36343  0.44357  0.37818  1.0000 0.719616848
Cu  Cu10      1.0  0.86343  0.55643  0.12182  1.0000 0.702871832
Cu  Cu11      1.0  0.63657  0.94357  0.62182  1.0000 0.7059634802
Cu  Cu12      1.0  0.13657  0.05643  0.87818  1.0000 0.702871832
Cu  Cu13      1.0  0.63657  0.55643  0.62182  1.0000 0.702871832
Cu  Cu14      1.0  0.13657  0.44357  0.87818  1.0000 0.702871832
Cu  Cu15      1.0  0.36343  0.05643  0.37818  1.0000 0.719616848
Cu  Cu16      1.0  0.86343  0.94357  0.12182  1.0000 0.7059634802
C   C1        1.0  0.13020  0.48560  0.45810  1.0000 0.1238243867
C   C2        1.0  0.63020  0.51440  0.04190  1.0000 0.1256185896
C   C3        1.0  0.86980  0.98560  0.54190  1.0000 0.1256185896
C   C4        1.0  0.36980  0.01440  0.95810  1.0000 0.1256185896
C   C5        1.0  0.86980  0.51440  0.54190  1.0000 0.1256185896
C   C6        1.0  0.36980  0.48560  0.95810  1.0000 0.1256185896
C   C7        1.0  0.13020  0.01440  0.45810  1.0000 0.1238243867
C   C8        1.0  0.63020  0.98560  0.04190  1.0000 0.1256185896
C   C9        1.0  0.91920  0.47090  0.31890  1.0000 0.1588558071
C   C10       1.0  0.41920  0.52910  0.18110  1.0000 0.1588558071
C   C11       1.0  0.08080  0.97090  0.68110  1.0000 0.1588558071
C   C12       1.0  0.58080  0.02910  0.81890  1.0000 0.1588558071
C   C13       1.0  0.08080  0.52910  0.68110  1.0000 0.1588558071
C   C14       1.0  0.58080  0.47090  0.81890  1.0000 0.1502494466
C   C15       1.0  0.91920  0.02910  0.31890  1.0000 0.1588558071
C   C16       1.0  0.41920  0.97090  0.18110  1.0000 0.1588558071
C   C17       1.0  0.46850  0.48790  0.47240  1.0000 -0.1883660603
C   C18       1.0  0.96850  0.51210  0.02760  1.0000 -0.1822612482
C   C19       1.0  0.53150  0.98790  0.52760  1.0000 -0.1822612482
C   C20       1.0  0.03150  0.01210  0.97240  1.0000 -0.1822612482
C   C21       1.0  0.53150  0.51210  0.52760  1.0000 -0.1822612482
C   C22       1.0  0.03150  0.48790  0.97240  1.0000 -0.1883660603
C   C23       1.0  0.46850  0.01210  0.47240  1.0000 -0.1883660603
C   C24       1.0  0.96850  0.98790  0.02760  1.0000 -0.1883660603
C   C25       1.0  0.36500  0.29460  0.36460  1.0000 -0.1883660603
C   C26       1.0  0.86500  0.70540  0.13540  1.0000 -0.1883660603
C   C27       1.0  0.63500  0.79460  0.63540  1.0000 -0.1883660603
C   C28       1.0  0.13500  0.20540  0.86460  1.0000 -0.1883660603
C   C29       1.0  0.63500  0.70540  0.63540  1.0000 -0.1883660603
C   C30       1.0  0.13500  0.29460  0.86460  1.0000 -0.1883660603
C   C31       1.0  0.36500  0.20540  0.36460  1.0000 -0.1883660603
C   C32       1.0  0.86500  0.79460  0.13540  1.0000 -0.1883660603
C   C33       1.0  0.95910  0.29330  0.46890  1.0000 -0.0807699683
C   C34       1.0  0.45910  0.70670  0.03110  1.0000 -0.0807699683
C   C35       1.0  0.04090  0.79330  0.53110  1.0000 -0.0807699683
C   C36       1.0  0.54090  0.20670  0.96890  1.0000 -0.0807699683
C   C37       1.0  0.04090  0.70670  0.53110  1.0000 -0.0807699683
C   C38       1.0  0.54090  0.29330  0.96890  1.0000 -0.0807699683
C   C39       1.0  0.95910  0.20670  0.46890  1.0000 -0.0807699683
C   C40       1.0  0.45910  0.79330  0.03110  1.0000 -0.0807699683
N   N1        1.0  0.21150  0.47120  0.42500  1.0000 -0.3328657511
N   N2        1.0  0.71150  0.52880  0.07500  1.0000 -0.3328657511
N   N3        1.0  0.78850  0.97120  0.57500  1.0000 -0.3361338896
N   N4        1.0  0.28850  0.02880  0.92500  1.0000 -0.3328657511
N   N5        1.0  0.78850  0.52880  0.57500  1.0000 -0.3361338896
N   N6        1.0  0.28850  0.47120  0.92500  1.0000 -0.3361338896
N   N7        1.0  0.21150  0.02880  0.42500  1.0000 -0.3328657511
N   N8        1.0  0.71150  0.97120  0.07500  1.0000 -0.3328657511
N   N9        1.0  0.89330  0.49510  0.24540  1.0000 -0.384077509
N   N10       1.0  0.39330  0.50490  0.25460  1.0000 -0.389677574
N   N11       1.0  0.10670  0.99510  0.75460  1.0000 -0.384077509
N   N12       1.0  0.60670  0.00490  0.74540  1.0000 -0.389677574
N   N13       1.0  0.10670  0.50490  0.75460  1.0000 -0.384077509
N   N14       1.0  0.60670  0.49510  0.74540  1.0000 -0.384077509
N   N15       1.0  0.89330  0.00490  0.24540  1.0000 -0.389677574
N   N16       1.0  0.39330  0.99510  0.25460  1.0000 -0.389677574
