# DDEC6 charges by PACMAN v1.1 (https://github.com/mtap-research/PACMAN-charge/)
data_2008[Al][bpq]3[ASR]1
_chemical_formula_sum              "Al4 H20 C32 O20"
_cell_length_a       16.243
_cell_length_b       6.6352
_cell_length_c       13.4943
_cell_angle_alpha    90
_cell_angle_beta     90
_cell_angle_gamma    90

_symmetry_space_group_name_H-M    "P 1"
_symmetry_Int_Tables_number       1

loop_
  _symmetry_equiv_pos_as_xyz
  'x, y, z'

loop_
  _atom_site_type_symbol
  _atom_site_label
  _atom_site_symmetry_multiplicity
  _atom_site_fract_x
  _atom_site_fract_y
  _atom_site_fract_z
  _atom_site_occupancy
  _atom_site_charge
Al  Al1       1.0  0.99972  0.00066  0.00069  1.0000 1.6126376744
Al  Al2       1.0  0.49926  0.99396  0.50124  1.0000 1.6126376744
Al  Al3       1.0  0.99984  0.49480  0.00083  1.0000 1.6168614582
Al  Al4       1.0  0.49959  0.49431  0.50047  1.0000 1.6126376744
H   H1        1.0  0.18582  0.92219  0.80017  1.0000 0.1074616511
H   H2        1.0  0.30639  0.92201  0.69161  1.0000 0.1074616511
H   H3        1.0  0.31392  0.06915  0.30219  1.0000 0.1074616511
H   H4        1.0  0.19532  0.07262  0.19045  1.0000 0.1074616511
H   H5        1.0  0.81254  0.42214  0.20056  1.0000 0.1074616511
H   H6        1.0  0.69262  0.42203  0.31016  1.0000 0.1074616511
H   H7        1.0  0.68685  0.56911  0.69726  1.0000 0.1074616511
H   H8        1.0  0.80540  0.57264  0.80916  1.0000 0.1074616511
H   H9        1.0  0.81233  0.07085  0.20027  1.0000 0.1074616511
H   H10       1.0  0.69234  0.07077  0.31018  1.0000 0.1074616511
H   H11       1.0  0.68869  0.92045  0.69902  1.0000 0.1074616511
H   H12       1.0  0.80731  0.92389  0.81090  1.0000 0.1074616511
H   H13       1.0  0.18609  0.57086  0.80047  1.0000 0.1074616511
H   H14       1.0  0.30672  0.57079  0.69159  1.0000 0.1074616511
H   H15       1.0  0.31209  0.42045  0.30051  1.0000 0.1074616511
H   H16       1.0  0.19341  0.42384  0.18878  1.0000 0.1074616511
H   H17       1.0  0.49741  0.74340  0.61791  1.0000 0.4470090524
H   H18       1.0  0.49709  0.24341  0.38404  1.0000 0.4470090524
H   H19       1.0  0.00203  0.24730  0.11971  1.0000 0.4470090524
H   H20       1.0  0.99935  0.74765  0.88591  1.0000 0.4428463832
C   C1        1.0  0.21149  0.06495  0.77720  1.0000 -0.0930315305
C   C2        1.0  0.28099  0.06482  0.71482  1.0000 -0.0930315305
C   C3        1.0  0.28811  0.92714  0.27833  1.0000 -0.0930315305
C   C4        1.0  0.21978  0.92918  0.21419  1.0000 -0.0930315305
C   C5        1.0  0.78679  0.56495  0.22339  1.0000 -0.0930315305
C   C6        1.0  0.71777  0.56482  0.28648  1.0000 -0.0930315305
C   C7        1.0  0.71270  0.42712  0.72105  1.0000 -0.0930315305
C   C8        1.0  0.78101  0.42916  0.78532  1.0000 -0.0930315305
C   C9        1.0  0.78664  0.92809  0.22321  1.0000 -0.0930315305
C   C10       1.0  0.71760  0.92798  0.28645  1.0000 -0.0930315305
C   C11       1.0  0.71367  0.06398  0.72200  1.0000 -0.0930315305
C   C12       1.0  0.78204  0.06600  0.78627  1.0000 -0.0930315305
C   C13       1.0  0.21167  0.42811  0.77741  1.0000 -0.0952004834
C   C14       1.0  0.28118  0.42801  0.71486  1.0000 -0.0930315305
C   C15       1.0  0.28714  0.56392  0.27742  1.0000 -0.0930315305
C   C16       1.0  0.21874  0.56595  0.21328  1.0000 -0.0930315305
C   C17       1.0  0.17582  0.24632  0.81010  1.0000 -0.0324002157
C   C18       1.0  0.31725  0.24634  0.68271  1.0000 -0.0324002157
C   C19       1.0  0.10438  0.24604  0.88136  1.0000 0.662032966
C   C20       1.0  0.39026  0.24548  0.61385  1.0000 0.662032966
C   C21       1.0  0.32259  0.74469  0.31177  1.0000 -0.0324002157
C   C22       1.0  0.18336  0.74873  0.18124  1.0000 -0.0324002157
C   C23       1.0  0.39330  0.74345  0.38392  1.0000 0.662032966
C   C24       1.0  0.11028  0.75045  0.11266  1.0000 0.662032966
C   C25       1.0  0.82200  0.74633  0.18969  1.0000 -0.0324002157
C   C26       1.0  0.68157  0.74633  0.31880  1.0000 -0.0324002157
C   C27       1.0  0.89300  0.74606  0.11780  1.0000 0.6655954078
C   C28       1.0  0.60863  0.74547  0.38784  1.0000 0.662032966
C   C29       1.0  0.67806  0.24465  0.68769  1.0000 -0.0324002157
C   C30       1.0  0.81737  0.24876  0.81858  1.0000 -0.0324002157
C   C31       1.0  0.60670  0.24353  0.61631  1.0000 0.662032966
C   C32       1.0  0.89014  0.25043  0.88801  1.0000 0.662032966
O   O1        1.0  0.07492  0.07414  0.91000  1.0000 -0.6091573432
O   O2        1.0  0.41953  0.07365  0.58533  1.0000 -0.6091573432
O   O3        1.0  0.42151  0.91473  0.41462  1.0000 -0.6091573432
O   O4        1.0  0.08111  0.92368  0.08391  1.0000 -0.6091573432
O   O5        1.0  0.92225  0.57284  0.08903  1.0000 -0.6091573432
O   O6        1.0  0.57936  0.57361  0.41636  1.0000 -0.6091573432
O   O7        1.0  0.57814  0.41468  0.58600  1.0000 -0.6091573432
O   O8        1.0  0.91932  0.42238  0.91662  1.0000 -0.6091573432
O   O9        1.0  0.92056  0.91857  0.08636  1.0000 -0.6091573432
O   O10       1.0  0.57915  0.91670  0.41696  1.0000 -0.6091573432
O   O11       1.0  0.57771  0.07195  0.58721  1.0000 -0.6091573432
O   O12       1.0  0.91973  0.07914  0.91680  1.0000 -0.6091573432
O   O13       1.0  0.07699  0.41722  0.91308  1.0000 -0.6091573432
O   O14       1.0  0.41973  0.41669  0.58471  1.0000 -0.6091573432
O   O15       1.0  0.42194  0.57195  0.41339  1.0000 -0.6091573432
O   O16       1.0  0.08029  0.57795  0.08429  1.0000 -0.6091573432
O   O17       1.0  0.00101  0.24736  0.05567  1.0000 -0.9403669878
O   O18       1.0  0.49840  0.74380  0.55406  1.0000 -0.9403669878
O   O19       1.0  0.99935  0.74765  0.96002  1.0000 -0.9403669878
O   O20       1.0  0.49869  0.24381  0.44786  1.0000 -0.9403669878
