# DDEC6 charges by PACMAN v1.1 (https://github.com/mtap-research/PACMAN-charge/)
data_2008[CoEu][nan]3[ASR]1
_chemical_formula_sum              "Eu8 Co6 H24 C96 N12 O88"
_cell_length_a       14.565
_cell_length_b       14.565
_cell_length_c       18.045
_cell_angle_alpha    69.8347
_cell_angle_beta     110.165
_cell_angle_gamma    92.1336

_symmetry_space_group_name_H-M    "P 1"
_symmetry_Int_Tables_number       1

loop_
  _symmetry_equiv_pos_as_xyz
  'x, y, z'

loop_
  _atom_site_type_symbol
  _atom_site_label
  _atom_site_symmetry_multiplicity
  _atom_site_fract_x
  _atom_site_fract_y
  _atom_site_fract_z
  _atom_site_occupancy
  _atom_site_charge
Eu  Eu1       1.0  0.05624  0.59302  0.76700  1.0000 2.0397081702
Eu  Eu2       1.0  0.59302  0.05624  0.73300  1.0000 2.0397081702
Eu  Eu3       1.0  0.94376  0.40698  0.23300  1.0000 2.0397081702
Eu  Eu4       1.0  0.40698  0.94376  0.26700  1.0000 2.0397081702
Eu  Eu5       1.0  0.97556  0.97556  0.75000  1.0000 2.0664525954
Eu  Eu6       1.0  0.02444  0.02444  0.25000  1.0000 2.0664525954
Eu  Eu7       1.0  0.68667  0.68667  0.25000  1.0000 2.0537023275
Eu  Eu8       1.0  0.31333  0.31333  0.75000  1.0000 2.0537023275
Co  Co1       1.0  0.00445  0.29021  0.75601  1.0000 0.9204596608
Co  Co2       1.0  0.29021  0.00445  0.74399  1.0000 0.9204596608
Co  Co3       1.0  0.99555  0.70979  0.24399  1.0000 0.9204596608
Co  Co4       1.0  0.70979  0.99555  0.25601  1.0000 0.9204596608
Co  Co5       1.0  0.33380  0.33380  0.25000  1.0000 0.8650977938
Co  Co6       1.0  0.66620  0.66620  0.75000  1.0000 0.8638005583
H   H1        1.0  0.86230  0.54730  0.47580  1.0000 0.1500333427
H   H2        1.0  0.54730  0.86230  0.02420  1.0000 0.1500333427
H   H3        1.0  0.13770  0.45270  0.52420  1.0000 0.1500333427
H   H4        1.0  0.45270  0.13770  0.97580  1.0000 0.1500333427
H   H5        1.0  0.89420  0.27460  0.46890  1.0000 0.1553321807
H   H6        1.0  0.27460  0.89420  0.03110  1.0000 0.1553321807
H   H7        1.0  0.10580  0.72540  0.53110  1.0000 0.1553321807
H   H8        1.0  0.72540  0.10580  0.96890  1.0000 0.1553321807
H   H9        1.0  0.74560  0.90980  0.97480  1.0000 0.1500333427
H   H10       1.0  0.90980  0.74560  0.52520  1.0000 0.1500333427
H   H11       1.0  0.25440  0.09020  0.02520  1.0000 0.1500333427
H   H12       1.0  0.09020  0.25440  0.47480  1.0000 0.1500333427
H   H13       1.0  0.02100  0.90520  0.97030  1.0000 0.1500333427
H   H14       1.0  0.90520  0.02100  0.52970  1.0000 0.1500333427
H   H15       1.0  0.97900  0.09480  0.02970  1.0000 0.1500333427
H   H16       1.0  0.09480  0.97900  0.47030  1.0000 0.1500333427
H   H17       1.0  0.14070  0.59510  0.02120  1.0000 0.1553321807
H   H18       1.0  0.59510  0.14070  0.47880  1.0000 0.1553321807
H   H19       1.0  0.85930  0.40490  0.97880  1.0000 0.1553321807
H   H20       1.0  0.40490  0.85930  0.52120  1.0000 0.1553321807
H   H21       1.0  0.86190  0.71250  0.93160  1.0000 0.130733463
H   H22       1.0  0.71250  0.86190  0.56840  1.0000 0.130733463
H   H23       1.0  0.13810  0.28750  0.06840  1.0000 0.130733463
H   H24       1.0  0.28750  0.13810  0.43160  1.0000 0.130733463
C   C1        1.0  0.92300  0.43880  0.58940  1.0000 0.130733463
C   C2        1.0  0.43880  0.92300  0.91060  1.0000 0.130733463
C   C3        1.0  0.07700  0.56120  0.41060  1.0000 0.130733463
C   C4        1.0  0.56120  0.07700  0.08940  1.0000 0.130733463
C   C5        1.0  0.88230  0.48050  0.50260  1.0000 -0.1415320476
C   C6        1.0  0.48050  0.88230  0.99740  1.0000 -0.1415320476
C   C7        1.0  0.11770  0.51950  0.49740  1.0000 -0.1415320476
C   C8        1.0  0.51950  0.11770  0.00260  1.0000 -0.1415320476
C   C9        1.0  0.87190  0.41810  0.45590  1.0000 0.0200359747
C   C10       1.0  0.41810  0.87190  0.04410  1.0000 0.0200359747
C   C11       1.0  0.12810  0.58190  0.54410  1.0000 0.0200359747
C   C12       1.0  0.58190  0.12810  0.95590  1.0000 0.0200359747
C   C13       1.0  0.89920  0.31720  0.49820  1.0000 -0.1182916732
C   C14       1.0  0.31720  0.89920  0.00180  1.0000 -0.1182916732
C   C15       1.0  0.10080  0.68280  0.50180  1.0000 -0.1182916732
C   C16       1.0  0.68280  0.10080  0.99820  1.0000 -0.1182916732
C   C17       1.0  0.93410  0.28330  0.58640  1.0000 0.1500333427
C   C18       1.0  0.28330  0.93410  0.91360  1.0000 0.1500333427
C   C19       1.0  0.06590  0.71670  0.41360  1.0000 0.1500333427
C   C20       1.0  0.71670  0.06590  0.08640  1.0000 0.1500333427
C   C21       1.0  0.94880  0.49580  0.65100  1.0000 0.530269119
C   C22       1.0  0.49580  0.94880  0.84900  1.0000 0.530269119
C   C23       1.0  0.05120  0.50420  0.34900  1.0000 0.530269119
C   C24       1.0  0.50420  0.05120  0.15100  1.0000 0.530269119
C   C25       1.0  0.83440  0.46140  0.36030  1.0000 0.659137833
C   C26       1.0  0.46140  0.83440  0.13970  1.0000 0.659137833
C   C27       1.0  0.16560  0.53860  0.63970  1.0000 0.659137833
C   C28       1.0  0.53860  0.16560  0.86030  1.0000 0.659137833
C   C29       1.0  0.95990  0.17630  0.64220  1.0000 0.530269119
C   C30       1.0  0.17630  0.95990  0.85780  1.0000 0.530269119
C   C31       1.0  0.04010  0.82370  0.35780  1.0000 0.530269119
C   C32       1.0  0.82370  0.04010  0.14220  1.0000 0.530269119
C   C33       1.0  0.84950  0.82790  0.08330  1.0000 0.1198632051
C   C34       1.0  0.82790  0.84950  0.41670  1.0000 0.1198632051
C   C35       1.0  0.15050  0.17210  0.91670  1.0000 0.1198632051
C   C36       1.0  0.17210  0.15050  0.58330  1.0000 0.1198632051
C   C37       1.0  0.81210  0.88830  0.00100  1.0000 -0.1182916732
C   C38       1.0  0.88830  0.81210  0.49900  1.0000 -0.1182916732
C   C39       1.0  0.18790  0.11170  0.99900  1.0000 -0.1182916732
C   C40       1.0  0.11170  0.18790  0.50100  1.0000 -0.1182916732
C   C41       1.0  0.87760  0.91720  0.95700  1.0000 0.0301985564
C   C42       1.0  0.91720  0.87760  0.54300  1.0000 0.0301985564
C   C43       1.0  0.12240  0.08280  0.04300  1.0000 0.0301985564
C   C44       1.0  0.08280  0.12240  0.45700  1.0000 0.0301985564
C   C45       1.0  0.97660  0.88520  0.99810  1.0000 -0.1331507275
C   C46       1.0  0.88520  0.97660  0.50190  1.0000 -0.1331507275
C   C47       1.0  0.02340  0.11480  0.00190  1.0000 -0.1331507275
C   C48       1.0  0.11480  0.02340  0.49810  1.0000 -0.1331507275
C   C49       1.0  0.00770  0.82250  0.08150  1.0000 0.1198632051
C   C50       1.0  0.82250  0.00770  0.41850  1.0000 0.1198632051
C   C51       1.0  0.99230  0.17750  0.91850  1.0000 0.130733463
C   C52       1.0  0.17750  0.99230  0.58150  1.0000 0.130733463
C   C53       1.0  0.79300  0.78840  0.14170  1.0000 0.5445934265
C   C54       1.0  0.78840  0.79300  0.35830  1.0000 0.5445934265
C   C55       1.0  0.20700  0.21160  0.85830  1.0000 0.5445934265
C   C56       1.0  0.21160  0.20700  0.64170  1.0000 0.5445934265
C   C57       1.0  0.83860  0.97860  0.86450  1.0000 0.6472727983
C   C58       1.0  0.97860  0.83860  0.63550  1.0000 0.6472727983
C   C59       1.0  0.16140  0.02140  0.13550  1.0000 0.6472727983
C   C60       1.0  0.02140  0.16140  0.36450  1.0000 0.6472727983
C   C61       1.0  0.11160  0.77660  0.13570  1.0000 0.523436281
C   C62       1.0  0.77660  0.11160  0.36430  1.0000 0.523436281
C   C63       1.0  0.88840  0.22340  0.86430  1.0000 0.523436281
C   C64       1.0  0.22340  0.88840  0.63570  1.0000 0.523436281
C   C65       1.0  0.06290  0.53310  0.09570  1.0000 0.130733463
C   C66       1.0  0.53310  0.06290  0.40430  1.0000 0.130733463
C   C67       1.0  0.93710  0.46690  0.90430  1.0000 0.130733463
C   C68       1.0  0.46690  0.93710  0.59570  1.0000 0.130733463
C   C69       1.0  0.07910  0.59670  0.02580  1.0000 -0.1415320476
C   C70       1.0  0.59670  0.07910  0.47420  1.0000 -0.1415320476
C   C71       1.0  0.92090  0.40330  0.97420  1.0000 -0.1415320476
C   C72       1.0  0.40330  0.92090  0.52580  1.0000 -0.1415320476
C   C73       1.0  0.00272  0.66392  0.96180  1.0000 0.0301985564
C   C74       1.0  0.66392  0.00272  0.53820  1.0000 0.0301985564
C   C75       1.0  0.99728  0.33608  0.03820  1.0000 0.0301985564
C   C76       1.0  0.33608  0.99728  0.46180  1.0000 0.0301985564
C   C77       1.0  0.91330  0.66667  0.97210  1.0000 -0.1632863106
C   C78       1.0  0.66667  0.91330  0.52790  1.0000 -0.1632863106
C   C79       1.0  0.08670  0.33333  0.02790  1.0000 -0.1632863106
C   C80       1.0  0.33333  0.08670  0.47210  1.0000 -0.1632863106
C   C81       1.0  0.90150  0.59930  0.04440  1.0000 0.1355477078
C   C82       1.0  0.59930  0.90150  0.45560  1.0000 0.1355477078
C   C83       1.0  0.09850  0.40070  0.95560  1.0000 0.1355477078
C   C84       1.0  0.40070  0.09850  0.54440  1.0000 0.1355477078
C   C85       1.0  0.13830  0.45470  0.16730  1.0000 0.563835132
C   C86       1.0  0.45470  0.13830  0.33270  1.0000 0.563835132
C   C87       1.0  0.86170  0.54530  0.83270  1.0000 0.563835132
C   C88       1.0  0.54530  0.86170  0.66730  1.0000 0.563835132
C   C89       1.0  0.01490  0.72770  0.87990  1.0000 0.6317731468
C   C90       1.0  0.72770  0.01490  0.62010  1.0000 0.6317731468
C   C91       1.0  0.98510  0.27230  0.12010  1.0000 0.6317731468
C   C92       1.0  0.27230  0.98510  0.37990  1.0000 0.6317731468
C   C93       1.0  0.80570  0.58910  0.06070  1.0000 0.550483319
C   C94       1.0  0.58910  0.80570  0.43930  1.0000 0.550483319
C   C95       1.0  0.19430  0.41090  0.93930  1.0000 0.550483319
C   C96       1.0  0.41090  0.19430  0.56070  1.0000 0.550483319
N   N1        1.0  0.94870  0.34230  0.62960  1.0000 -0.2742851199
N   N2        1.0  0.34230  0.94870  0.87040  1.0000 -0.2742851199
N   N3        1.0  0.05130  0.65770  0.37040  1.0000 -0.2742851199
N   N4        1.0  0.65770  0.05130  0.12960  1.0000 -0.2742851199
N   N5        1.0  0.94490  0.79470  0.12140  1.0000 -0.2837829338
N   N6        1.0  0.79470  0.94490  0.37860  1.0000 -0.2837829338
N   N7        1.0  0.05510  0.20530  0.87860  1.0000 -0.2837829338
N   N8        1.0  0.20530  0.05510  0.62140  1.0000 -0.2837829338
N   N9        1.0  0.97480  0.53300  0.10540  1.0000 -0.4022673042
N   N10       1.0  0.53300  0.97480  0.39460  1.0000 -0.4022673042
N   N11       1.0  0.02520  0.46700  0.89460  1.0000 -0.4022673042
N   N12       1.0  0.46700  0.02520  0.60540  1.0000 -0.4022673042
O   O1        1.0  0.31800  0.26800  0.15400  1.0000 -0.1976405503
O   O2        1.0  0.26800  0.31800  0.34600  1.0000 -0.1907829539
O   O3        1.0  0.68200  0.73200  0.84600  1.0000 -0.1976405503
O   O4        1.0  0.73200  0.68200  0.65400  1.0000 -0.1907829539
O   O5        1.0  0.43000  0.41800  0.19400  1.0000 -0.2307967329
O   O6        1.0  0.41800  0.43000  0.30600  1.0000 -0.2307967329
O   O7        1.0  0.57000  0.58200  0.80600  1.0000 -0.2307967329
O   O8        1.0  0.58200  0.57000  0.69400  1.0000 -0.2307967329
O   O9        1.0  0.99680  0.44340  0.72650  1.0000 -0.6014099093
O   O10       1.0  0.44340  0.99680  0.77350  1.0000 -0.6014099093
O   O11       1.0  0.00320  0.55660  0.27350  1.0000 -0.6014099093
O   O12       1.0  0.55660  0.00320  0.22650  1.0000 -0.6014099093
O   O13       1.0  0.92750  0.58330  0.62470  1.0000 -0.49177548
O   O14       1.0  0.58330  0.92750  0.87530  1.0000 -0.49177548
O   O15       1.0  0.07250  0.41670  0.37530  1.0000 -0.49177548
O   O16       1.0  0.41670  0.07250  0.12470  1.0000 -0.49177548
O   O17       1.0  0.77860  0.53680  0.32550  1.0000 -0.6522024544
O   O18       1.0  0.53680  0.77860  0.17450  1.0000 -0.6522024544
O   O19       1.0  0.22140  0.46320  0.67450  1.0000 -0.6522024544
O   O20       1.0  0.46320  0.22140  0.82550  1.0000 -0.6522024544
O   O21       1.0  0.86030  0.41490  0.32370  1.0000 -0.6191380293
O   O22       1.0  0.41490  0.86030  0.17630  1.0000 -0.6191380293
O   O23       1.0  0.13970  0.58510  0.67630  1.0000 -0.6191380293
O   O24       1.0  0.58510  0.13970  0.82370  1.0000 -0.6191380293
O   O25       1.0  0.95110  0.11130  0.61250  1.0000 -0.5380949051
O   O26       1.0  0.11130  0.95110  0.88750  1.0000 -0.5380949051
O   O27       1.0  0.04890  0.88870  0.38750  1.0000 -0.5380949051
O   O28       1.0  0.88870  0.04890  0.11250  1.0000 -0.5380949051
O   O29       1.0  0.99020  0.15800  0.72250  1.0000 -0.6303401114
O   O30       1.0  0.15800  0.99020  0.77750  1.0000 -0.6303401114
O   O31       1.0  0.00980  0.84200  0.27750  1.0000 -0.6303401114
O   O32       1.0  0.84200  0.00980  0.22250  1.0000 -0.6303401114
O   O33       1.0  0.83790  0.72070  0.21350  1.0000 -0.6303401114
O   O34       1.0  0.72070  0.83790  0.28650  1.0000 -0.6303401114
O   O35       1.0  0.16210  0.27930  0.78650  1.0000 -0.6303401114
O   O36       1.0  0.27930  0.16210  0.71350  1.0000 -0.6303401114
O   O37       1.0  0.70670  0.82030  0.12050  1.0000 -0.5593838067
O   O38       1.0  0.82030  0.70670  0.37950  1.0000 -0.5593838067
O   O39       1.0  0.29330  0.17970  0.87950  1.0000 -0.5593838067
O   O40       1.0  0.17970  0.29330  0.62050  1.0000 -0.5593838067
O   O41       1.0  0.74910  0.99310  0.83110  1.0000 -0.6014099093
O   O42       1.0  0.99310  0.74910  0.66890  1.0000 -0.6014099093
O   O43       1.0  0.25090  0.00690  0.16890  1.0000 -0.6014099093
O   O44       1.0  0.00690  0.25090  0.33110  1.0000 -0.6014099093
O   O45       1.0  0.89700  0.01120  0.82820  1.0000 -0.6303401114
O   O46       1.0  0.01120  0.89700  0.67180  1.0000 -0.6303401114
O   O47       1.0  0.10300  0.98880  0.17180  1.0000 -0.6303401114
O   O48       1.0  0.98880  0.10300  0.32820  1.0000 -0.6303401114
O   O49       1.0  0.17640  0.79380  0.10650  1.0000 -0.4709533052
O   O50       1.0  0.79380  0.17640  0.39350  1.0000 -0.4709533052
O   O51       1.0  0.82360  0.20620  0.89350  1.0000 -0.4709533052
O   O52       1.0  0.20620  0.82360  0.60650  1.0000 -0.4709533052
O   O53       1.0  0.12100  0.71760  0.21040  1.0000 -0.549572912
O   O54       1.0  0.71760  0.12100  0.28960  1.0000 -0.549572912
O   O55       1.0  0.87900  0.28240  0.78960  1.0000 -0.549572912
O   O56       1.0  0.28240  0.87900  0.71040  1.0000 -0.549572912
O   O57       1.0  0.10610  0.39870  0.22460  1.0000 -0.6191380293
O   O58       1.0  0.39870  0.10610  0.27540  1.0000 -0.6191380293
O   O59       1.0  0.89390  0.60130  0.77540  1.0000 -0.6191380293
O   O60       1.0  0.60130  0.89390  0.72460  1.0000 -0.6191380293
O   O61       1.0  0.22200  0.44780  0.16640  1.0000 -0.4987427862
O   O62       1.0  0.44780  0.22200  0.33360  1.0000 -0.4987427862
O   O63       1.0  0.77800  0.55220  0.83360  1.0000 -0.4987427862
O   O64       1.0  0.55220  0.77800  0.66640  1.0000 -0.4987427862
O   O65       1.0  0.96650  0.80950  0.84070  1.0000 -0.6303401114
O   O66       1.0  0.80950  0.96650  0.65930  1.0000 -0.6303401114
O   O67       1.0  0.03350  0.19050  0.15930  1.0000 -0.6303401114
O   O68       1.0  0.19050  0.03350  0.34070  1.0000 -0.6303401114
O   O69       1.0  0.07030  0.68850  0.85740  1.0000 -0.6390294106
O   O70       1.0  0.68850  0.07030  0.64260  1.0000 -0.6390294106
O   O71       1.0  0.92970  0.31150  0.14260  1.0000 -0.6390294106
O   O72       1.0  0.31150  0.92970  0.35740  1.0000 -0.6390294106
O   O73       1.0  0.73360  0.64620  0.01160  1.0000 -0.4570547686
O   O74       1.0  0.64620  0.73360  0.48840  1.0000 -0.4570547686
O   O75       1.0  0.26640  0.35380  0.98840  1.0000 -0.4570547686
O   O76       1.0  0.35380  0.26640  0.51160  1.0000 -0.4570547686
O   O77       1.0  0.80680  0.51860  0.12830  1.0000 -0.6701050968
O   O78       1.0  0.51860  0.80680  0.37170  1.0000 -0.6701050968
O   O79       1.0  0.19320  0.48140  0.87170  1.0000 -0.6701050968
O   O80       1.0  0.48140  0.19320  0.62830  1.0000 -0.6701050968
O   O81       1.0  0.38100  0.34500  0.15700  1.0000 0.2793791025
O   O82       1.0  0.34500  0.38100  0.34300  1.0000 0.2793791025
O   O83       1.0  0.61900  0.65500  0.84300  1.0000 0.2793791025
O   O84       1.0  0.65500  0.61900  0.65700  1.0000 0.2928486793
O   O85       1.0  0.24010  0.22850  0.21900  1.0000 0.0103725624
O   O86       1.0  0.22850  0.24010  0.28100  1.0000 0.0103725624
O   O87       1.0  0.75990  0.77150  0.78100  1.0000 0.0103725624
O   O88       1.0  0.77150  0.75990  0.71900  1.0000 0.0103725624
