# DDEC6 charges by PACMAN v1.1 (https://github.com/mtap-research/PACMAN-charge/)
data_2008[Mn][sql]2[ASR]1
_chemical_formula_sum              "Mn4 H48 C56 N8 O20"
_cell_length_a       8.3474
_cell_length_b       11.6482
_cell_length_c       21.6208
_cell_angle_alpha    90
_cell_angle_beta     90
_cell_angle_gamma    90

_symmetry_space_group_name_H-M    "P 1"
_symmetry_Int_Tables_number       1

loop_
  _symmetry_equiv_pos_as_xyz
  'x, y, z'

loop_
  _atom_site_type_symbol
  _atom_site_label
  _atom_site_symmetry_multiplicity
  _atom_site_fract_x
  _atom_site_fract_y
  _atom_site_fract_z
  _atom_site_occupancy
  _atom_site_charge
Mn  Mn1       1.0  0.89876  0.98899  0.20746  1.0000 0.8317845603
Mn  Mn2       1.0  0.39876  0.01101  0.29254  1.0000 0.8317845603
Mn  Mn3       1.0  0.10124  0.98899  0.79254  1.0000 0.8317845603
Mn  Mn4       1.0  0.60124  0.01101  0.70746  1.0000 0.8317845603
H   H1        1.0  0.98710  0.99770  0.08040  1.0000 0.3401625891
H   H2        1.0  0.48710  0.00230  0.41960  1.0000 0.3401625891
H   H3        1.0  0.88940  0.77310  0.12240  1.0000 0.1099886468
H   H4        1.0  0.38940  0.22690  0.37760  1.0000 0.1099886468
H   H5        1.0  0.88890  0.57820  0.11970  1.0000 0.1282848457
H   H6        1.0  0.38890  0.42180  0.38030  1.0000 0.1282848457
H   H7        1.0  0.92740  0.57760  0.30310  1.0000 0.1243744184
H   H8        1.0  0.42740  0.42240  0.19690  1.0000 0.1243744184
H   H9        1.0  0.93780  0.77470  0.30020  1.0000 0.0981313923
H   H10       1.0  0.43780  0.22530  0.19980  1.0000 0.0981313923
H   H11       1.0  0.79670  0.20660  0.13030  1.0000 0.1099886468
H   H12       1.0  0.29670  0.79340  0.36970  1.0000 0.1099886468
H   H13       1.0  0.80880  0.40250  0.12800  1.0000 0.1282848457
H   H14       1.0  0.30880  0.59750  0.37200  1.0000 0.1282848457
H   H15       1.0  0.99500  0.39960  0.29520  1.0000 0.1282848457
H   H16       1.0  0.49500  0.60040  0.20480  1.0000 0.1282848457
H   H17       1.0  0.98730  0.20710  0.29470  1.0000 0.1099886468
H   H18       1.0  0.48730  0.79290  0.20530  1.0000 0.1099886468
H   H19       1.0  0.21990  0.08410  0.09450  1.0000 0.0936609645
H   H20       1.0  0.71990  0.91590  0.40550  1.0000 0.0936609645
H   H21       1.0  0.38920  0.91910  0.07890  1.0000 0.1542664011
H   H22       1.0  0.88920  0.08090  0.42110  1.0000 0.1542664011
H   H23       1.0  0.23650  0.84190  0.08670  1.0000 0.1375169893
H   H24       1.0  0.73650  0.15810  0.41330  1.0000 0.1375169893
H   H25       1.0  0.01290  0.99770  0.91960  1.0000 0.3401625891
H   H26       1.0  0.51290  0.00230  0.58040  1.0000 0.3401625891
H   H27       1.0  0.11060  0.77310  0.87760  1.0000 0.1099886468
H   H28       1.0  0.61060  0.22690  0.62240  1.0000 0.1099886468
H   H29       1.0  0.11110  0.57820  0.88030  1.0000 0.1282848457
H   H30       1.0  0.61110  0.42180  0.61970  1.0000 0.1282848457
H   H31       1.0  0.07260  0.57760  0.69690  1.0000 0.1243744184
H   H32       1.0  0.57260  0.42240  0.80310  1.0000 0.1243744184
H   H33       1.0  0.06220  0.77470  0.69980  1.0000 0.0981313923
H   H34       1.0  0.56220  0.22530  0.80020  1.0000 0.0981313923
H   H35       1.0  0.20330  0.20660  0.86970  1.0000 0.1099886468
H   H36       1.0  0.70330  0.79340  0.63030  1.0000 0.1099886468
H   H37       1.0  0.19120  0.40250  0.87200  1.0000 0.1282848457
H   H38       1.0  0.69120  0.59750  0.62800  1.0000 0.1282848457
H   H39       1.0  0.00500  0.39960  0.70480  1.0000 0.1282848457
H   H40       1.0  0.50500  0.60040  0.79520  1.0000 0.1282848457
H   H41       1.0  0.01270  0.20710  0.70530  1.0000 0.1099886468
H   H42       1.0  0.51270  0.79290  0.79470  1.0000 0.1099886468
H   H43       1.0  0.78010  0.08410  0.90550  1.0000 0.0936609645
H   H44       1.0  0.28010  0.91590  0.59450  1.0000 0.0936609645
H   H45       1.0  0.61080  0.91910  0.92110  1.0000 0.1542664011
H   H46       1.0  0.11080  0.08090  0.57890  1.0000 0.1542664011
H   H47       1.0  0.76350  0.84190  0.91330  1.0000 0.1375169893
H   H48       1.0  0.26350  0.15810  0.58670  1.0000 0.1375169893
C   C1        1.0  0.89570  0.73360  0.15970  1.0000 0.0694637698
C   C2        1.0  0.39570  0.26640  0.34030  1.0000 0.0694637698
C   C3        1.0  0.89620  0.61550  0.15770  1.0000 -0.2022110383
C   C4        1.0  0.39620  0.38450  0.34230  1.0000 -0.2022110383
C   C5        1.0  0.90730  0.55170  0.21130  1.0000 0.0981313923
C   C6        1.0  0.40730  0.44830  0.28870  1.0000 0.0981313923
C   C7        1.0  0.92020  0.61510  0.26530  1.0000 -0.2216066728
C   C8        1.0  0.42020  0.38490  0.23470  1.0000 -0.2216066728
C   C9        1.0  0.92240  0.73510  0.26340  1.0000 0.0832639028
C   C10       1.0  0.42240  0.26490  0.23660  1.0000 0.0832639028
C   C11       1.0  0.84160  0.24540  0.16370  1.0000 0.0694637698
C   C12       1.0  0.34160  0.75460  0.33630  1.0000 0.0694637698
C   C13       1.0  0.84650  0.36330  0.16250  1.0000 -0.2216066728
C   C14       1.0  0.34650  0.63670  0.33750  1.0000 -0.2216066728
C   C15       1.0  0.90780  0.42500  0.21280  1.0000 0.0981313923
C   C16       1.0  0.40780  0.57500  0.28720  1.0000 0.0981313923
C   C17       1.0  0.95640  0.36240  0.26020  1.0000 -0.2022110383
C   C18       1.0  0.45640  0.63760  0.23980  1.0000 -0.2022110383
C   C19       1.0  0.95210  0.24630  0.25970  1.0000 0.0553403635
C   C20       1.0  0.45210  0.75370  0.24030  1.0000 0.0553403635
C   C21       1.0  0.25740  0.00410  0.17800  1.0000 0.5224936445
C   C22       1.0  0.75740  0.99590  0.32200  1.0000 0.5224936445
C   C23       1.0  0.19690  0.00850  0.11230  1.0000 0.0416287732
C   C24       1.0  0.69690  0.99150  0.38770  1.0000 0.0416287732
C   C25       1.0  0.27400  0.91660  0.07320  1.0000 -0.3620075295
C   C26       1.0  0.77400  0.08340  0.42680  1.0000 -0.3620075295
C   C27       1.0  0.23400  0.93270  0.00300  1.0000 0.5485417683
C   C28       1.0  0.73400  0.06730  0.49700  1.0000 0.5485417683
C   C29       1.0  0.10430  0.73360  0.84030  1.0000 0.0694637698
C   C30       1.0  0.60430  0.26640  0.65970  1.0000 0.0694637698
C   C31       1.0  0.10380  0.61550  0.84230  1.0000 -0.2022110383
C   C32       1.0  0.60380  0.38450  0.65770  1.0000 -0.2022110383
C   C33       1.0  0.09270  0.55170  0.78870  1.0000 0.0981313923
C   C34       1.0  0.59270  0.44830  0.71130  1.0000 0.0981313923
C   C35       1.0  0.07980  0.61510  0.73470  1.0000 -0.2216066728
C   C36       1.0  0.57980  0.38490  0.76530  1.0000 -0.2216066728
C   C37       1.0  0.07760  0.73510  0.73660  1.0000 0.0832639028
C   C38       1.0  0.57760  0.26490  0.76340  1.0000 0.0832639028
C   C39       1.0  0.15840  0.24540  0.83630  1.0000 0.0694637698
C   C40       1.0  0.65840  0.75460  0.66370  1.0000 0.0694637698
C   C41       1.0  0.15350  0.36330  0.83750  1.0000 -0.2216066728
C   C42       1.0  0.65350  0.63670  0.66250  1.0000 -0.2216066728
C   C43       1.0  0.09220  0.42500  0.78720  1.0000 0.0981313923
C   C44       1.0  0.59220  0.57500  0.71280  1.0000 0.0981313923
C   C45       1.0  0.04360  0.36240  0.73980  1.0000 -0.2022110383
C   C46       1.0  0.54360  0.63760  0.76020  1.0000 -0.2022110383
C   C47       1.0  0.04790  0.24630  0.74030  1.0000 0.0553403635
C   C48       1.0  0.54790  0.75370  0.75970  1.0000 0.0553403635
C   C49       1.0  0.74260  0.00410  0.82200  1.0000 0.5224936445
C   C50       1.0  0.24260  0.99590  0.67800  1.0000 0.5224936445
C   C51       1.0  0.80310  0.00850  0.88770  1.0000 0.0416287732
C   C52       1.0  0.30310  0.99150  0.61230  1.0000 0.0416287732
C   C53       1.0  0.72600  0.91660  0.92680  1.0000 -0.3620075295
C   C54       1.0  0.22600  0.08340  0.57320  1.0000 -0.3620075295
C   C55       1.0  0.76600  0.93270  0.99700  1.0000 0.5485417683
C   C56       1.0  0.26600  0.06730  0.50300  1.0000 0.5485417683
N   N1        1.0  0.90370  0.79520  0.21190  1.0000 -0.2367569964
N   N2        1.0  0.40370  0.20480  0.28810  1.0000 -0.2367569964
N   N3        1.0  0.89900  0.18470  0.21100  1.0000 -0.2267069901
N   N4        1.0  0.39900  0.81530  0.28900  1.0000 -0.2267069901
N   N5        1.0  0.09630  0.79520  0.78810  1.0000 -0.2367569964
N   N6        1.0  0.59630  0.20480  0.71190  1.0000 -0.2367569964
N   N7        1.0  0.10100  0.18470  0.78900  1.0000 -0.2267069901
N   N8        1.0  0.60100  0.81530  0.71100  1.0000 -0.2267069901
O   O1        1.0  0.15960  0.99610  0.22250  1.0000 -0.5357865552
O   O2        1.0  0.65960  0.00390  0.27750  1.0000 -0.5357865552
O   O3        1.0  0.40430  0.01310  0.18737  1.0000 -0.524862663
O   O4        1.0  0.90430  0.98690  0.31263  1.0000 -0.5253374736
O   O5        1.0  0.17930  0.01310  0.98430  1.0000 -0.4178440209
O   O6        1.0  0.67930  0.98690  0.51570  1.0000 -0.4178440209
O   O7        1.0  0.26900  0.86040  0.96860  1.0000 -0.4416369359
O   O8        1.0  0.76900  0.13960  0.53140  1.0000 -0.4416369359
O   O9        1.0  0.02530  0.99140  0.11513  1.0000 -0.4877020503
O   O10       1.0  0.52530  0.00860  0.38487  1.0000 -0.4877020503
O   O11       1.0  0.84040  0.99610  0.77750  1.0000 -0.5357865552
O   O12       1.0  0.34040  0.00390  0.72250  1.0000 -0.5357865552
O   O13       1.0  0.59570  0.01310  0.81263  1.0000 -0.524862663
O   O14       1.0  0.09570  0.98690  0.68737  1.0000 -0.5253374736
O   O15       1.0  0.82070  0.01310  0.01570  1.0000 -0.4178440209
O   O16       1.0  0.32070  0.98690  0.48430  1.0000 -0.4178440209
O   O17       1.0  0.73100  0.86040  0.03140  1.0000 -0.4416369359
O   O18       1.0  0.23100  0.13960  0.46860  1.0000 -0.4416369359
O   O19       1.0  0.97470  0.99140  0.88487  1.0000 -0.4877020503
O   O20       1.0  0.47470  0.00860  0.61513  1.0000 -0.4877020503
