# DDEC6 charges by PACMAN v1.1 (https://github.com/mtap-research/PACMAN-charge/)
data_2008[Co][dia]3[ASR]4
_chemical_formula_sum              "Co12 H24 C24 O48"
_cell_length_a       11.3834
_cell_length_b       9.9292
_cell_length_c       18.1854
_cell_angle_alpha    90
_cell_angle_beta     127.492
_cell_angle_gamma    90

_symmetry_space_group_name_H-M    "P 1"
_symmetry_Int_Tables_number       1

loop_
  _symmetry_equiv_pos_as_xyz
  'x, y, z'

loop_
  _atom_site_type_symbol
  _atom_site_label
  _atom_site_symmetry_multiplicity
  _atom_site_fract_x
  _atom_site_fract_y
  _atom_site_fract_z
  _atom_site_occupancy
  _atom_site_charge
Co  Co1       1.0  0.87862  0.07921  0.63339  1.0000 0.9762673159
Co  Co2       1.0  0.12138  0.57921  0.86661  1.0000 0.9762673159
Co  Co3       1.0  0.12138  0.92079  0.36661  1.0000 0.9762673159
Co  Co4       1.0  0.87862  0.42079  0.13339  1.0000 0.9762673159
Co  Co5       1.0  0.92903  0.38764  0.68972  1.0000 0.9641135264
Co  Co6       1.0  0.07097  0.88764  0.81028  1.0000 0.9641135264
Co  Co7       1.0  0.07097  0.61236  0.31028  1.0000 0.9641135264
Co  Co8       1.0  0.92903  0.11236  0.18972  1.0000 0.9641135264
Co  Co9       1.0  0.00000  0.00000  0.50000  1.0000 0.9908353914
Co  Co10      1.0  0.00000  0.50000  0.00000  1.0000 0.9908353914
Co  Co11      1.0  0.50000  0.00000  0.50000  1.0000 1.0044018854
Co  Co12      1.0  0.50000  0.50000  0.00000  1.0000 1.0044018854
H   H1        1.0  0.97610  0.38160  0.53750  1.0000 0.0897379143
H   H2        1.0  0.02390  0.88160  0.96250  1.0000 0.0897379143
H   H3        1.0  0.02390  0.61840  0.46250  1.0000 0.0897379143
H   H4        1.0  0.97610  0.11840  0.03750  1.0000 0.0897379143
H   H5        1.0  0.75900  0.78790  0.72570  1.0000 0.0897379143
H   H6        1.0  0.24100  0.28790  0.77430  1.0000 0.0897379143
H   H7        1.0  0.24100  0.21210  0.27430  1.0000 0.0897379143
H   H8        1.0  0.75900  0.71210  0.22570  1.0000 0.0897379143
H   H9        1.0  0.03260  0.24440  0.87450  1.0000 0.0897379143
H   H10       1.0  0.96740  0.74440  0.62550  1.0000 0.0897379143
H   H11       1.0  0.96740  0.75560  0.12550  1.0000 0.0897379143
H   H12       1.0  0.03260  0.25560  0.37450  1.0000 0.0897379143
H   H13       1.0  0.70830  0.03900  0.23260  1.0000 0.0897379143
H   H14       1.0  0.29170  0.53900  0.26740  1.0000 0.0897379143
H   H15       1.0  0.29170  0.96100  0.76740  1.0000 0.0897379143
H   H16       1.0  0.70830  0.46100  0.73260  1.0000 0.0897379143
H   H17       1.0  0.51560  0.28650  0.52060  1.0000 0.0897379143
H   H18       1.0  0.48440  0.78650  0.97940  1.0000 0.0897379143
H   H19       1.0  0.48440  0.71350  0.47940  1.0000 0.0897379143
H   H20       1.0  0.51560  0.21350  0.02060  1.0000 0.0897379143
H   H21       1.0  0.73070  0.84330  0.42670  1.0000 0.0897379143
H   H22       1.0  0.26930  0.34330  0.07330  1.0000 0.0897379143
H   H23       1.0  0.26930  0.15670  0.57330  1.0000 0.0897379143
H   H24       1.0  0.73070  0.65670  0.92670  1.0000 0.0897379143
C   C1        1.0  0.96872  0.28685  0.54659  1.0000 0.4779083758
C   C2        1.0  0.03128  0.78685  0.95341  1.0000 0.4779083758
C   C3        1.0  0.03128  0.71315  0.45341  1.0000 0.4779083758
C   C4        1.0  0.96872  0.21315  0.04659  1.0000 0.4779083758
C   C5        1.0  0.73680  0.85873  0.68199  1.0000 0.4779083758
C   C6        1.0  0.26320  0.35873  0.81801  1.0000 0.4779083758
C   C7        1.0  0.26320  0.14127  0.31801  1.0000 0.4779083758
C   C8        1.0  0.73680  0.64127  0.18199  1.0000 0.4779083758
C   C9        1.0  0.01708  0.17168  0.83439  1.0000 0.4926084389
C   C10       1.0  0.98292  0.67168  0.66561  1.0000 0.4926084389
C   C11       1.0  0.98292  0.82832  0.16561  1.0000 0.4926084389
C   C12       1.0  0.01708  0.32832  0.33439  1.0000 0.4926084389
C   C13       1.0  0.80619  0.01535  0.28882  1.0000 0.4779083758
C   C14       1.0  0.19381  0.51535  0.21118  1.0000 0.4779083758
C   C15       1.0  0.19381  0.98465  0.71118  1.0000 0.4779083758
C   C16       1.0  0.80619  0.48465  0.78882  1.0000 0.4779083758
C   C17       1.0  0.62189  0.27300  0.55971  1.0000 0.4972669454
C   C18       1.0  0.37811  0.77300  0.94029  1.0000 0.4972669454
C   C19       1.0  0.37811  0.72700  0.44029  1.0000 0.4972669454
C   C20       1.0  0.62189  0.22700  0.05971  1.0000 0.4926084389
C   C21       1.0  0.72491  0.89973  0.46598  1.0000 0.4972669454
C   C22       1.0  0.27509  0.39973  0.03402  1.0000 0.4972669454
C   C23       1.0  0.27509  0.10027  0.53402  1.0000 0.4972669454
C   C24       1.0  0.72491  0.60027  0.96598  1.0000 0.4972669454
O   O1        1.0  0.95019  0.25639  0.60745  1.0000 -0.5681682933
O   O2        1.0  0.04981  0.75639  0.89255  1.0000 -0.5681682933
O   O3        1.0  0.04981  0.74361  0.39255  1.0000 -0.5681682933
O   O4        1.0  0.95019  0.24361  0.10745  1.0000 -0.5681682933
O   O5        1.0  0.97626  0.20639  0.49767  1.0000 -0.5096850205
O   O6        1.0  0.02374  0.70639  0.00233  1.0000 -0.5096850205
O   O7        1.0  0.02374  0.79361  0.50233  1.0000 -0.5096850205
O   O8        1.0  0.97626  0.29361  0.99767  1.0000 -0.5096850205
O   O9        1.0  0.84837  0.91899  0.69652  1.0000 -0.5646038424
O   O10       1.0  0.15163  0.41899  0.80348  1.0000 -0.5646038424
O   O11       1.0  0.15163  0.08101  0.30348  1.0000 -0.5646038424
O   O12       1.0  0.84837  0.58101  0.19652  1.0000 -0.5646038424
O   O13       1.0  0.60562  0.87959  0.61665  1.0000 -0.4910698827
O   O14       1.0  0.39438  0.37959  0.88335  1.0000 -0.4910698827
O   O15       1.0  0.39438  0.12041  0.38335  1.0000 -0.4910698827
O   O16       1.0  0.60562  0.62041  0.11665  1.0000 -0.4910698827
O   O17       1.0  0.06838  0.06014  0.87131  1.0000 -0.4984019171
O   O18       1.0  0.93162  0.56014  0.62869  1.0000 -0.4984019171
O   O19       1.0  0.93162  0.93986  0.12869  1.0000 -0.4984019171
O   O20       1.0  0.06838  0.43986  0.37131  1.0000 -0.4984019171
O   O21       1.0  0.94392  0.19854  0.74808  1.0000 -0.5681682933
O   O22       1.0  0.05608  0.69854  0.75192  1.0000 -0.5681682933
O   O23       1.0  0.05608  0.80146  0.25192  1.0000 -0.5681682933
O   O24       1.0  0.94392  0.30146  0.24808  1.0000 -0.5681682933
O   O25       1.0  0.91085  0.00637  0.28183  1.0000 -0.5681682933
O   O26       1.0  0.08915  0.50637  0.21817  1.0000 -0.5681682933
O   O27       1.0  0.08915  0.99363  0.71817  1.0000 -0.5681682933
O   O28       1.0  0.91085  0.49363  0.78183  1.0000 -0.5681682933
O   O29       1.0  0.81725  0.99826  0.35996  1.0000 -0.4984019171
O   O30       1.0  0.18275  0.49826  0.14004  1.0000 -0.4984019171
O   O31       1.0  0.18275  0.00174  0.64004  1.0000 -0.4984019171
O   O32       1.0  0.81725  0.50174  0.85996  1.0000 -0.4984019171
O   O33       1.0  0.70284  0.37325  0.59790  1.0000 -0.4984019171
O   O34       1.0  0.29716  0.87325  0.90210  1.0000 -0.4984019171
O   O35       1.0  0.29716  0.62675  0.40210  1.0000 -0.4984019171
O   O36       1.0  0.70284  0.12675  0.09790  1.0000 -0.4984019171
O   O37       1.0  0.66435  0.15165  0.56570  1.0000 -0.5532071065
O   O38       1.0  0.33565  0.65165  0.93430  1.0000 -0.5532071065
O   O39       1.0  0.33565  0.84835  0.43430  1.0000 -0.5532071065
O   O40       1.0  0.66435  0.34835  0.06570  1.0000 -0.5532071065
O   O41       1.0  0.60934  0.89648  0.45843  1.0000 -0.5096850205
O   O42       1.0  0.39066  0.39648  0.04157  1.0000 -0.5096850205
O   O43       1.0  0.39066  0.10352  0.54157  1.0000 -0.5096850205
O   O44       1.0  0.60934  0.60352  0.95843  1.0000 -0.5096850205
O   O45       1.0  0.83791  0.97436  0.52269  1.0000 -0.5681682933
O   O46       1.0  0.16209  0.47436  0.97731  1.0000 -0.5681682933
O   O47       1.0  0.16209  0.02564  0.47731  1.0000 -0.5681682933
O   O48       1.0  0.83791  0.52564  0.02269  1.0000 -0.5681682933
