# DDEC6 charges by PACMAN v1.1 (https://github.com/mtap-research/PACMAN-charge/)
data_2008[Ce][nan]3[ASR]1
_chemical_formula_sum              "Ce2 H24 C42 O12"
_cell_length_a       15.1092
_cell_length_b       15.1092
_cell_length_c       14.257
_cell_angle_alpha    65.0685
_cell_angle_beta     114.932
_cell_angle_gamma    146.182

_symmetry_space_group_name_H-M    "P 1"
_symmetry_Int_Tables_number       1

loop_
  _symmetry_equiv_pos_as_xyz
  'x, y, z'

loop_
  _atom_site_type_symbol
  _atom_site_label
  _atom_site_symmetry_multiplicity
  _atom_site_fract_x
  _atom_site_fract_y
  _atom_site_fract_z
  _atom_site_occupancy
  _atom_site_charge
Ce  Ce1       1.0  0.04139  0.49485  0.00501  1.0000 1.9593348536
Ce  Ce2       1.0  0.49485  0.04139  0.99499  1.0000 1.9593348536
H   H1        1.0  0.22480  0.55760  0.79910  1.0000 0.1101658216
H   H2        1.0  0.55760  0.22480  0.20090  1.0000 0.1101658216
H   H3        1.0  0.22780  0.54680  0.63980  1.0000 0.1101658216
H   H4        1.0  0.54680  0.22780  0.36020  1.0000 0.1101658216
H   H5        1.0  0.55080  0.01760  0.55690  1.0000 0.1039431798
H   H6        1.0  0.01760  0.55080  0.44310  1.0000 0.1039431798
H   H7        1.0  0.54770  0.02790  0.71330  1.0000 0.1101658216
H   H8        1.0  0.02790  0.54770  0.28670  1.0000 0.1101658216
H   H9        1.0  0.32230  0.57910  0.53070  1.0000 0.1101658216
H   H10       1.0  0.57910  0.32230  0.46930  1.0000 0.1101658216
H   H11       1.0  0.28230  0.54310  0.36360  1.0000 0.122451454
H   H12       1.0  0.54310  0.28230  0.63640  1.0000 0.122451454
H   H13       1.0  0.41200  0.92500  0.23540  1.0000 0.1101658216
H   H14       1.0  0.92500  0.41200  0.76460  1.0000 0.1101658216
H   H15       1.0  0.43050  0.94830  0.39550  1.0000 0.1101658216
H   H16       1.0  0.94830  0.43050  0.60450  1.0000 0.1101658216
H   H17       1.0  0.82940  0.60820  0.71530  1.0000 0.122451454
H   H18       1.0  0.60820  0.82940  0.28470  1.0000 0.122451454
H   H19       1.0  0.74610  0.67610  0.56660  1.0000 0.1039431798
H   H20       1.0  0.67610  0.74610  0.43340  1.0000 0.1039431798
H   H21       1.0  0.19200  0.13800  0.57720  1.0000 0.1039431798
H   H22       1.0  0.13800  0.19200  0.42280  1.0000 0.1039431798
H   H23       1.0  0.27510  0.06370  0.72110  1.0000 0.1289566192
H   H24       1.0  0.06370  0.27510  0.27890  1.0000 0.1289566192
C   C1        1.0  0.37830  0.80450  0.86720  1.0000 0.631959084
C   C2        1.0  0.80450  0.37830  0.13280  1.0000 0.631959084
C   C3        1.0  0.38370  0.79690  0.76810  1.0000 -0.0411006114
C   C4        1.0  0.79690  0.38370  0.23190  1.0000 -0.0411006114
C   C5        1.0  0.28800  0.64920  0.75020  1.0000 -0.1028896277
C   C6        1.0  0.64920  0.28800  0.24980  1.0000 -0.1028896277
C   C7        1.0  0.29090  0.64390  0.65400  1.0000 -0.1696908441
C   C8        1.0  0.64390  0.29090  0.34600  1.0000 -0.1696908441
C   C9        1.0  0.38510  0.77930  0.58170  1.0000 0.0700386062
C   C10       1.0  0.77930  0.38510  0.41830  1.0000 0.0700386062
C   C11       1.0  0.48340  0.92440  0.60380  1.0000 -0.1597591084
C   C12       1.0  0.92440  0.48340  0.39620  1.0000 -0.1597591084
C   C13       1.0  0.48050  0.92950  0.69820  1.0000 -0.0929270503
C   C14       1.0  0.92950  0.48050  0.30180  1.0000 -0.0929270503
C   C15       1.0  0.37710  0.76730  0.47750  1.0000 0.0700386062
C   C16       1.0  0.76730  0.37710  0.52250  1.0000 0.0700386062
C   C17       1.0  0.33510  0.64550  0.47090  1.0000 -0.1597591084
C   C18       1.0  0.64550  0.33510  0.52910  1.0000 -0.1597591084
C   C19       1.0  0.31210  0.62470  0.36990  1.0000 -0.1066717622
C   C20       1.0  0.62470  0.31210  0.63010  1.0000 -0.1066717622
C   C21       1.0  0.33420  0.72400  0.28450  1.0000 -0.0178971724
C   C22       1.0  0.72400  0.33420  0.71550  1.0000 -0.0178971724
C   C23       1.0  0.38690  0.85090  0.29370  1.0000 -0.1028896277
C   C24       1.0  0.85090  0.38690  0.70630  1.0000 -0.1028896277
C   C25       1.0  0.40240  0.86740  0.39060  1.0000 -0.1425548126
C   C26       1.0  0.86740  0.40240  0.60940  1.0000 -0.1425548126
C   C27       1.0  0.28870  0.68690  0.17720  1.0000 0.5836359295
C   C28       1.0  0.68690  0.28870  0.82280  1.0000 0.5836359295
C   C29       1.0  0.10930  0.78010  0.83340  1.0000 0.6216142508
C   C30       1.0  0.78010  0.10930  0.16660  1.0000 0.6216142508
C   C31       1.0  0.05870  0.82570  0.73430  1.0000 -0.0411006114
C   C32       1.0  0.82570  0.05870  0.26570  1.0000 -0.0411006114
C   C33       1.0  0.90420  0.71560  0.68580  1.0000 -0.0929270503
C   C34       1.0  0.71560  0.90420  0.31420  1.0000 -0.0929270503
C   C35       1.0  0.85340  0.75460  0.59620  1.0000 -0.1509470609
C   C36       1.0  0.75460  0.85340  0.40380  1.0000 -0.1509470609
C   C37       1.0  0.97060  0.92220  0.54770  1.0000 0.0700386062
C   C38       1.0  0.92220  0.97060  0.45230  1.0000 0.0700386062
C   C39       1.0  0.11880  0.02920  0.60110  1.0000 -0.1425548126
C   C40       1.0  0.02920  0.11880  0.39890  1.0000 -0.1425548126
C   C41       1.0  0.16810  0.98550  0.69050  1.0000 -0.1028896277
C   C42       1.0  0.98550  0.16810  0.30950  1.0000 -0.1028896277
O   O1        1.0  0.26210  0.67650  0.91460  1.0000 -0.6516926256
O   O2        1.0  0.67650  0.26210  0.08540  1.0000 -0.6516926256
O   O3        1.0  0.49070  0.93890  0.89650  1.0000 -0.6028503743
O   O4        1.0  0.93890  0.49070  0.10350  1.0000 -0.6028503743
O   O5        1.0  0.29100  0.76760  0.09760  1.0000 -0.6604998675
O   O6        1.0  0.76760  0.29100  0.90240  1.0000 -0.6604998675
O   O7        1.0  0.23750  0.56930  0.17170  1.0000 -0.5751842824
O   O8        1.0  0.56930  0.23750  0.82830  1.0000 -0.5751842824
O   O9        1.0  0.00870  0.63510  0.86900  1.0000 -0.6028503743
O   O10       1.0  0.63510  0.00870  0.13100  1.0000 -0.6028503743
O   O11       1.0  0.24880  0.88780  0.87720  1.0000 -0.6337075201
O   O12       1.0  0.88780  0.24880  0.12280  1.0000 -0.6337075201
