# DDEC6 charges by PACMAN v1.1 (https://github.com/mtap-research/PACMAN-charge/)
data_2008[Cu][nbo]3[ASR]2
_chemical_formula_sum              "Cu6 H96 C108 O24"
_cell_length_a       26.9783
_cell_length_b       26.9783
_cell_length_c       26.9783
_cell_angle_alpha    118.353
_cell_angle_beta     118.353
_cell_angle_gamma    118.353

_symmetry_space_group_name_H-M    "P 1"
_symmetry_Int_Tables_number       1

loop_
  _symmetry_equiv_pos_as_xyz
  'x, y, z'

loop_
  _atom_site_type_symbol
  _atom_site_label
  _atom_site_symmetry_multiplicity
  _atom_site_fract_x
  _atom_site_fract_y
  _atom_site_fract_z
  _atom_site_occupancy
  _atom_site_charge
Cu  Cu1       1.0  0.57927  0.11356  0.57927  1.0000 0.8742975895
Cu  Cu2       1.0  0.11356  0.57927  0.57927  1.0000 0.8751623337
Cu  Cu3       1.0  0.57927  0.57927  0.11356  1.0000 0.8751623337
Cu  Cu4       1.0  0.42073  0.42073  0.88644  1.0000 0.8751623337
Cu  Cu5       1.0  0.88644  0.42073  0.42073  1.0000 0.8742975895
Cu  Cu6       1.0  0.42073  0.88644  0.42073  1.0000 0.8742975895
H   H1        1.0  0.55250  0.97940  0.67840  1.0000 0.136558902
H   H2        1.0  0.97940  0.67840  0.55250  1.0000 0.136558902
H   H3        1.0  0.67840  0.55250  0.97940  1.0000 0.136558902
H   H4        1.0  0.44750  0.32160  0.02060  1.0000 0.136558902
H   H5        1.0  0.02060  0.44750  0.32160  1.0000 0.136558902
H   H6        1.0  0.32160  0.02060  0.44750  1.0000 0.136558902
H   H7        1.0  0.44750  0.02060  0.32160  1.0000 0.136558902
H   H8        1.0  0.02060  0.32160  0.44750  1.0000 0.136558902
H   H9        1.0  0.32160  0.44750  0.02060  1.0000 0.136558902
H   H10       1.0  0.55250  0.67840  0.97940  1.0000 0.136558902
H   H11       1.0  0.97940  0.55250  0.67840  1.0000 0.136558902
H   H12       1.0  0.67840  0.97940  0.55250  1.0000 0.136558902
H   H13       1.0  0.74290  0.29290  0.88610  1.0000 0.136558902
H   H14       1.0  0.29290  0.88610  0.74290  1.0000 0.136558902
H   H15       1.0  0.88610  0.74290  0.29290  1.0000 0.136558902
H   H16       1.0  0.25710  0.11390  0.70710  1.0000 0.136558902
H   H17       1.0  0.70710  0.25710  0.11390  1.0000 0.136558902
H   H18       1.0  0.11390  0.70710  0.25710  1.0000 0.136558902
H   H19       1.0  0.25710  0.70710  0.11390  1.0000 0.136558902
H   H20       1.0  0.70710  0.11390  0.25710  1.0000 0.136558902
H   H21       1.0  0.11390  0.25710  0.70710  1.0000 0.136558902
H   H22       1.0  0.74290  0.88610  0.29290  1.0000 0.136558902
H   H23       1.0  0.29290  0.74290  0.88610  1.0000 0.136558902
H   H24       1.0  0.88610  0.29290  0.74290  1.0000 0.136558902
H   H25       1.0  0.65970  0.06580  0.89520  1.0000 0.122735101
H   H26       1.0  0.06580  0.89520  0.65970  1.0000 0.122735101
H   H27       1.0  0.89520  0.65970  0.06580  1.0000 0.122735101
H   H28       1.0  0.34030  0.10480  0.93420  1.0000 0.122735101
H   H29       1.0  0.93420  0.34030  0.10480  1.0000 0.122735101
H   H30       1.0  0.10480  0.93420  0.34030  1.0000 0.122735101
H   H31       1.0  0.34030  0.93420  0.10480  1.0000 0.122735101
H   H32       1.0  0.93420  0.10480  0.34030  1.0000 0.122735101
H   H33       1.0  0.10480  0.34030  0.93420  1.0000 0.122735101
H   H34       1.0  0.65970  0.89520  0.06580  1.0000 0.122735101
H   H35       1.0  0.06580  0.65970  0.89520  1.0000 0.122735101
H   H36       1.0  0.89520  0.06580  0.65970  1.0000 0.122735101
H   H37       1.0  0.52980  0.93620  0.74220  1.0000 0.1292664153
H   H38       1.0  0.93620  0.74220  0.52980  1.0000 0.1292664153
H   H39       1.0  0.74220  0.52980  0.93620  1.0000 0.1292664153
H   H40       1.0  0.47020  0.25780  0.06380  1.0000 0.1292664153
H   H41       1.0  0.06380  0.47020  0.25780  1.0000 0.1292664153
H   H42       1.0  0.25780  0.06380  0.47020  1.0000 0.1292664153
H   H43       1.0  0.47020  0.06380  0.25780  1.0000 0.1292664153
H   H44       1.0  0.06380  0.25780  0.47020  1.0000 0.1292664153
H   H45       1.0  0.25780  0.47020  0.06380  1.0000 0.1292664153
H   H46       1.0  0.52980  0.74220  0.93620  1.0000 0.1292664153
H   H47       1.0  0.93620  0.52980  0.74220  1.0000 0.1292664153
H   H48       1.0  0.74220  0.93620  0.52980  1.0000 0.1292664153
H   H49       1.0  0.66280  0.02790  0.83280  1.0000 0.1292664153
H   H50       1.0  0.02790  0.83280  0.66280  1.0000 0.1292664153
H   H51       1.0  0.83280  0.66280  0.02790  1.0000 0.1292664153
H   H52       1.0  0.33720  0.16720  0.97210  1.0000 0.1292664153
H   H53       1.0  0.97210  0.33720  0.16720  1.0000 0.1292664153
H   H54       1.0  0.16720  0.97210  0.33720  1.0000 0.1292664153
H   H55       1.0  0.33720  0.97210  0.16720  1.0000 0.1292664153
H   H56       1.0  0.97210  0.16720  0.33720  1.0000 0.1292664153
H   H57       1.0  0.16720  0.33720  0.97210  1.0000 0.1292664153
H   H58       1.0  0.66280  0.83280  0.02790  1.0000 0.1292664153
H   H59       1.0  0.02790  0.66280  0.83280  1.0000 0.1292664153
H   H60       1.0  0.83280  0.02790  0.66280  1.0000 0.1292664153
H   H61       1.0  0.88930  0.43970  0.14160  1.0000 0.1292664153
H   H62       1.0  0.43970  0.14160  0.88930  1.0000 0.1292664153
H   H63       1.0  0.14160  0.88930  0.43970  1.0000 0.1292664153
H   H64       1.0  0.11070  0.85840  0.56030  1.0000 0.1292664153
H   H65       1.0  0.56030  0.11070  0.85840  1.0000 0.1292664153
H   H66       1.0  0.85840  0.56030  0.11070  1.0000 0.1292664153
H   H67       1.0  0.11070  0.56030  0.85840  1.0000 0.1292664153
H   H68       1.0  0.56030  0.85840  0.11070  1.0000 0.1292664153
H   H69       1.0  0.85840  0.11070  0.56030  1.0000 0.1292664153
H   H70       1.0  0.88930  0.14160  0.43970  1.0000 0.1292664153
H   H71       1.0  0.43970  0.88930  0.14160  1.0000 0.1292664153
H   H72       1.0  0.14160  0.43970  0.88930  1.0000 0.1292664153
H   H73       1.0  0.93950  0.48460  0.13170  1.0000 0.136558902
H   H74       1.0  0.48460  0.13170  0.93950  1.0000 0.136558902
H   H75       1.0  0.13170  0.93950  0.48460  1.0000 0.136558902
H   H76       1.0  0.06050  0.86830  0.51540  1.0000 0.136558902
H   H77       1.0  0.51540  0.06050  0.86830  1.0000 0.136558902
H   H78       1.0  0.86830  0.51540  0.06050  1.0000 0.136558902
H   H79       1.0  0.06050  0.51540  0.86830  1.0000 0.136558902
H   H80       1.0  0.51540  0.86830  0.06050  1.0000 0.136558902
H   H81       1.0  0.86830  0.06050  0.51540  1.0000 0.136558902
H   H82       1.0  0.93950  0.13170  0.48460  1.0000 0.136558902
H   H83       1.0  0.48460  0.93950  0.13170  1.0000 0.136558902
H   H84       1.0  0.13170  0.48460  0.93950  1.0000 0.136558902
H   H85       1.0  0.82380  0.42020  0.06190  1.0000 0.1292664153
H   H86       1.0  0.42020  0.06190  0.82380  1.0000 0.1292664153
H   H87       1.0  0.06190  0.82380  0.42020  1.0000 0.1292664153
H   H88       1.0  0.17620  0.93810  0.57980  1.0000 0.1292664153
H   H89       1.0  0.57980  0.17620  0.93810  1.0000 0.1292664153
H   H90       1.0  0.93810  0.57980  0.17620  1.0000 0.1292664153
H   H91       1.0  0.17620  0.57980  0.93810  1.0000 0.1292664153
H   H92       1.0  0.57980  0.93810  0.17620  1.0000 0.1292664153
H   H93       1.0  0.93810  0.17620  0.57980  1.0000 0.1292664153
H   H94       1.0  0.82380  0.06190  0.42020  1.0000 0.1292664153
H   H95       1.0  0.42020  0.82380  0.06190  1.0000 0.1292664153
H   H96       1.0  0.06190  0.42020  0.82380  1.0000 0.1292664153
C   C1        1.0  0.64157  0.12988  0.76795  1.0000 -0.0186566422
C   C2        1.0  0.12988  0.76795  0.64157  1.0000 -0.0186566422
C   C3        1.0  0.76795  0.64157  0.12988  1.0000 -0.0186566422
C   C4        1.0  0.35843  0.23205  0.87012  1.0000 -0.0186566422
C   C5        1.0  0.87012  0.35843  0.23205  1.0000 -0.0186566422
C   C6        1.0  0.23205  0.87012  0.35843  1.0000 -0.0186566422
C   C7        1.0  0.35843  0.87012  0.23205  1.0000 -0.0186566422
C   C8        1.0  0.87012  0.23205  0.35843  1.0000 -0.0186566422
C   C9        1.0  0.23205  0.35843  0.87012  1.0000 -0.0186566422
C   C10       1.0  0.64157  0.76795  0.12988  1.0000 -0.0186566422
C   C11       1.0  0.12988  0.64157  0.76795  1.0000 -0.0186566422
C   C12       1.0  0.76795  0.12988  0.64157  1.0000 -0.0186566422
C   C13       1.0  0.60715  0.05829  0.75156  1.0000 -0.1582066554
C   C14       1.0  0.05829  0.75156  0.60715  1.0000 -0.1582066554
C   C15       1.0  0.75156  0.60715  0.05829  1.0000 -0.1582066554
C   C16       1.0  0.39285  0.24844  0.94171  1.0000 -0.1582066554
C   C17       1.0  0.94171  0.39285  0.24844  1.0000 -0.1582066554
C   C18       1.0  0.24844  0.94171  0.39285  1.0000 -0.1582066554
C   C19       1.0  0.39285  0.94171  0.24844  1.0000 -0.1582066554
C   C20       1.0  0.94171  0.24844  0.39285  1.0000 -0.1582066554
C   C21       1.0  0.24844  0.39285  0.94171  1.0000 -0.1582066554
C   C22       1.0  0.60715  0.75156  0.05829  1.0000 -0.1582066554
C   C23       1.0  0.05829  0.60715  0.75156  1.0000 -0.1582066554
C   C24       1.0  0.75156  0.05829  0.60715  1.0000 -0.1582066554
C   C25       1.0  0.65266  0.10136  0.84298  1.0000 0.1041587646
C   C26       1.0  0.10136  0.84298  0.65266  1.0000 0.1041587646
C   C27       1.0  0.84298  0.65266  0.10136  1.0000 0.1041587646
C   C28       1.0  0.34734  0.15702  0.89864  1.0000 0.1068462946
C   C29       1.0  0.89864  0.34734  0.15702  1.0000 0.1068462946
C   C30       1.0  0.15702  0.89864  0.34734  1.0000 0.1068462946
C   C31       1.0  0.34734  0.89864  0.15702  1.0000 0.1068462946
C   C32       1.0  0.89864  0.15702  0.34734  1.0000 0.1068462946
C   C33       1.0  0.15702  0.34734  0.89864  1.0000 0.1041587646
C   C34       1.0  0.65266  0.84298  0.10136  1.0000 0.1041587646
C   C35       1.0  0.10136  0.65266  0.84298  1.0000 0.1041587646
C   C36       1.0  0.84298  0.10136  0.65266  1.0000 0.1068462946
C   C37       1.0  0.73309  0.21821  0.95050  1.0000 -0.041940865
C   C38       1.0  0.21821  0.95050  0.73309  1.0000 -0.041940865
C   C39       1.0  0.95050  0.73309  0.21821  1.0000 -0.041940865
C   C40       1.0  0.26691  0.04950  0.78179  1.0000 -0.041940865
C   C41       1.0  0.78179  0.26691  0.04950  1.0000 -0.041940865
C   C42       1.0  0.04950  0.78179  0.26691  1.0000 -0.041940865
C   C43       1.0  0.26691  0.78179  0.04950  1.0000 -0.041940865
C   C44       1.0  0.78179  0.04950  0.26691  1.0000 -0.041940865
C   C45       1.0  0.04950  0.26691  0.78179  1.0000 -0.041940865
C   C46       1.0  0.73309  0.95050  0.21821  1.0000 -0.041940865
C   C47       1.0  0.21821  0.73309  0.95050  1.0000 -0.041940865
C   C48       1.0  0.95050  0.21821  0.73309  1.0000 -0.041940865
C   C49       1.0  0.77048  0.29284  0.96958  1.0000 0.092765862
C   C50       1.0  0.29284  0.96958  0.77048  1.0000 0.092765862
C   C51       1.0  0.96958  0.77048  0.29284  1.0000 0.092765862
C   C52       1.0  0.22952  0.03042  0.70716  1.0000 0.092765862
C   C53       1.0  0.70716  0.22952  0.03042  1.0000 0.092765862
C   C54       1.0  0.03042  0.70716  0.22952  1.0000 0.092765862
C   C55       1.0  0.22952  0.70716  0.03042  1.0000 0.092765862
C   C56       1.0  0.70716  0.03042  0.22952  1.0000 0.092765862
C   C57       1.0  0.03042  0.22952  0.70716  1.0000 0.092765862
C   C58       1.0  0.77048  0.96958  0.29284  1.0000 0.092765862
C   C59       1.0  0.29284  0.77048  0.96958  1.0000 0.092765862
C   C60       1.0  0.96958  0.29284  0.77048  1.0000 0.092765862
C   C61       1.0  0.72117  0.24503  0.87560  1.0000 -0.1582066554
C   C62       1.0  0.24503  0.87560  0.72117  1.0000 -0.1582066554
C   C63       1.0  0.87560  0.72117  0.24503  1.0000 -0.1582066554
C   C64       1.0  0.27883  0.12440  0.75497  1.0000 -0.1582066554
C   C65       1.0  0.75497  0.27883  0.12440  1.0000 -0.1546777929
C   C66       1.0  0.12440  0.75497  0.27883  1.0000 -0.1582066554
C   C67       1.0  0.27883  0.75497  0.12440  1.0000 -0.1546777929
C   C68       1.0  0.75497  0.12440  0.27883  1.0000 -0.1582066554
C   C69       1.0  0.12440  0.27883  0.75497  1.0000 -0.1582066554
C   C70       1.0  0.72117  0.87560  0.24503  1.0000 -0.1582066554
C   C71       1.0  0.24503  0.72117  0.87560  1.0000 -0.1582066554
C   C72       1.0  0.87560  0.24503  0.72117  1.0000 -0.1582066554
C   C73       1.0  0.58980  0.08034  0.66766  1.0000 0.5896832749
C   C74       1.0  0.08034  0.66766  0.58980  1.0000 0.5896832749
C   C75       1.0  0.66766  0.58980  0.08034  1.0000 0.5896832749
C   C76       1.0  0.41020  0.33234  0.91966  1.0000 0.5896832749
C   C77       1.0  0.91966  0.41020  0.33234  1.0000 0.5896832749
C   C78       1.0  0.33234  0.91966  0.41020  1.0000 0.5896832749
C   C79       1.0  0.41020  0.91966  0.33234  1.0000 0.5896832749
C   C80       1.0  0.91966  0.33234  0.41020  1.0000 0.5896832749
C   C81       1.0  0.33234  0.41020  0.91966  1.0000 0.5896832749
C   C82       1.0  0.58980  0.66766  0.08034  1.0000 0.5896832749
C   C83       1.0  0.08034  0.58980  0.66766  1.0000 0.5896832749
C   C84       1.0  0.66766  0.08034  0.58980  1.0000 0.5896832749
C   C85       1.0  0.62359  0.02599  0.82682  1.0000 -0.4263527438
C   C86       1.0  0.02599  0.82682  0.62359  1.0000 -0.4263527438
C   C87       1.0  0.82682  0.62359  0.02599  1.0000 -0.4263527438
C   C88       1.0  0.37641  0.17318  0.97401  1.0000 -0.4263527438
C   C89       1.0  0.97401  0.37641  0.17318  1.0000 -0.4263527438
C   C90       1.0  0.17318  0.97401  0.37641  1.0000 -0.4263527438
C   C91       1.0  0.37641  0.97401  0.17318  1.0000 -0.4263527438
C   C92       1.0  0.97401  0.17318  0.37641  1.0000 -0.4263527438
C   C93       1.0  0.17318  0.37641  0.97401  1.0000 -0.4263527438
C   C94       1.0  0.62359  0.82682  0.02599  1.0000 -0.4263527438
C   C95       1.0  0.02599  0.62359  0.82682  1.0000 -0.4263527438
C   C96       1.0  0.82682  0.02599  0.62359  1.0000 -0.4263527438
C   C97       1.0  0.86330  0.41950  0.08550  1.0000 -0.4421308334
C   C98       1.0  0.41950  0.08550  0.86330  1.0000 -0.4421308334
C   C99       1.0  0.08550  0.86330  0.41950  1.0000 -0.4421308334
C   C100      1.0  0.13670  0.91450  0.58050  1.0000 -0.4421308334
C   C101      1.0  0.58050  0.13670  0.91450  1.0000 -0.4421308334
C   C102      1.0  0.91450  0.58050  0.13670  1.0000 -0.4421308334
C   C103      1.0  0.13670  0.58050  0.91450  1.0000 -0.4421308334
C   C104      1.0  0.58050  0.91450  0.13670  1.0000 -0.4421308334
C   C105      1.0  0.91450  0.13670  0.58050  1.0000 -0.4421308334
C   C106      1.0  0.86330  0.08550  0.41950  1.0000 -0.4421308334
C   C107      1.0  0.41950  0.86330  0.08550  1.0000 -0.4421308334
C   C108      1.0  0.08550  0.41950  0.86330  1.0000 -0.4421308334
O   O1        1.0  0.63703  0.15823  0.69704  1.0000 -0.5225034649
O   O2        1.0  0.15823  0.69704  0.63703  1.0000 -0.5225034649
O   O3        1.0  0.69704  0.63703  0.15823  1.0000 -0.5225034649
O   O4        1.0  0.36297  0.30296  0.84177  1.0000 -0.5225034649
O   O5        1.0  0.84177  0.36297  0.30296  1.0000 -0.5225034649
O   O6        1.0  0.30296  0.84177  0.36297  1.0000 -0.5225034649
O   O7        1.0  0.36297  0.84177  0.30296  1.0000 -0.5225034649
O   O8        1.0  0.84177  0.30296  0.36297  1.0000 -0.5225034649
O   O9        1.0  0.30296  0.36297  0.84177  1.0000 -0.5225034649
O   O10       1.0  0.63703  0.69704  0.15823  1.0000 -0.5225034649
O   O11       1.0  0.15823  0.63703  0.69704  1.0000 -0.5225034649
O   O12       1.0  0.69704  0.15823  0.63703  1.0000 -0.5225034649
O   O13       1.0  0.50329  0.96559  0.56265  1.0000 -0.5073843991
O   O14       1.0  0.96559  0.56265  0.50329  1.0000 -0.5073843991
O   O15       1.0  0.56265  0.50329  0.96559  1.0000 -0.5073843991
O   O16       1.0  0.49671  0.43735  0.03441  1.0000 -0.5073843991
O   O17       1.0  0.03441  0.49671  0.43735  1.0000 -0.5073843991
O   O18       1.0  0.43735  0.03441  0.49671  1.0000 -0.5073843991
O   O19       1.0  0.49671  0.03441  0.43735  1.0000 -0.5073843991
O   O20       1.0  0.03441  0.43735  0.49671  1.0000 -0.5073843991
O   O21       1.0  0.43735  0.49671  0.03441  1.0000 -0.5073843991
O   O22       1.0  0.50329  0.56265  0.96559  1.0000 -0.5073843991
O   O23       1.0  0.96559  0.50329  0.56265  1.0000 -0.5073843991
O   O24       1.0  0.56265  0.96559  0.50329  1.0000 -0.5073843991
