# DDEC6 charges by PACMAN v1.1 (https://github.com/mtap-research/PACMAN-charge/)
data_2008[Ni][nan]3[ASR]1
_chemical_formula_sum              "Ni8 H88 C96 N16 O32"
_cell_length_a       9.892
_cell_length_b       10.446
_cell_length_c       27.837
_cell_angle_alpha    90
_cell_angle_beta     90
_cell_angle_gamma    90

_symmetry_space_group_name_H-M    "P 1"
_symmetry_Int_Tables_number       1

loop_
  _symmetry_equiv_pos_as_xyz
  'x, y, z'

loop_
  _atom_site_type_symbol
  _atom_site_label
  _atom_site_symmetry_multiplicity
  _atom_site_fract_x
  _atom_site_fract_y
  _atom_site_fract_z
  _atom_site_occupancy
  _atom_site_charge
Ni  Ni1       1.0  0.15539  0.52130  0.72340  1.0000 0.7946252058
Ni  Ni2       1.0  0.84461  0.52130  0.27660  1.0000 0.7946252058
Ni  Ni3       1.0  0.34461  0.47870  0.22340  1.0000 0.7946252058
Ni  Ni4       1.0  0.65539  0.47870  0.77660  1.0000 0.7946252058
Ni  Ni5       1.0  0.16436  0.00942  0.78181  1.0000 0.7717663775
Ni  Ni6       1.0  0.83564  0.00942  0.21819  1.0000 0.7717663775
Ni  Ni7       1.0  0.33564  0.99058  0.28181  1.0000 0.7717663775
Ni  Ni8       1.0  0.66436  0.99058  0.71819  1.0000 0.7717663775
H   H1        1.0  0.21970  0.86910  0.71090  1.0000 0.289338056
H   H2        1.0  0.78030  0.86910  0.28910  1.0000 0.289338056
H   H3        1.0  0.28030  0.13090  0.21090  1.0000 0.289338056
H   H4        1.0  0.71970  0.13090  0.78910  1.0000 0.289338056
H   H5        1.0  0.28660  0.99560  0.70260  1.0000 0.289338056
H   H6        1.0  0.71340  0.99560  0.29740  1.0000 0.289338056
H   H7        1.0  0.21340  0.00440  0.20260  1.0000 0.289338056
H   H8        1.0  0.78660  0.00440  0.79740  1.0000 0.289338056
H   H9        1.0  0.32640  0.48580  0.78930  1.0000 0.289338056
H   H10       1.0  0.67360  0.48580  0.21070  1.0000 0.289338056
H   H11       1.0  0.17360  0.51420  0.28930  1.0000 0.289338056
H   H12       1.0  0.82640  0.51420  0.71070  1.0000 0.289338056
H   H13       1.0  0.20260  0.41120  0.80230  1.0000 0.289338056
H   H14       1.0  0.79740  0.41120  0.19770  1.0000 0.289338056
H   H15       1.0  0.29740  0.58880  0.30230  1.0000 0.289338056
H   H16       1.0  0.70260  0.58880  0.69770  1.0000 0.289338056
H   H17       1.0  0.12410  0.45650  0.61700  1.0000 0.1114178672
H   H18       1.0  0.87590  0.45650  0.38300  1.0000 0.1114178672
H   H19       1.0  0.37590  0.54350  0.11700  1.0000 0.1114178672
H   H20       1.0  0.62410  0.54350  0.88300  1.0000 0.1114178672
H   H21       1.0  0.00430  0.51710  0.55100  1.0000 0.1201886907
H   H22       1.0  0.99570  0.51710  0.44900  1.0000 0.1201886907
H   H23       1.0  0.49570  0.48290  0.05100  1.0000 0.1201886907
H   H24       1.0  0.50430  0.48290  0.94900  1.0000 0.1201886907
H   H25       1.0  0.84430  0.80760  0.62910  1.0000 0.1306195761
H   H26       1.0  0.15570  0.80760  0.37090  1.0000 0.1306195761
H   H27       1.0  0.65570  0.19240  0.12910  1.0000 0.1306195761
H   H28       1.0  0.34430  0.19240  0.87090  1.0000 0.1306195761
H   H29       1.0  0.96930  0.73200  0.69360  1.0000 0.1201886907
H   H30       1.0  0.03070  0.73200  0.30640  1.0000 0.1201886907
H   H31       1.0  0.53070  0.26800  0.19360  1.0000 0.1201886907
H   H32       1.0  0.46930  0.26800  0.80640  1.0000 0.1201886907
H   H33       1.0  0.76360  0.53640  0.51810  1.0000 0.1201886907
H   H34       1.0  0.23640  0.53640  0.48190  1.0000 0.1201886907
H   H35       1.0  0.73640  0.46360  0.01810  1.0000 0.1201886907
H   H36       1.0  0.26360  0.46360  0.98190  1.0000 0.1201886907
H   H37       1.0  0.63080  0.60850  0.45500  1.0000 0.1201886907
H   H38       1.0  0.36920  0.60850  0.54500  1.0000 0.1201886907
H   H39       1.0  0.86920  0.39150  0.95500  1.0000 0.1201886907
H   H40       1.0  0.13080  0.39150  0.04500  1.0000 0.1201886907
H   H41       1.0  0.73870  0.96900  0.48220  1.0000 0.1201886907
H   H42       1.0  0.26130  0.96900  0.51780  1.0000 0.1201886907
H   H43       1.0  0.76130  0.03100  0.98220  1.0000 0.1201886907
H   H44       1.0  0.23870  0.03100  0.01780  1.0000 0.1201886907
H   H45       1.0  0.85500  0.90070  0.54980  1.0000 0.1201886907
H   H46       1.0  0.14500  0.90070  0.45020  1.0000 0.1201886907
H   H47       1.0  0.64500  0.09930  0.04980  1.0000 0.1201886907
H   H48       1.0  0.35500  0.09930  0.95020  1.0000 0.1201886907
H   H49       1.0  0.63660  0.69830  0.37470  1.0000 0.1380094109
H   H50       1.0  0.36340  0.69830  0.62530  1.0000 0.1380094109
H   H51       1.0  0.86340  0.30170  0.87470  1.0000 0.1380094109
H   H52       1.0  0.13660  0.30170  0.12530  1.0000 0.1380094109
H   H53       1.0  0.50800  0.76660  0.31190  1.0000 0.1201886907
H   H54       1.0  0.49200  0.76660  0.68810  1.0000 0.1201886907
H   H55       1.0  0.99200  0.23340  0.81190  1.0000 0.1201886907
H   H56       1.0  0.00800  0.23340  0.18810  1.0000 0.1201886907
H   H57       1.0  0.38080  0.05880  0.38640  1.0000 0.1114178672
H   H58       1.0  0.61920  0.05880  0.61360  1.0000 0.1114178672
H   H59       1.0  0.11920  0.94120  0.88640  1.0000 0.1114178672
H   H60       1.0  0.88080  0.94120  0.11360  1.0000 0.1114178672
H   H61       1.0  0.51010  0.99730  0.45060  1.0000 0.1201886907
H   H62       1.0  0.48990  0.99730  0.54940  1.0000 0.1201886907
H   H63       1.0  0.98990  0.00270  0.95060  1.0000 0.1201886907
H   H64       1.0  0.01010  0.00270  0.04940  1.0000 0.1201886907
H   H65       1.0  0.02620  0.16560  0.65330  1.0000 0.1380094109
H   H66       1.0  0.97380  0.16560  0.34670  1.0000 0.1380094109
H   H67       1.0  0.47380  0.83440  0.15330  1.0000 0.1380094109
H   H68       1.0  0.52620  0.83440  0.84670  1.0000 0.1380094109
H   H69       1.0  0.18620  0.14970  0.65050  1.0000 0.1380094109
H   H70       1.0  0.81380  0.14970  0.34950  1.0000 0.1380094109
H   H71       1.0  0.31380  0.85030  0.15050  1.0000 0.1380094109
H   H72       1.0  0.68620  0.85030  0.84950  1.0000 0.1380094109
H   H73       1.0  0.08850  0.94660  0.65390  1.0000 0.0824044924
H   H74       1.0  0.91150  0.94660  0.34610  1.0000 0.0824044924
H   H75       1.0  0.41150  0.05340  0.15390  1.0000 0.0824044924
H   H76       1.0  0.58850  0.05340  0.84610  1.0000 0.0824044924
H   H77       1.0  0.25070  0.60600  0.84840  1.0000 0.0943800639
H   H78       1.0  0.74930  0.60600  0.15160  1.0000 0.0943800639
H   H79       1.0  0.24930  0.39400  0.34840  1.0000 0.0943800639
H   H80       1.0  0.75070  0.39400  0.65160  1.0000 0.0943800639
H   H81       1.0  0.05200  0.49850  0.86360  1.0000 0.1306195761
H   H82       1.0  0.94800  0.49850  0.13640  1.0000 0.1306195761
H   H83       1.0  0.44800  0.50150  0.36360  1.0000 0.1306195761
H   H84       1.0  0.55200  0.50150  0.63640  1.0000 0.1306195761
H   H85       1.0  0.01510  0.64650  0.85760  1.0000 0.1471802722
H   H86       1.0  0.98490  0.64650  0.14240  1.0000 0.1471802722
H   H87       1.0  0.48490  0.35350  0.35760  1.0000 0.1471802722
H   H88       1.0  0.51510  0.35350  0.64240  1.0000 0.1471802722
C   C1        1.0  0.06610  0.52870  0.61952  1.0000 0.0824044924
C   C2        1.0  0.93390  0.52870  0.38048  1.0000 0.0824044924
C   C3        1.0  0.43390  0.47130  0.11952  1.0000 0.0824044924
C   C4        1.0  0.56610  0.47130  0.88048  1.0000 0.0824044924
C   C5        1.0  0.99490  0.56360  0.58014  1.0000 -0.2076756079
C   C6        1.0  0.00510  0.56360  0.41986  1.0000 -0.2076756079
C   C7        1.0  0.50510  0.43640  0.08014  1.0000 -0.2076756079
C   C8        1.0  0.49490  0.43640  0.91986  1.0000 -0.2076756079
C   C9        1.0  0.90760  0.66830  0.58266  1.0000 0.1114178672
C   C10       1.0  0.09240  0.66830  0.41734  1.0000 0.1114178672
C   C11       1.0  0.59240  0.33170  0.08266  1.0000 0.1114178672
C   C12       1.0  0.40760  0.33170  0.91734  1.0000 0.1114178672
C   C13       1.0  0.90000  0.73410  0.62570  1.0000 -0.1940168609
C   C14       1.0  0.10000  0.73410  0.37430  1.0000 -0.1940168609
C   C15       1.0  0.60000  0.26590  0.12570  1.0000 -0.1940168609
C   C16       1.0  0.40000  0.26590  0.87430  1.0000 -0.1940168609
C   C17       1.0  0.97660  0.68880  0.66366  1.0000 0.0663588838
C   C18       1.0  0.02340  0.68880  0.33634  1.0000 0.0663588838
C   C19       1.0  0.52340  0.31120  0.16366  1.0000 0.0663588838
C   C20       1.0  0.47660  0.31120  0.83634  1.0000 0.0663588838
C   C21       1.0  0.83010  0.71410  0.54064  1.0000 0.0597798023
C   C22       1.0  0.16990  0.71410  0.45936  1.0000 0.0597798023
C   C23       1.0  0.66990  0.28590  0.04064  1.0000 0.0597798023
C   C24       1.0  0.33010  0.28590  0.95936  1.0000 0.0597798023
C   C25       1.0  0.75850  0.62540  0.51139  1.0000 -0.1558904965
C   C26       1.0  0.24150  0.62540  0.48861  1.0000 -0.1558904965
C   C27       1.0  0.74150  0.37460  0.01139  1.0000 -0.1558904965
C   C28       1.0  0.25850  0.37460  0.98861  1.0000 -0.1558904965
C   C29       1.0  0.68150  0.66830  0.47332  1.0000 -0.1419672761
C   C30       1.0  0.31850  0.66830  0.52668  1.0000 -0.1419672761
C   C31       1.0  0.81850  0.33170  0.97332  1.0000 -0.1419672761
C   C32       1.0  0.18150  0.33170  0.02668  1.0000 -0.1419672761
C   C33       1.0  0.67680  0.79400  0.46157  1.0000 0.0597798023
C   C34       1.0  0.32320  0.79400  0.53843  1.0000 0.0597798023
C   C35       1.0  0.82320  0.20600  0.96157  1.0000 0.0597798023
C   C36       1.0  0.17680  0.20600  0.03843  1.0000 0.0597798023
C   C37       1.0  0.74240  0.88030  0.48973  1.0000 -0.1504851449
C   C38       1.0  0.25760  0.88030  0.51027  1.0000 -0.1504851449
C   C39       1.0  0.75760  0.11970  0.98973  1.0000 -0.1504851449
C   C40       1.0  0.24240  0.11970  0.01027  1.0000 -0.1504851449
C   C41       1.0  0.81460  0.83850  0.52945  1.0000 -0.1419672761
C   C42       1.0  0.18540  0.83850  0.47055  1.0000 -0.1419672761
C   C43       1.0  0.68540  0.16150  0.02945  1.0000 -0.1419672761
C   C44       1.0  0.31460  0.16150  0.97055  1.0000 -0.1419672761
C   C45       1.0  0.59230  0.83650  0.42084  1.0000 0.1114178672
C   C46       1.0  0.40770  0.83650  0.57916  1.0000 0.1114178672
C   C47       1.0  0.90770  0.16350  0.92084  1.0000 0.1114178672
C   C48       1.0  0.09230  0.16350  0.07916  1.0000 0.1114178672
C   C49       1.0  0.58490  0.77430  0.37859  1.0000 -0.2008867146
C   C50       1.0  0.41510  0.77430  0.62141  1.0000 -0.2008867146
C   C51       1.0  0.91510  0.22570  0.87859  1.0000 -0.2008867146
C   C52       1.0  0.08490  0.22570  0.12141  1.0000 -0.2008867146
C   C53       1.0  0.50710  0.81460  0.34092  1.0000 0.0663588838
C   C54       1.0  0.49290  0.81460  0.65908  1.0000 0.0663588838
C   C55       1.0  0.99290  0.18540  0.84092  1.0000 0.0663588838
C   C56       1.0  0.00710  0.18540  0.15908  1.0000 0.0663588838
C   C57       1.0  0.43390  0.98330  0.38373  1.0000 0.0824044924
C   C58       1.0  0.56610  0.98330  0.61627  1.0000 0.0824044924
C   C59       1.0  0.06610  0.01670  0.88373  1.0000 0.0824044924
C   C60       1.0  0.93390  0.01670  0.11627  1.0000 0.0824044924
C   C61       1.0  0.51130  0.94670  0.42227  1.0000 -0.2269841452
C   C62       1.0  0.48870  0.94670  0.57773  1.0000 -0.2269841452
C   C63       1.0  0.98870  0.05330  0.92227  1.0000 -0.2269841452
C   C64       1.0  0.01130  0.05330  0.07773  1.0000 -0.2269841452
C   C65       1.0  0.12280  0.23200  0.71280  1.0000 0.6369976978
C   C66       1.0  0.87720  0.23200  0.28720  1.0000 0.6369976978
C   C67       1.0  0.37720  0.76800  0.21280  1.0000 0.6369976978
C   C68       1.0  0.62280  0.76800  0.78720  1.0000 0.6369976978
C   C69       1.0  0.10690  0.13990  0.67193  1.0000 -0.390020134
C   C70       1.0  0.89310  0.13990  0.32807  1.0000 -0.390020134
C   C71       1.0  0.39310  0.86010  0.17193  1.0000 -0.390020134
C   C72       1.0  0.60690  0.86010  0.82807  1.0000 -0.390020134
C   C73       1.0  0.09280  0.99790  0.68422  1.0000 0.0425360542
C   C74       1.0  0.90720  0.99790  0.31578  1.0000 0.0425360542
C   C75       1.0  0.40720  0.00210  0.18422  1.0000 0.0425360542
C   C76       1.0  0.59280  0.00210  0.81578  1.0000 0.0425360542
C   C77       1.0  0.96220  0.97880  0.71298  1.0000 0.5527499299
C   C78       1.0  0.03780  0.97880  0.28702  1.0000 0.5527499299
C   C79       1.0  0.53780  0.02120  0.21298  1.0000 0.5527499299
C   C80       1.0  0.46220  0.02120  0.78702  1.0000 0.5527499299
C   C81       1.0  0.18730  0.71700  0.79073  1.0000 0.5718933325
C   C82       1.0  0.81270  0.71700  0.20927  1.0000 0.5718933325
C   C83       1.0  0.31270  0.28300  0.29073  1.0000 0.5718933325
C   C84       1.0  0.68730  0.28300  0.70927  1.0000 0.5718933325
C   C85       1.0  0.18680  0.59530  0.82088  1.0000 0.0425360542
C   C86       1.0  0.81320  0.59530  0.17912  1.0000 0.0425360542
C   C87       1.0  0.31320  0.40470  0.32088  1.0000 0.0425360542
C   C88       1.0  0.68680  0.40470  0.67912  1.0000 0.0425360542
C   C89       1.0  0.04660  0.56950  0.84017  1.0000 -0.390020134
C   C90       1.0  0.95340  0.56950  0.15983  1.0000 -0.390020134
C   C91       1.0  0.45340  0.43050  0.34017  1.0000 -0.390020134
C   C92       1.0  0.54660  0.43050  0.65983  1.0000 -0.390020134
C   C93       1.0  0.94220  0.53530  0.80231  1.0000 0.6369976978
C   C94       1.0  0.05780  0.53530  0.19769  1.0000 0.6369976978
C   C95       1.0  0.55780  0.46470  0.30231  1.0000 0.6369976978
C   C96       1.0  0.44220  0.46470  0.69769  1.0000 0.6369976978
N   N1        1.0  0.20860  0.95637  0.71294  1.0000 -0.589276867
N   N2        1.0  0.79140  0.95637  0.28706  1.0000 -0.589276867
N   N3        1.0  0.29140  0.04363  0.21294  1.0000 -0.589276867
N   N4        1.0  0.70860  0.04363  0.78706  1.0000 -0.589276867
N   N5        1.0  0.23340  0.48805  0.79037  1.0000 -0.589276867
N   N6        1.0  0.76660  0.48805  0.20963  1.0000 -0.589276867
N   N7        1.0  0.26660  0.51195  0.29037  1.0000 -0.589276867
N   N8        1.0  0.73340  0.51195  0.70963  1.0000 -0.589276867
N   N9        1.0  0.06010  0.58882  0.66120  1.0000 -0.2008867146
N   N10       1.0  0.93990  0.58882  0.33880  1.0000 -0.2008867146
N   N11       1.0  0.43990  0.41118  0.16120  1.0000 -0.2008867146
N   N12       1.0  0.56010  0.41118  0.83880  1.0000 -0.2008867146
N   N13       1.0  0.43000  0.91880  0.34351  1.0000 -0.2008867146
N   N14       1.0  0.57000  0.91880  0.65649  1.0000 -0.2008867146
N   N15       1.0  0.07000  0.08120  0.84351  1.0000 -0.2008867146
N   N16       1.0  0.93000  0.08120  0.15649  1.0000 -0.2008867146
O   O1        1.0  0.15650  0.19756  0.75374  1.0000 -0.5295862922
O   O2        1.0  0.84350  0.19756  0.24626  1.0000 -0.5295862922
O   O3        1.0  0.34350  0.80244  0.25374  1.0000 -0.5295862922
O   O4        1.0  0.65650  0.80244  0.74626  1.0000 -0.5295862922
O   O5        1.0  0.10000  0.34417  0.70045  1.0000 -0.5497294683
O   O6        1.0  0.90000  0.34417  0.29955  1.0000 -0.5497294683
O   O7        1.0  0.40000  0.65583  0.20045  1.0000 -0.5497294683
O   O8        1.0  0.60000  0.65583  0.79955  1.0000 -0.5497294683
O   O9        1.0  0.97198  0.97401  0.75749  1.0000 -0.5052687694
O   O10       1.0  0.02802  0.97401  0.24251  1.0000 -0.5052687694
O   O11       1.0  0.52802  0.02599  0.25749  1.0000 -0.5052687694
O   O12       1.0  0.47198  0.02599  0.74251  1.0000 -0.5052687694
O   O13       1.0  0.85589  0.97352  0.68951  1.0000 -0.5216065068
O   O14       1.0  0.14411  0.97352  0.31049  1.0000 -0.5216065068
O   O15       1.0  0.64411  0.02648  0.18951  1.0000 -0.5216065068
O   O16       1.0  0.35589  0.02648  0.81049  1.0000 -0.5216065068
O   O17       1.0  0.17290  0.82076  0.81191  1.0000 -0.5295862922
O   O18       1.0  0.82710  0.82076  0.18809  1.0000 -0.5295862922
O   O19       1.0  0.32710  0.17924  0.31191  1.0000 -0.5295862922
O   O20       1.0  0.67290  0.17924  0.68809  1.0000 -0.5295862922
O   O21       1.0  0.20287  0.70402  0.74605  1.0000 -0.5216065068
O   O22       1.0  0.79713  0.70402  0.25395  1.0000 -0.5216065068
O   O23       1.0  0.29713  0.29598  0.24605  1.0000 -0.5216065068
O   O24       1.0  0.70287  0.29598  0.75395  1.0000 -0.5216065068
O   O25       1.0  0.97176  0.54510  0.75891  1.0000 -0.5295862922
O   O26       1.0  0.02824  0.54510  0.24109  1.0000 -0.5295862922
O   O27       1.0  0.52824  0.45490  0.25891  1.0000 -0.5295862922
O   O28       1.0  0.47176  0.45490  0.74109  1.0000 -0.5295862922
O   O29       1.0  0.82774  0.50260  0.81758  1.0000 -0.5637430568
O   O30       1.0  0.17226  0.50260  0.18242  1.0000 -0.5637430568
O   O31       1.0  0.67226  0.49740  0.31758  1.0000 -0.5637430568
O   O32       1.0  0.32774  0.49740  0.68242  1.0000 -0.5637430568
