# DDEC6 charges by PACMAN v1.1 (https://github.com/mtap-research/PACMAN-charge/)
data_2008[Ni][fsc]3[ASR]1
_chemical_formula_sum              "Ni8 H32 C44 N4 O28"
_cell_length_a       13.4336
_cell_length_b       11.077
_cell_length_c       14.8156
_cell_angle_alpha    90
_cell_angle_beta     99.046
_cell_angle_gamma    90

_symmetry_space_group_name_H-M    "P 1"
_symmetry_Int_Tables_number       1

loop_
  _symmetry_equiv_pos_as_xyz
  'x, y, z'

loop_
  _atom_site_type_symbol
  _atom_site_label
  _atom_site_symmetry_multiplicity
  _atom_site_fract_x
  _atom_site_fract_y
  _atom_site_fract_z
  _atom_site_occupancy
  _atom_site_charge
Ni  Ni1       1.0  0.88825  0.99863  0.95653  1.0000 0.9711389564
Ni  Ni2       1.0  0.61175  0.49863  0.04347  1.0000 0.9711389564
Ni  Ni3       1.0  0.11175  0.00137  0.04347  1.0000 0.9711389564
Ni  Ni4       1.0  0.38825  0.50137  0.95653  1.0000 0.9711389564
Ni  Ni5       1.0  0.09248  0.14819  0.86488  1.0000 0.8248271369
Ni  Ni6       1.0  0.40752  0.64819  0.13512  1.0000 0.8248271369
Ni  Ni7       1.0  0.90752  0.85181  0.13512  1.0000 0.8248271369
Ni  Ni8       1.0  0.59248  0.35181  0.86488  1.0000 0.8248271369
H   H1        1.0  0.96250  0.06210  0.11430  1.0000 0.3941483818
H   H2        1.0  0.53750  0.56210  0.88570  1.0000 0.3941483818
H   H3        1.0  0.03750  0.93790  0.88570  1.0000 0.3941483818
H   H4        1.0  0.46250  0.43790  0.11430  1.0000 0.3941483818
H   H5        1.0  0.92740  0.36600  0.04710  1.0000 0.1214051194
H   H6        1.0  0.57260  0.86600  0.95290  1.0000 0.1214051194
H   H7        1.0  0.07260  0.63400  0.95290  1.0000 0.1214051194
H   H8        1.0  0.42740  0.13400  0.04710  1.0000 0.1214051194
H   H9        1.0  0.09000  0.39750  0.94690  1.0000 0.1140450187
H   H10       1.0  0.41000  0.89750  0.05310  1.0000 0.1140450187
H   H11       1.0  0.91000  0.60250  0.05310  1.0000 0.1140450187
H   H12       1.0  0.59000  0.10250  0.94690  1.0000 0.1140450187
H   H13       1.0  0.91180  0.49730  0.87810  1.0000 0.1214051194
H   H14       1.0  0.58820  0.99730  0.12190  1.0000 0.1214051194
H   H15       1.0  0.08820  0.50270  0.12190  1.0000 0.1214051194
H   H16       1.0  0.41180  0.00270  0.87810  1.0000 0.1214051194
H   H17       1.0  0.19310  0.10430  0.70050  1.0000 0.1283276625
H   H18       1.0  0.30690  0.60430  0.29950  1.0000 0.1283276625
H   H19       1.0  0.80690  0.89570  0.29950  1.0000 0.1283276625
H   H20       1.0  0.69310  0.39570  0.70050  1.0000 0.1283276625
H   H21       1.0  0.15740  0.05550  0.55100  1.0000 0.1367293768
H   H22       1.0  0.34260  0.55550  0.44900  1.0000 0.1367293768
H   H23       1.0  0.84260  0.94450  0.44900  1.0000 0.1367293768
H   H24       1.0  0.65740  0.44450  0.55100  1.0000 0.1367293768
H   H25       1.0  0.87630  0.00870  0.58200  1.0000 0.1367293768
H   H26       1.0  0.62370  0.50870  0.41800  1.0000 0.1367293768
H   H27       1.0  0.12370  0.99130  0.41800  1.0000 0.1367293768
H   H28       1.0  0.37630  0.49130  0.58200  1.0000 0.1367293768
H   H29       1.0  0.91840  0.07170  0.72920  1.0000 0.1283276625
H   H30       1.0  0.58160  0.57170  0.27080  1.0000 0.1283276625
H   H31       1.0  0.08160  0.92830  0.27080  1.0000 0.1283276625
H   H32       1.0  0.41840  0.42830  0.72920  1.0000 0.1283276625
C   C1        1.0  0.95100  0.37820  0.98850  1.0000 -0.1378594056
C   C2        1.0  0.54900  0.87820  0.01150  1.0000 -0.1378594056
C   C3        1.0  0.04900  0.62180  0.01150  1.0000 -0.1378594056
C   C4        1.0  0.45100  0.12180  0.98850  1.0000 -0.1378594056
C   C5        1.0  0.06670  0.39380  0.00630  1.0000 -0.1478021942
C   C6        1.0  0.43330  0.89380  0.99370  1.0000 -0.1478021942
C   C7        1.0  0.93330  0.60620  0.99370  1.0000 -0.1478021942
C   C8        1.0  0.56670  0.10620  0.00630  1.0000 -0.1478021942
C   C9        1.0  0.89810  0.49150  0.94100  1.0000 -0.1378594056
C   C10       1.0  0.60190  0.99150  0.05900  1.0000 -0.1378594056
C   C11       1.0  0.10190  0.50850  0.05900  1.0000 -0.1378594056
C   C12       1.0  0.39810  0.00850  0.94100  1.0000 -0.1378594056
C   C13       1.0  0.92610  0.26440  0.92900  1.0000 0.6114082061
C   C14       1.0  0.57390  0.76440  0.07100  1.0000 0.6114082061
C   C15       1.0  0.07390  0.73560  0.07100  1.0000 0.6114082061
C   C16       1.0  0.42610  0.23560  0.92900  1.0000 0.6114082061
C   C17       1.0  0.11130  0.28080  0.05560  1.0000 0.6114082061
C   C18       1.0  0.38870  0.78080  0.94440  1.0000 0.6114082061
C   C19       1.0  0.88870  0.71920  0.94440  1.0000 0.6114082061
C   C20       1.0  0.61130  0.21920  0.05560  1.0000 0.6114082061
C   C21       1.0  0.78500  0.47550  0.94090  1.0000 0.6193840526
C   C22       1.0  0.71500  0.97550  0.05910  1.0000 0.6193840526
C   C23       1.0  0.21500  0.52450  0.05910  1.0000 0.6193840526
C   C24       1.0  0.28500  0.02450  0.94090  1.0000 0.6193840526
C   C25       1.0  0.12640  0.08760  0.67600  1.0000 0.0716422073
C   C26       1.0  0.37360  0.58760  0.32400  1.0000 0.0716422073
C   C27       1.0  0.87360  0.91240  0.32400  1.0000 0.0716422073
C   C28       1.0  0.62640  0.41240  0.67600  1.0000 0.0716422073
C   C29       1.0  0.10610  0.05460  0.58640  1.0000 -0.2097341471
C   C30       1.0  0.39390  0.55460  0.41360  1.0000 -0.2097341471
C   C31       1.0  0.89390  0.94540  0.41360  1.0000 -0.2097341471
C   C32       1.0  0.60610  0.44540  0.58640  1.0000 -0.2097341471
C   C33       1.0  0.01180  0.02050  0.54830  1.0000 0.0997672206
C   C34       1.0  0.48820  0.52050  0.45170  1.0000 0.0997672206
C   C35       1.0  0.98820  0.97950  0.45170  1.0000 0.0997672206
C   C36       1.0  0.51180  0.47950  0.54830  1.0000 0.0997672206
C   C37       1.0  0.94290  0.02890  0.60370  1.0000 -0.2097341471
C   C38       1.0  0.55710  0.52890  0.39630  1.0000 -0.2097341471
C   C39       1.0  0.05710  0.97110  0.39630  1.0000 -0.2097341471
C   C40       1.0  0.44290  0.47110  0.60370  1.0000 -0.2097341471
C   C41       1.0  0.96910  0.06730  0.69320  1.0000 0.0997672206
C   C42       1.0  0.53090  0.56730  0.30680  1.0000 0.0997672206
C   C43       1.0  0.03090  0.93270  0.30680  1.0000 0.0997672206
C   C44       1.0  0.46910  0.43270  0.69320  1.0000 0.0997672206
N   N1        1.0  0.05860  0.09720  0.72970  1.0000 -0.2214550391
N   N2        1.0  0.44140  0.59720  0.27030  1.0000 -0.2214550391
N   N3        1.0  0.94140  0.90280  0.27030  1.0000 -0.2214550391
N   N4        1.0  0.55860  0.40280  0.72970  1.0000 -0.2214550391
O   O1        1.0  0.87320  0.18570  0.95890  1.0000 -0.5417257078
O   O2        1.0  0.62680  0.68570  0.04110  1.0000 -0.5417257078
O   O3        1.0  0.12680  0.81430  0.04110  1.0000 -0.5417257078
O   O4        1.0  0.37320  0.31430  0.95890  1.0000 -0.5417257078
O   O5        1.0  0.96220  0.25600  0.85540  1.0000 -0.5663452126
O   O6        1.0  0.53780  0.75600  0.14460  1.0000 -0.5663452126
O   O7        1.0  0.03780  0.74400  0.14460  1.0000 -0.5663452126
O   O8        1.0  0.46220  0.24400  0.85540  1.0000 -0.5663452126
O   O9        1.0  0.11300  0.18650  0.00650  1.0000 -0.5864887811
O   O10       1.0  0.38700  0.68650  0.99350  1.0000 -0.5864887811
O   O11       1.0  0.88700  0.81350  0.99350  1.0000 -0.5864887811
O   O12       1.0  0.61300  0.31350  0.00650  1.0000 -0.5864887811
O   O13       1.0  0.14100  0.28200  0.13880  1.0000 -0.5078598238
O   O14       1.0  0.35900  0.78200  0.86120  1.0000 -0.5078598238
O   O15       1.0  0.85900  0.71800  0.86120  1.0000 -0.5078598238
O   O16       1.0  0.64100  0.21800  0.13880  1.0000 -0.5078598238
O   O17       1.0  0.73450  0.42590  0.87280  1.0000 -0.5517203338
O   O18       1.0  0.76550  0.92590  0.12720  1.0000 -0.5517203338
O   O19       1.0  0.26550  0.57410  0.12720  1.0000 -0.5517203338
O   O20       1.0  0.23450  0.07410  0.87280  1.0000 -0.5517203338
O   O21       1.0  0.75170  0.50940  0.01050  1.0000 -0.5315253712
O   O22       1.0  0.74830  0.00940  0.98950  1.0000 -0.5315253712
O   O23       1.0  0.24830  0.49060  0.98950  1.0000 -0.5315253712
O   O24       1.0  0.25170  0.99060  0.01050  1.0000 -0.5315253712
O   O25       1.0  0.97250  0.99840  0.08500  1.0000 -0.8403513558
O   O26       1.0  0.52750  0.49840  0.91500  1.0000 -0.8403513558
O   O27       1.0  0.02750  0.00160  0.91500  1.0000 -0.8403513558
O   O28       1.0  0.47250  0.50160  0.08500  1.0000 -0.8403513558
