# DDEC6 charges by PACMAN v1.1 (https://github.com/mtap-research/PACMAN-charge/)
data_2008[Zn][nan]3[ASR]1
_chemical_formula_sum              "Zn8 H56 C72 N8 O40"
_cell_length_a       14.3218
_cell_length_b       14.3218
_cell_length_c       16.9792
_cell_angle_alpha    81.341
_cell_angle_beta     98.659
_cell_angle_gamma    142.221

_symmetry_space_group_name_H-M    "P 1"
_symmetry_Int_Tables_number       1

loop_
  _symmetry_equiv_pos_as_xyz
  'x, y, z'

loop_
  _atom_site_type_symbol
  _atom_site_label
  _atom_site_symmetry_multiplicity
  _atom_site_fract_x
  _atom_site_fract_y
  _atom_site_fract_z
  _atom_site_occupancy
  _atom_site_charge
Zn  Zn1       1.0  0.37585  0.02965  0.34233  1.0000 0.7693337589
Zn  Zn2       1.0  0.02965  0.37585  0.15767  1.0000 0.7693337589
Zn  Zn3       1.0  0.62415  0.97035  0.65767  1.0000 0.7693337589
Zn  Zn4       1.0  0.97035  0.62415  0.84233  1.0000 0.7693337589
Zn  Zn5       1.0  0.77868  0.43394  0.54949  1.0000 0.850945273
Zn  Zn6       1.0  0.43394  0.77868  0.95051  1.0000 0.850945273
Zn  Zn7       1.0  0.22132  0.56606  0.45051  1.0000 0.850945273
Zn  Zn8       1.0  0.56606  0.22132  0.04949  1.0000 0.850945273
H   H1        1.0  0.10730  0.85150  0.36770  1.0000 0.3304271191
H   H2        1.0  0.85150  0.10730  0.13230  1.0000 0.3304271191
H   H3        1.0  0.89270  0.14850  0.63230  1.0000 0.3304271191
H   H4        1.0  0.14850  0.89270  0.86770  1.0000 0.3304271191
H   H5        1.0  0.24480  0.93300  0.39720  1.0000 0.2532020598
H   H6        1.0  0.93300  0.24480  0.10280  1.0000 0.2532020598
H   H7        1.0  0.75520  0.06700  0.60280  1.0000 0.2532020598
H   H8        1.0  0.06700  0.75520  0.89720  1.0000 0.2532020598
H   H9        1.0  0.79300  0.31800  0.32540  1.0000 0.1135687484
H   H10       1.0  0.31800  0.79300  0.17460  1.0000 0.1135687484
H   H11       1.0  0.20700  0.68200  0.67460  1.0000 0.1135687484
H   H12       1.0  0.68200  0.20700  0.82540  1.0000 0.1135687484
H   H13       1.0  0.69770  0.10390  0.44710  1.0000 0.1204838022
H   H14       1.0  0.10390  0.69770  0.05290  1.0000 0.1204838022
H   H15       1.0  0.30230  0.89610  0.55290  1.0000 0.1204838022
H   H16       1.0  0.89610  0.30230  0.94710  1.0000 0.1204838022
H   H17       1.0  0.66070  0.96170  0.36830  1.0000 0.1135687484
H   H18       1.0  0.96170  0.66070  0.13170  1.0000 0.1135687484
H   H19       1.0  0.33930  0.03830  0.63170  1.0000 0.1135687484
H   H20       1.0  0.03830  0.33930  0.86830  1.0000 0.1135687484
H   H21       1.0  0.50730  0.94530  0.25650  1.0000 0.1204838022
H   H22       1.0  0.94530  0.50730  0.24350  1.0000 0.1204838022
H   H23       1.0  0.49270  0.05470  0.74350  1.0000 0.1204838022
H   H24       1.0  0.05470  0.49270  0.75650  1.0000 0.1204838022
H   H25       1.0  0.63760  0.37480  0.27310  1.0000 0.1204838022
H   H26       1.0  0.37480  0.63760  0.22690  1.0000 0.1204838022
H   H27       1.0  0.36240  0.62520  0.72690  1.0000 0.1204838022
H   H28       1.0  0.62520  0.36240  0.77310  1.0000 0.1204838022
H   H29       1.0  0.66380  0.53380  0.18820  1.0000 0.1376060448
H   H30       1.0  0.53380  0.66380  0.31180  1.0000 0.1376060448
H   H31       1.0  0.33620  0.46620  0.81180  1.0000 0.1376060448
H   H32       1.0  0.46620  0.33620  0.68820  1.0000 0.1376060448
H   H33       1.0  0.20960  0.18460  0.15180  1.0000 0.1376060448
H   H34       1.0  0.18460  0.20960  0.34820  1.0000 0.1376060448
H   H35       1.0  0.79040  0.81540  0.84820  1.0000 0.1376060448
H   H36       1.0  0.81540  0.79040  0.65180  1.0000 0.1376060448
H   H37       1.0  0.19770  0.03910  0.24120  1.0000 0.1135687484
H   H38       1.0  0.03910  0.19770  0.25880  1.0000 0.1135687484
H   H39       1.0  0.80230  0.96090  0.75880  1.0000 0.1135687484
H   H40       1.0  0.96090  0.80230  0.74120  1.0000 0.1135687484
H   H41       1.0  0.66090  0.82870  0.06000  1.0000 0.1274671941
H   H42       1.0  0.82870  0.66090  0.44000  1.0000 0.1274671941
H   H43       1.0  0.33910  0.17130  0.94000  1.0000 0.1274671941
H   H44       1.0  0.17130  0.33910  0.56000  1.0000 0.1274671941
H   H45       1.0  0.65610  0.68390  0.14420  1.0000 0.1376060448
H   H46       1.0  0.68390  0.65610  0.35580  1.0000 0.1376060448
H   H47       1.0  0.34390  0.31610  0.85580  1.0000 0.1376060448
H   H48       1.0  0.31610  0.34390  0.64420  1.0000 0.1376060448
H   H49       1.0  0.24720  0.31080  0.04400  1.0000 0.1376060448
H   H50       1.0  0.31080  0.24720  0.45600  1.0000 0.1376060448
H   H51       1.0  0.75280  0.68920  0.95600  1.0000 0.1376060448
H   H52       1.0  0.68920  0.75280  0.54400  1.0000 0.1376060448
H   H53       1.0  0.26180  0.46560  0.96330  1.0000 0.1135687484
H   H54       1.0  0.46560  0.26180  0.53670  1.0000 0.1135687484
H   H55       1.0  0.73820  0.53440  0.03670  1.0000 0.1135687484
H   H56       1.0  0.53440  0.73820  0.46330  1.0000 0.1135687484
C   C1        1.0  0.71003  0.22597  0.35810  1.0000 0.0068306206
C   C2        1.0  0.22597  0.71003  0.14190  1.0000 0.0068306206
C   C3        1.0  0.28997  0.77403  0.64190  1.0000 0.0068306206
C   C4        1.0  0.77403  0.28997  0.85810  1.0000 0.0068306206
C   C5        1.0  0.75445  0.16135  0.39840  1.0000 -0.1525717587
C   C6        1.0  0.16135  0.75445  0.10160  1.0000 -0.1525717587
C   C7        1.0  0.24555  0.83865  0.60160  1.0000 -0.1525717587
C   C8        1.0  0.83865  0.24555  0.89840  1.0000 -0.1525717587
C   C9        1.0  0.68482  0.04318  0.33974  1.0000 -0.1656552762
C   C10       1.0  0.04318  0.68482  0.16026  1.0000 -0.1656552762
C   C11       1.0  0.31518  0.95682  0.66026  1.0000 -0.1656552762
C   C12       1.0  0.95682  0.31518  0.83974  1.0000 -0.1656552762
C   C13       1.0  0.53780  0.98200  0.31025  1.0000 0.0226390614
C   C14       1.0  0.98200  0.53780  0.18975  1.0000 0.0226390614
C   C15       1.0  0.46220  0.01800  0.68975  1.0000 0.0226390614
C   C16       1.0  0.01800  0.46220  0.81025  1.0000 0.0226390614
C   C17       1.0  0.67696  0.26484  0.41823  1.0000 0.5624560505
C   C18       1.0  0.26484  0.67696  0.08177  1.0000 0.5624560505
C   C19       1.0  0.32304  0.73516  0.58177  1.0000 0.5624560505
C   C20       1.0  0.73516  0.32304  0.91823  1.0000 0.5624560505
C   C21       1.0  0.92163  0.27477  0.42302  1.0000 0.6050393968
C   C22       1.0  0.27477  0.92163  0.07698  1.0000 0.6050393968
C   C23       1.0  0.07837  0.72523  0.57698  1.0000 0.6050393968
C   C24       1.0  0.72523  0.07837  0.92302  1.0000 0.6050393968
C   C25       1.0  0.77912  0.10808  0.26765  1.0000 0.5828797608
C   C26       1.0  0.10808  0.77912  0.23235  1.0000 0.5828797608
C   C27       1.0  0.22088  0.89192  0.73235  1.0000 0.5828797608
C   C28       1.0  0.89192  0.22088  0.76765  1.0000 0.5828797608
C   C29       1.0  0.40659  0.85121  0.36618  1.0000 0.5669625192
C   C30       1.0  0.85121  0.40659  0.13382  1.0000 0.5669625192
C   C31       1.0  0.59341  0.14879  0.63382  1.0000 0.5669625192
C   C32       1.0  0.14879  0.59341  0.86618  1.0000 0.5669625192
C   C33       1.0  0.55015  0.33625  0.24888  1.0000 0.1016634619
C   C34       1.0  0.33625  0.55015  0.25112  1.0000 0.1016634619
C   C35       1.0  0.44985  0.66375  0.75112  1.0000 0.1016634619
C   C36       1.0  0.66375  0.44985  0.74888  1.0000 0.1016634619
C   C37       1.0  0.56691  0.43309  0.19754  1.0000 -0.1978509188
C   C38       1.0  0.43309  0.56691  0.30246  1.0000 -0.1978509188
C   C39       1.0  0.43309  0.56691  0.80246  1.0000 -0.1978509188
C   C40       1.0  0.56691  0.43309  0.69754  1.0000 -0.1978509188
C   C41       1.0  0.43898  0.37982  0.15983  1.0000 0.1016634619
C   C42       1.0  0.37982  0.43898  0.34017  1.0000 0.1016634619
C   C43       1.0  0.56102  0.62018  0.84017  1.0000 0.1016634619
C   C44       1.0  0.62018  0.56102  0.65983  1.0000 0.1016634619
C   C45       1.0  0.29903  0.22757  0.17640  1.0000 -0.186836882
C   C46       1.0  0.22757  0.29903  0.32360  1.0000 -0.186836882
C   C47       1.0  0.70097  0.77243  0.82360  1.0000 -0.186836882
C   C48       1.0  0.77243  0.70097  0.67640  1.0000 -0.186836882
C   C49       1.0  0.29299  0.13981  0.22960  1.0000 0.0919949678
C   C50       1.0  0.13981  0.29299  0.27040  1.0000 0.0919949678
C   C51       1.0  0.70701  0.86019  0.77040  1.0000 0.0919949678
C   C52       1.0  0.86019  0.70701  0.72960  1.0000 0.0919949678
C   C53       1.0  0.57609  0.72311  0.05722  1.0000 0.0919949678
C   C54       1.0  0.72311  0.57609  0.44278  1.0000 0.0919949678
C   C55       1.0  0.42391  0.27689  0.94278  1.0000 0.0919949678
C   C56       1.0  0.27689  0.42391  0.55722  1.0000 0.0919949678
C   C57       1.0  0.57413  0.63667  0.10800  1.0000 -0.1978509188
C   C58       1.0  0.63667  0.57413  0.39200  1.0000 -0.1978509188
C   C59       1.0  0.42587  0.36333  0.89200  1.0000 -0.1978509188
C   C60       1.0  0.36333  0.42587  0.60800  1.0000 -0.1978509188
C   C61       1.0  0.44855  0.47825  0.10465  1.0000 0.1016634619
C   C62       1.0  0.47825  0.44855  0.39535  1.0000 0.1016634619
C   C63       1.0  0.55145  0.52175  0.89535  1.0000 0.1016634619
C   C64       1.0  0.52175  0.55145  0.60465  1.0000 0.1016634619
C   C65       1.0  0.33216  0.41584  0.04893  1.0000 -0.186836882
C   C66       1.0  0.41584  0.33216  0.45107  1.0000 -0.186836882
C   C67       1.0  0.66784  0.58416  0.95107  1.0000 -0.186836882
C   C68       1.0  0.58416  0.66784  0.54893  1.0000 -0.186836882
C   C69       1.0  0.34186  0.50994  0.00029  1.0000 0.1016634619
C   C70       1.0  0.50994  0.34186  0.49971  1.0000 0.1016634619
C   C71       1.0  0.65814  0.49006  0.99971  1.0000 0.1016634619
C   C72       1.0  0.49006  0.65814  0.50029  1.0000 0.1016634619
N   N1        1.0  0.41651  0.19189  0.26538  1.0000 -0.2132297144
N   N2        1.0  0.19189  0.41651  0.23462  1.0000 -0.2132297144
N   N3        1.0  0.58349  0.80811  0.73462  1.0000 -0.2132297144
N   N4        1.0  0.80811  0.58349  0.76538  1.0000 -0.2132297144
N   N5        1.0  0.46111  0.66149  0.00413  1.0000 -0.2314108223
N   N6        1.0  0.66149  0.46111  0.49587  1.0000 -0.2314108223
N   N7        1.0  0.53889  0.33851  0.99587  1.0000 -0.2314108223
N   N8        1.0  0.33851  0.53889  0.50413  1.0000 -0.2314108223
O   O1        1.0  0.57528  0.10970  0.30689  1.0000 -0.2236053668
O   O2        1.0  0.10970  0.57528  0.19311  1.0000 -0.2236053668
O   O3        1.0  0.42472  0.89030  0.69311  1.0000 -0.2236053668
O   O4        1.0  0.89030  0.42472  0.80689  1.0000 -0.2236053668
O   O5        1.0  0.18537  0.93063  0.38958  1.0000 -0.6156674833
O   O6        1.0  0.93063  0.18537  0.11042  1.0000 -0.6156674833
O   O7        1.0  0.81463  0.06937  0.61042  1.0000 -0.6156674833
O   O8        1.0  0.06937  0.81463  0.88958  1.0000 -0.6156674833
O   O9        1.0  0.54433  0.18867  0.42491  1.0000 -0.5297954987
O   O10       1.0  0.18867  0.54433  0.07509  1.0000 -0.5297954987
O   O11       1.0  0.45567  0.81133  0.57509  1.0000 -0.5297954987
O   O12       1.0  0.81133  0.45567  0.92491  1.0000 -0.5297954987
O   O13       1.0  0.79314  0.37726  0.45834  1.0000 -0.4873770908
O   O14       1.0  0.37726  0.79314  0.04166  1.0000 -0.4873770908
O   O15       1.0  0.20686  0.62274  0.54166  1.0000 -0.4873770908
O   O16       1.0  0.62274  0.20686  0.95834  1.0000 -0.4873770908
O   O17       1.0  0.01839  0.41437  0.40084  1.0000 -0.5297954987
O   O18       1.0  0.41437  0.01839  0.09916  1.0000 -0.5297954987
O   O19       1.0  0.98161  0.58563  0.59916  1.0000 -0.5297954987
O   O20       1.0  0.58563  0.98161  0.90084  1.0000 -0.5297954987
O   O21       1.0  0.95332  0.22288  0.46620  1.0000 -0.5812252671
O   O22       1.0  0.22288  0.95332  0.03380  1.0000 -0.5812252671
O   O23       1.0  0.04668  0.77712  0.53380  1.0000 -0.5812252671
O   O24       1.0  0.77712  0.04668  0.96620  1.0000 -0.5812252671
O   O25       1.0  0.88510  0.24870  0.25255  1.0000 -0.5297954987
O   O26       1.0  0.24870  0.88510  0.24745  1.0000 -0.5297954987
O   O27       1.0  0.11490  0.75130  0.74745  1.0000 -0.5297954987
O   O28       1.0  0.75130  0.11490  0.75255  1.0000 -0.5297954987
O   O29       1.0  0.74027  0.01293  0.22858  1.0000 -0.5812252671
O   O30       1.0  0.01293  0.74027  0.27142  1.0000 -0.5812252671
O   O31       1.0  0.25973  0.98707  0.77142  1.0000 -0.5812252671
O   O32       1.0  0.98707  0.25973  0.72858  1.0000 -0.5812252671
O   O33       1.0  0.37262  0.73776  0.37429  1.0000 -0.5394334704
O   O34       1.0  0.73776  0.37262  0.12571  1.0000 -0.5394334704
O   O35       1.0  0.62738  0.26224  0.62571  1.0000 -0.5394334704
O   O36       1.0  0.26224  0.62738  0.87429  1.0000 -0.5394334704
O   O37       1.0  0.34668  0.86532  0.39870  1.0000 -0.4848135621
O   O38       1.0  0.86532  0.34668  0.10130  1.0000 -0.4848135621
O   O39       1.0  0.65332  0.13468  0.60130  1.0000 -0.4848135621
O   O40       1.0  0.13468  0.65332  0.89870  1.0000 -0.4848135621
