# DDEC6 charges by PACMAN v1.1 (https://github.com/mtap-research/PACMAN-charge/)
data_2008[Cd][nan]3[ASR]1
_chemical_formula_sum              "Cd4 H84 C112 N16 O16"
_cell_length_a       13.362
_cell_length_b       13.362
_cell_length_c       20.907
_cell_angle_alpha    90
_cell_angle_beta     90
_cell_angle_gamma    133.308

_symmetry_space_group_name_H-M    "P 1"
_symmetry_Int_Tables_number       1

loop_
  _symmetry_equiv_pos_as_xyz
  'x, y, z'

loop_
  _atom_site_type_symbol
  _atom_site_label
  _atom_site_symmetry_multiplicity
  _atom_site_fract_x
  _atom_site_fract_y
  _atom_site_fract_z
  _atom_site_occupancy
  _atom_site_charge
Cd  Cd1       1.0  0.13128  0.59608  0.56434  1.0000 0.8326984153
Cd  Cd2       1.0  0.86872  0.40392  0.06434  1.0000 0.8326984153
Cd  Cd3       1.0  0.59608  0.13128  0.43566  1.0000 0.8326984153
Cd  Cd4       1.0  0.40392  0.86872  0.93566  1.0000 0.8326984153
H   H1        1.0  0.24410  0.78090  0.35380  1.0000 0.1122203277
H   H2        1.0  0.75590  0.21910  0.85380  1.0000 0.1122203277
H   H3        1.0  0.78090  0.24410  0.64620  1.0000 0.1122203277
H   H4        1.0  0.21910  0.75590  0.14620  1.0000 0.1122203277
H   H5        1.0  0.01150  0.63730  0.19780  1.0000 0.1122203277
H   H6        1.0  0.98850  0.36270  0.69780  1.0000 0.1122203277
H   H7        1.0  0.63730  0.01150  0.80220  1.0000 0.1122203277
H   H8        1.0  0.36270  0.98850  0.30220  1.0000 0.1122203277
H   H9        1.0  0.83140  0.44540  0.25240  1.0000 0.1278661944
H   H10       1.0  0.16860  0.55460  0.75240  1.0000 0.1278661944
H   H11       1.0  0.44540  0.83140  0.74760  1.0000 0.1278661944
H   H12       1.0  0.55460  0.16860  0.24760  1.0000 0.1278661944
H   H13       1.0  0.81830  0.43990  0.52390  1.0000 0.1278661944
H   H14       1.0  0.18170  0.56010  0.02390  1.0000 0.1278661944
H   H15       1.0  0.43990  0.81830  0.47610  1.0000 0.1278661944
H   H16       1.0  0.56010  0.18170  0.97610  1.0000 0.1278661944
H   H17       1.0  0.95650  0.57930  0.69560  1.0000 0.1278661944
H   H18       1.0  0.04350  0.42070  0.19560  1.0000 0.1278661944
H   H19       1.0  0.57930  0.95650  0.30440  1.0000 0.1278661944
H   H20       1.0  0.42070  0.04350  0.80440  1.0000 0.1278661944
H   H21       1.0  0.72090  0.47490  0.69410  1.0000 0.1183087375
H   H22       1.0  0.27910  0.52510  0.19410  1.0000 0.1183087375
H   H23       1.0  0.47490  0.72090  0.30590  1.0000 0.1183087375
H   H24       1.0  0.52510  0.27910  0.80590  1.0000 0.1183087375
H   H25       1.0  0.54880  0.27740  0.54820  1.0000 0.1278661944
H   H26       1.0  0.45120  0.72260  0.04820  1.0000 0.1278661944
H   H27       1.0  0.27740  0.54880  0.45180  1.0000 0.1278661944
H   H28       1.0  0.72260  0.45120  0.95180  1.0000 0.1278661944
H   H29       1.0  0.58770  0.41790  0.54440  1.0000 0.1278661944
H   H30       1.0  0.41230  0.58210  0.04440  1.0000 0.1278661944
H   H31       1.0  0.41790  0.58770  0.45560  1.0000 0.1278661944
H   H32       1.0  0.58210  0.41230  0.95560  1.0000 0.1278661944
H   H33       1.0  0.52670  0.48950  0.63190  1.0000 0.1183087375
H   H34       1.0  0.47330  0.51050  0.13190  1.0000 0.1183087375
H   H35       1.0  0.48950  0.52670  0.36810  1.0000 0.1183087375
H   H36       1.0  0.51050  0.47330  0.86810  1.0000 0.1183087375
H   H37       1.0  0.38040  0.42200  0.71690  1.0000 0.1122203277
H   H38       1.0  0.61960  0.57800  0.21690  1.0000 0.1122203277
H   H39       1.0  0.42200  0.38040  0.28310  1.0000 0.1122203277
H   H40       1.0  0.57800  0.61960  0.78310  1.0000 0.1122203277
H   H41       1.0  0.24540  0.04860  0.71150  1.0000 0.1183087375
H   H42       1.0  0.75460  0.95140  0.21150  1.0000 0.1183087375
H   H43       1.0  0.04860  0.24540  0.28850  1.0000 0.1183087375
H   H44       1.0  0.95140  0.75460  0.78850  1.0000 0.1183087375
H   H45       1.0  0.39800  0.11440  0.63040  1.0000 0.1278661944
H   H46       1.0  0.60200  0.88560  0.13040  1.0000 0.1278661944
H   H47       1.0  0.11440  0.39800  0.36960  1.0000 0.1278661944
H   H48       1.0  0.88560  0.60200  0.86960  1.0000 0.1278661944
H   H49       1.0  0.73980  0.08300  0.95300  1.0000 0.1278661944
H   H50       1.0  0.26020  0.91700  0.45300  1.0000 0.1278661944
H   H51       1.0  0.08300  0.73980  0.04700  1.0000 0.1278661944
H   H52       1.0  0.91700  0.26020  0.54700  1.0000 0.1278661944
H   H53       1.0  0.51700  0.70480  0.89340  1.0000 0.1278661944
H   H54       1.0  0.48300  0.29520  0.39340  1.0000 0.1278661944
H   H55       1.0  0.70480  0.51700  0.10660  1.0000 0.1278661944
H   H56       1.0  0.29520  0.48300  0.60660  1.0000 0.1278661944
H   H57       1.0  0.75750  0.81050  0.89730  1.0000 0.1183087375
H   H58       1.0  0.24250  0.18950  0.39730  1.0000 0.1183087375
H   H59       1.0  0.81050  0.75750  0.10270  1.0000 0.1183087375
H   H60       1.0  0.18950  0.24250  0.60270  1.0000 0.1183087375
H   H61       1.0  0.96170  0.04710  0.97440  1.0000 0.1122203277
H   H62       1.0  0.03830  0.95290  0.47440  1.0000 0.1122203277
H   H63       1.0  0.04710  0.96170  0.02560  1.0000 0.1122203277
H   H64       1.0  0.95290  0.03830  0.52560  1.0000 0.1122203277
H   H65       1.0  0.96990  0.16630  0.95630  1.0000 0.1361487576
H   H66       1.0  0.03010  0.83370  0.45630  1.0000 0.1361487576
H   H67       1.0  0.16630  0.96990  0.04370  1.0000 0.1361487576
H   H68       1.0  0.83370  0.03010  0.54370  1.0000 0.1361487576
H   H69       1.0  0.02250  0.24550  0.84010  1.0000 0.1183087375
H   H70       1.0  0.97750  0.75450  0.34010  1.0000 0.1183087375
H   H71       1.0  0.24550  0.02250  0.15990  1.0000 0.1183087375
H   H72       1.0  0.75450  0.97750  0.65990  1.0000 0.1183087375
H   H73       1.0  0.14750  0.28590  0.75020  1.0000 0.1122203277
H   H74       1.0  0.85250  0.71410  0.25020  1.0000 0.1122203277
H   H75       1.0  0.28590  0.14750  0.24980  1.0000 0.1122203277
H   H76       1.0  0.71410  0.85250  0.74980  1.0000 0.1122203277
H   H77       1.0  0.20850  0.05750  0.82110  1.0000 0.1122203277
H   H78       1.0  0.79150  0.94250  0.32110  1.0000 0.1122203277
H   H79       1.0  0.05750  0.20850  0.17890  1.0000 0.1122203277
H   H80       1.0  0.94250  0.79150  0.67890  1.0000 0.1122203277
H   H81       1.0  0.07000  0.99960  0.90710  1.0000 0.1183087375
H   H82       1.0  0.93000  0.00040  0.40710  1.0000 0.1183087375
H   H83       1.0  0.99960  0.07000  0.09290  1.0000 0.1183087375
H   H84       1.0  0.00040  0.93000  0.59290  1.0000 0.1183087375
C   C1        1.0  0.07230  0.58310  0.43730  1.0000 0.5339432762
C   C2        1.0  0.92770  0.41690  0.93730  1.0000 0.5339432762
C   C3        1.0  0.58310  0.07230  0.56270  1.0000 0.5339432762
C   C4        1.0  0.41690  0.92770  0.06270  1.0000 0.5339432762
C   C5        1.0  0.05340  0.59820  0.36820  1.0000 -0.0354123495
C   C6        1.0  0.94660  0.40180  0.86820  1.0000 -0.0354123495
C   C7        1.0  0.59820  0.05340  0.63180  1.0000 -0.0354123495
C   C8        1.0  0.40180  0.94660  0.13180  1.0000 -0.032705973
C   C9        1.0  0.16100  0.71200  0.33310  1.0000 -0.1769034459
C   C10       1.0  0.83900  0.28800  0.83310  1.0000 -0.1769034459
C   C11       1.0  0.71200  0.16100  0.66690  1.0000 -0.1769034459
C   C12       1.0  0.28800  0.83900  0.16690  1.0000 -0.1769034459
C   C13       1.0  0.15090  0.72850  0.26820  1.0000 0.068371815
C   C14       1.0  0.84910  0.27150  0.76820  1.0000 0.068371815
C   C15       1.0  0.72850  0.15090  0.73180  1.0000 0.068371815
C   C16       1.0  0.27150  0.84910  0.23180  1.0000 0.068371815
C   C17       1.0  0.02370  0.62750  0.24030  1.0000 -0.1496261216
C   C18       1.0  0.97630  0.37250  0.74030  1.0000 -0.1496261216
C   C19       1.0  0.62750  0.02370  0.75970  1.0000 -0.1496261216
C   C20       1.0  0.37250  0.97630  0.25970  1.0000 -0.1496261216
C   C21       1.0  0.91440  0.51260  0.27340  1.0000 -0.1222311665
C   C22       1.0  0.08560  0.48740  0.77340  1.0000 -0.1222311665
C   C23       1.0  0.51260  0.91440  0.72660  1.0000 -0.1222311665
C   C24       1.0  0.48740  0.08560  0.22660  1.0000 -0.1222311665
C   C25       1.0  0.92550  0.49490  0.33740  1.0000 -0.0140347105
C   C26       1.0  0.07450  0.50510  0.83740  1.0000 -0.0140347105
C   C27       1.0  0.49490  0.92550  0.66260  1.0000 -0.0140347105
C   C28       1.0  0.50510  0.07450  0.16260  1.0000 -0.0140347105
C   C29       1.0  0.80110  0.36790  0.37230  1.0000 0.5580136434
C   C30       1.0  0.19890  0.63210  0.87230  1.0000 0.5580136434
C   C31       1.0  0.36790  0.80110  0.62770  1.0000 0.5580136434
C   C32       1.0  0.63210  0.19890  0.12770  1.0000 0.5580136434
C   C33       1.0  0.82360  0.46160  0.56680  1.0000 0.0971337935
C   C34       1.0  0.17640  0.53840  0.06680  1.0000 0.0971337935
C   C35       1.0  0.46160  0.82360  0.43320  1.0000 0.0971337935
C   C36       1.0  0.53840  0.17640  0.93320  1.0000 0.0971337935
C   C37       1.0  0.89910  0.53790  0.66000  1.0000 -0.032705973
C   C38       1.0  0.10090  0.46210  0.16000  1.0000 -0.032705973
C   C39       1.0  0.53790  0.89910  0.34000  1.0000 -0.032705973
C   C40       1.0  0.46210  0.10090  0.84000  1.0000 -0.032705973
C   C41       1.0  0.76850  0.47950  0.65990  1.0000 -0.1222311665
C   C42       1.0  0.23150  0.52050  0.15990  1.0000 -0.1222311665
C   C43       1.0  0.47950  0.76850  0.34010  1.0000 -0.1222311665
C   C44       1.0  0.52050  0.23150  0.84010  1.0000 -0.1222311665
C   C45       1.0  0.58070  0.35610  0.57300  1.0000 -0.1618215476
C   C46       1.0  0.41930  0.64390  0.07300  1.0000 -0.1618215476
C   C47       1.0  0.35610  0.58070  0.42700  1.0000 -0.1618215476
C   C48       1.0  0.64390  0.41930  0.92700  1.0000 -0.1618215476
C   C49       1.0  0.47950  0.30910  0.62390  1.0000 0.089758049
C   C50       1.0  0.52050  0.69090  0.12390  1.0000 0.089758049
C   C51       1.0  0.30910  0.47950  0.37610  1.0000 0.089758049
C   C52       1.0  0.69090  0.52050  0.87610  1.0000 0.089758049
C   C53       1.0  0.47210  0.40130  0.64870  1.0000 -0.1681924655
C   C54       1.0  0.52790  0.59870  0.14870  1.0000 -0.1681924655
C   C55       1.0  0.40130  0.47210  0.35130  1.0000 -0.1681924655
C   C56       1.0  0.59870  0.52790  0.85130  1.0000 -0.1681924655
C   C57       1.0  0.38140  0.35880  0.69920  1.0000 -0.1618215476
C   C58       1.0  0.61860  0.64120  0.19920  1.0000 -0.1618215476
C   C59       1.0  0.35880  0.38140  0.30080  1.0000 -0.1618215476
C   C60       1.0  0.64120  0.61860  0.80080  1.0000 -0.1618215476
C   C61       1.0  0.29200  0.22520  0.72420  1.0000 0.0515823712
C   C62       1.0  0.70800  0.77480  0.22420  1.0000 0.0515823712
C   C63       1.0  0.22520  0.29200  0.27580  1.0000 0.0515823712
C   C64       1.0  0.77480  0.70800  0.77580  1.0000 0.0515823712
C   C65       1.0  0.30300  0.13840  0.69630  1.0000 -0.1496261216
C   C66       1.0  0.69700  0.86160  0.19630  1.0000 -0.1496261216
C   C67       1.0  0.13840  0.30300  0.30370  1.0000 -0.1496261216
C   C68       1.0  0.86160  0.69700  0.80370  1.0000 -0.1496261216
C   C69       1.0  0.39460  0.17660  0.64700  1.0000 -0.1496261216
C   C70       1.0  0.60540  0.82340  0.14700  1.0000 -0.1496261216
C   C71       1.0  0.17660  0.39460  0.35300  1.0000 -0.1496261216
C   C72       1.0  0.82340  0.60540  0.85300  1.0000 -0.1496261216
C   C73       1.0  0.71280  0.00180  0.93840  1.0000 0.0971337935
C   C74       1.0  0.28720  0.99820  0.43840  1.0000 0.0971337935
C   C75       1.0  0.00180  0.71280  0.06160  1.0000 0.0971337935
C   C76       1.0  0.99820  0.28720  0.56160  1.0000 0.0971337935
C   C77       1.0  0.59210  0.79490  0.90560  1.0000 -0.032705973
C   C78       1.0  0.40790  0.20510  0.40560  1.0000 -0.032705973
C   C79       1.0  0.79490  0.59210  0.09440  1.0000 -0.032705973
C   C80       1.0  0.20510  0.40790  0.59440  1.0000 -0.032705973
C   C81       1.0  0.72450  0.85110  0.90770  1.0000 -0.1331914632
C   C82       1.0  0.27550  0.14890  0.40770  1.0000 -0.1331914632
C   C83       1.0  0.85110  0.72450  0.09230  1.0000 -0.1331914632
C   C84       1.0  0.14890  0.27550  0.59230  1.0000 -0.1331914632
C   C85       1.0  0.94230  0.08190  0.94080  1.0000 -0.1618215476
C   C86       1.0  0.05770  0.91810  0.44080  1.0000 -0.1618215476
C   C87       1.0  0.08190  0.94230  0.05920  1.0000 -0.1618215476
C   C88       1.0  0.91810  0.05770  0.55920  1.0000 -0.1618215476
C   C89       1.0  0.03140  0.11640  0.88100  1.0000 0.0971337935
C   C90       1.0  0.96860  0.88360  0.38100  1.0000 0.0971337935
C   C91       1.0  0.11640  0.03140  0.11900  1.0000 0.0971337935
C   C92       1.0  0.88360  0.96860  0.61900  1.0000 0.0971337935
C   C93       1.0  0.05680  0.20440  0.83580  1.0000 -0.1405527089
C   C94       1.0  0.94320  0.79560  0.33580  1.0000 -0.1405527089
C   C95       1.0  0.20440  0.05680  0.16420  1.0000 -0.1405527089
C   C96       1.0  0.79560  0.94320  0.66420  1.0000 -0.1405527089
C   C97       1.0  0.13550  0.23150  0.78300  1.0000 -0.1405527089
C   C98       1.0  0.86450  0.76850  0.28300  1.0000 -0.1405527089
C   C99       1.0  0.23150  0.13550  0.21700  1.0000 -0.1405527089
C   C100      1.0  0.76850  0.86450  0.71700  1.0000 -0.1405527089
C   C101      1.0  0.19570  0.18070  0.77780  1.0000 0.0597859904
C   C102      1.0  0.80430  0.81930  0.27780  1.0000 0.0597859904
C   C103      1.0  0.18070  0.19570  0.22220  1.0000 0.0597859904
C   C104      1.0  0.81930  0.80430  0.72220  1.0000 0.0597859904
C   C105      1.0  0.16970  0.09430  0.82430  1.0000 -0.1405527089
C   C106      1.0  0.83030  0.90570  0.32430  1.0000 -0.1405527089
C   C107      1.0  0.09430  0.16970  0.17570  1.0000 -0.1405527089
C   C108      1.0  0.90570  0.83030  0.67570  1.0000 -0.1405527089
C   C109      1.0  0.08760  0.05980  0.87600  1.0000 -0.1618215476
C   C110      1.0  0.91240  0.94020  0.37600  1.0000 -0.1618215476
C   C111      1.0  0.05980  0.08760  0.12400  1.0000 -0.1618215476
C   C112      1.0  0.94020  0.91240  0.62400  1.0000 -0.1618215476
N   N1        1.0  0.93720  0.52940  0.60170  1.0000 -0.3095593794
N   N2        1.0  0.06280  0.47060  0.10170  1.0000 -0.3095593794
N   N3        1.0  0.52940  0.93720  0.39830  1.0000 -0.3095593794
N   N4        1.0  0.47060  0.06280  0.89830  1.0000 -0.3095593794
N   N5        1.0  0.71760  0.42740  0.59940  1.0000 0.0437890545
N   N6        1.0  0.28240  0.57260  0.09940  1.0000 0.0437890545
N   N7        1.0  0.42740  0.71760  0.40060  1.0000 0.0437890545
N   N8        1.0  0.57260  0.28240  0.90060  1.0000 0.0437890545
N   N9        1.0  0.58360  0.88860  0.92370  1.0000 -0.3095593794
N   N10       1.0  0.41640  0.11140  0.42370  1.0000 -0.3095593794
N   N11       1.0  0.88860  0.58360  0.07630  1.0000 -0.3095593794
N   N12       1.0  0.11140  0.41640  0.57630  1.0000 -0.3095593794
N   N13       1.0  0.79710  0.98350  0.92940  1.0000 0.0515823712
N   N14       1.0  0.20290  0.01650  0.42940  1.0000 0.0515823712
N   N15       1.0  0.98350  0.79710  0.07060  1.0000 0.0515823712
N   N16       1.0  0.01650  0.20290  0.57060  1.0000 0.0515823712
O   O1        1.0  0.15120  0.69200  0.47040  1.0000 -0.5494363948
O   O2        1.0  0.84880  0.30800  0.97040  1.0000 -0.5494363948
O   O3        1.0  0.69200  0.15120  0.52960  1.0000 -0.5494363948
O   O4        1.0  0.30800  0.84880  0.02960  1.0000 -0.5494363948
O   O5        1.0  0.01350  0.46870  0.45882  1.0000 -0.5186281695
O   O6        1.0  0.98650  0.53130  0.95882  1.0000 -0.5186281695
O   O7        1.0  0.46870  0.01350  0.54118  1.0000 -0.5186281695
O   O8        1.0  0.53130  0.98650  0.04118  1.0000 -0.5186281695
O   O9        1.0  0.74950  0.38050  0.41750  1.0000 -0.5494363948
O   O10       1.0  0.25050  0.61950  0.91750  1.0000 -0.5494363948
O   O11       1.0  0.38050  0.74950  0.58250  1.0000 -0.5494363948
O   O12       1.0  0.61950  0.25050  0.08250  1.0000 -0.5494363948
O   O13       1.0  0.75460  0.25400  0.35400  1.0000 -0.5318045511
O   O14       1.0  0.24540  0.74600  0.85400  1.0000 -0.5318045511
O   O15       1.0  0.25400  0.75460  0.64600  1.0000 -0.5318045511
O   O16       1.0  0.74600  0.24540  0.14600  1.0000 -0.5318045511
