# DDEC6 charges by PACMAN v1.1 (https://github.com/mtap-research/PACMAN-charge/)
data_2008[Cu][nan]3[ASR]2
_chemical_formula_sum              "Cu6 H68 C88 N8 O24"
_cell_length_a       16.0542
_cell_length_b       8.5577
_cell_length_c       18.802
_cell_angle_alpha    90
_cell_angle_beta     99.469
_cell_angle_gamma    90

_symmetry_space_group_name_H-M    "P 1"
_symmetry_Int_Tables_number       1

loop_
  _symmetry_equiv_pos_as_xyz
  'x, y, z'

loop_
  _atom_site_type_symbol
  _atom_site_label
  _atom_site_symmetry_multiplicity
  _atom_site_fract_x
  _atom_site_fract_y
  _atom_site_fract_z
  _atom_site_occupancy
  _atom_site_charge
Cu  Cu1       1.0  0.75000  0.55480  0.50000  1.0000 0.7052164268
Cu  Cu2       1.0  0.25000  0.44520  0.50000  1.0000 0.7052164268
Cu  Cu3       1.0  0.73422  0.68478  0.79175  1.0000 0.757414062
Cu  Cu4       1.0  0.76578  0.68478  0.20825  1.0000 0.757414062
Cu  Cu5       1.0  0.26578  0.31522  0.20825  1.0000 0.757414062
Cu  Cu6       1.0  0.23422  0.31522  0.79175  1.0000 0.757414062
H   H1        1.0  0.72050  0.99810  0.65390  1.0000 0.139036155
H   H2        1.0  0.77950  0.99810  0.34610  1.0000 0.139036155
H   H3        1.0  0.27950  0.00190  0.34610  1.0000 0.139036155
H   H4        1.0  0.22050  0.00190  0.65390  1.0000 0.139036155
H   H5        1.0  0.72510  0.12760  0.59560  1.0000 0.139036155
H   H6        1.0  0.77490  0.12760  0.40440  1.0000 0.139036155
H   H7        1.0  0.27490  0.87240  0.40440  1.0000 0.139036155
H   H8        1.0  0.22510  0.87240  0.59560  1.0000 0.139036155
H   H9        1.0  0.69230  0.16950  0.66740  1.0000 0.1483604572
H   H10       1.0  0.80770  0.16950  0.33260  1.0000 0.1483604572
H   H11       1.0  0.30770  0.83050  0.33260  1.0000 0.1483604572
H   H12       1.0  0.19230  0.83050  0.66740  1.0000 0.1483604572
H   H13       1.0  0.98290  0.47220  0.62380  1.0000 0.139036155
H   H14       1.0  0.51710  0.47220  0.37620  1.0000 0.139036155
H   H15       1.0  0.01710  0.52780  0.37620  1.0000 0.139036155
H   H16       1.0  0.48290  0.52780  0.62380  1.0000 0.139036155
H   H17       1.0  0.03800  0.47540  0.70080  1.0000 0.139036155
H   H18       1.0  0.46200  0.47540  0.29920  1.0000 0.139036155
H   H19       1.0  0.96200  0.52460  0.29920  1.0000 0.139036155
H   H20       1.0  0.53800  0.52460  0.70080  1.0000 0.139036155
H   H21       1.0  0.94880  0.55490  0.68770  1.0000 0.1483604572
H   H22       1.0  0.55120  0.55490  0.31230  1.0000 0.1483604572
H   H23       1.0  0.05120  0.44510  0.31230  1.0000 0.1483604572
H   H24       1.0  0.44880  0.44510  0.68770  1.0000 0.1483604572
H   H25       1.0  0.05430  0.95240  0.80660  1.0000 0.1483604572
H   H26       1.0  0.44570  0.95240  0.19340  1.0000 0.1483604572
H   H27       1.0  0.94570  0.04760  0.19340  1.0000 0.1483604572
H   H28       1.0  0.55430  0.04760  0.80660  1.0000 0.1483604572
H   H29       1.0  0.96940  0.86910  0.81480  1.0000 0.139036155
H   H30       1.0  0.53060  0.86910  0.18520  1.0000 0.139036155
H   H31       1.0  0.03060  0.13090  0.18520  1.0000 0.139036155
H   H32       1.0  0.46940  0.13090  0.81480  1.0000 0.139036155
H   H33       1.0  0.00190  0.01040  0.86490  1.0000 0.139036155
H   H34       1.0  0.49810  0.01040  0.13510  1.0000 0.1483604572
H   H35       1.0  0.99810  0.98960  0.13510  1.0000 0.1483604572
H   H36       1.0  0.50190  0.98960  0.86490  1.0000 0.1483604572
H   H37       1.0  0.83750  0.79420  0.59860  1.0000 0.1214264977
H   H38       1.0  0.66250  0.79420  0.40140  1.0000 0.1214264977
H   H39       1.0  0.16250  0.20580  0.40140  1.0000 0.1214264977
H   H40       1.0  0.33750  0.20580  0.59860  1.0000 0.1214264977
H   H41       1.0  0.86130  0.67230  0.40680  1.0000 0.1295657013
H   H42       1.0  0.63870  0.67230  0.59320  1.0000 0.1295657013
H   H43       1.0  0.13870  0.32770  0.59320  1.0000 0.1295657013
H   H44       1.0  0.36130  0.32770  0.40680  1.0000 0.1295657013
H   H45       1.0  0.93820  0.98250  0.59780  1.0000 0.139036155
H   H46       1.0  0.56180  0.98250  0.40220  1.0000 0.139036155
H   H47       1.0  0.06180  0.01750  0.40220  1.0000 0.139036155
H   H48       1.0  0.43820  0.01750  0.59780  1.0000 0.139036155
H   H49       1.0  0.96310  0.85630  0.40190  1.0000 0.139036155
H   H50       1.0  0.53690  0.85630  0.59810  1.0000 0.139036155
H   H51       1.0  0.03690  0.14370  0.59810  1.0000 0.139036155
H   H52       1.0  0.46310  0.14370  0.40190  1.0000 0.139036155
H   H53       1.0  0.87880  0.47710  0.80710  1.0000 0.1214264977
H   H54       1.0  0.62120  0.47710  0.19290  1.0000 0.1214264977
H   H55       1.0  0.12120  0.52290  0.19290  1.0000 0.1214264977
H   H56       1.0  0.37880  0.52290  0.80710  1.0000 0.1214264977
H   H57       1.0  0.79700  0.74060  0.94630  1.0000 0.1295657013
H   H58       1.0  0.70300  0.74060  0.05370  1.0000 0.1295657013
H   H59       1.0  0.20300  0.25940  0.05370  1.0000 0.1295657013
H   H60       1.0  0.29700  0.25940  0.94630  1.0000 0.1295657013
H   H61       1.0  0.99350  0.39750  0.88940  1.0000 0.139036155
H   H62       1.0  0.50650  0.39750  0.11060  1.0000 0.139036155
H   H63       1.0  0.00650  0.60250  0.11060  1.0000 0.139036155
H   H64       1.0  0.49350  0.60250  0.88940  1.0000 0.139036155
H   H65       1.0  0.90700  0.68050  0.03210  1.0000 0.139036155
H   H66       1.0  0.59300  0.68050  0.96790  1.0000 0.139036155
H   H67       1.0  0.09300  0.31950  0.96790  1.0000 0.139036155
H   H68       1.0  0.40700  0.31950  0.03210  1.0000 0.139036155
C   C1        1.0  0.82600  0.89200  0.75120  1.0000 0.5552375507
C   C2        1.0  0.67400  0.89200  0.24880  1.0000 0.5552375507
C   C3        1.0  0.17400  0.10800  0.24880  1.0000 0.5552375507
C   C4        1.0  0.32600  0.10800  0.75120  1.0000 0.5549018574
C   C5        1.0  0.73150  0.10670  0.64640  1.0000 -0.4302439797
C   C6        1.0  0.76850  0.10670  0.35360  1.0000 -0.4302439797
C   C7        1.0  0.26850  0.89330  0.35360  1.0000 -0.4302439797
C   C8        1.0  0.23150  0.89330  0.64640  1.0000 -0.4302439797
C   C9        1.0  0.81130  0.38820  0.60830  1.0000 0.5800352883
C   C10       1.0  0.68870  0.38820  0.39170  1.0000 0.5800352883
C   C11       1.0  0.18870  0.61180  0.39170  1.0000 0.5800352883
C   C12       1.0  0.31130  0.61180  0.60830  1.0000 0.5800352883
C   C13       1.0  0.98150  0.46870  0.67470  1.0000 -0.4442555416
C   C14       1.0  0.51850  0.46870  0.32530  1.0000 -0.4442555416
C   C15       1.0  0.01850  0.53130  0.32530  1.0000 -0.4442555416
C   C16       1.0  0.48150  0.53130  0.67470  1.0000 -0.4442555416
C   C17       1.0  0.07790  0.24740  0.77520  1.0000 0.5730117601
C   C18       1.0  0.42210  0.24740  0.22480  1.0000 0.5730117601
C   C19       1.0  0.92210  0.75260  0.22480  1.0000 0.5730117601
C   C20       1.0  0.57790  0.75260  0.77520  1.0000 0.5730117601
C   C21       1.0  0.99840  0.96760  0.81730  1.0000 -0.4302439797
C   C22       1.0  0.50160  0.96760  0.18270  1.0000 -0.4302439797
C   C23       1.0  0.00160  0.03240  0.18270  1.0000 -0.4302439797
C   C24       1.0  0.49840  0.03240  0.81730  1.0000 -0.4302439797
C   C25       1.0  0.86730  0.04860  0.73250  1.0000 -0.1318116445
C   C26       1.0  0.63270  0.04860  0.26750  1.0000 -0.1318116445
C   C27       1.0  0.13270  0.95140  0.26750  1.0000 -0.1318116445
C   C28       1.0  0.36730  0.95140  0.73250  1.0000 -0.1318116445
C   C29       1.0  0.82440  0.14730  0.68310  1.0000 0.1214264977
C   C30       1.0  0.67560  0.14730  0.31690  1.0000 0.1214264977
C   C31       1.0  0.17560  0.85270  0.31690  1.0000 0.1214264977
C   C32       1.0  0.32440  0.85270  0.68310  1.0000 0.1214264977
C   C33       1.0  0.86140  0.28160  0.66370  1.0000 -0.1318116445
C   C34       1.0  0.63860  0.28160  0.33630  1.0000 -0.1318116445
C   C35       1.0  0.13860  0.71840  0.33630  1.0000 -0.1318116445
C   C36       1.0  0.36140  0.71840  0.66370  1.0000 -0.1318116445
C   C37       1.0  0.94170  0.31660  0.69300  1.0000 0.1100224442
C   C38       1.0  0.55830  0.31660  0.30700  1.0000 0.1100224442
C   C39       1.0  0.05830  0.68340  0.30700  1.0000 0.1100224442
C   C40       1.0  0.44170  0.68340  0.69300  1.0000 0.1100224442
C   C41       1.0  0.98720  0.21300  0.74340  1.0000 -0.1458236683
C   C42       1.0  0.51280  0.21300  0.25660  1.0000 -0.1458236683
C   C43       1.0  0.01280  0.78700  0.25660  1.0000 -0.1458236683
C   C44       1.0  0.48720  0.78700  0.74340  1.0000 -0.1458236683
C   C45       1.0  0.95020  0.08000  0.76260  1.0000 0.1100224442
C   C46       1.0  0.54980  0.08000  0.23740  1.0000 0.1100224442
C   C47       1.0  0.04980  0.92000  0.23740  1.0000 0.1100224442
C   C48       1.0  0.45020  0.92000  0.76260  1.0000 0.1100224442
C   C49       1.0  0.86300  0.80520  0.55790  1.0000 0.0976762739
C   C50       1.0  0.63700  0.80520  0.44210  1.0000 0.0976762739
C   C51       1.0  0.13700  0.19480  0.44210  1.0000 0.0976762739
C   C52       1.0  0.36300  0.19480  0.55790  1.0000 0.0976762739
C   C53       1.0  0.87750  0.73560  0.44690  1.0000 0.0737738725
C   C54       1.0  0.62250  0.73560  0.55310  1.0000 0.0737738725
C   C55       1.0  0.12250  0.26440  0.55310  1.0000 0.0737738725
C   C56       1.0  0.37750  0.26440  0.44690  1.0000 0.0737738725
C   C57       1.0  0.92460  0.91870  0.55750  1.0000 -0.1890665884
C   C58       1.0  0.57540  0.91870  0.44250  1.0000 -0.1890665884
C   C59       1.0  0.07540  0.08130  0.44250  1.0000 -0.1890665884
C   C60       1.0  0.42460  0.08130  0.55750  1.0000 -0.1890665884
C   C61       1.0  0.93960  0.84680  0.44380  1.0000 -0.1593010831
C   C62       1.0  0.56040  0.84680  0.55620  1.0000 -0.1593010831
C   C63       1.0  0.06040  0.15320  0.55620  1.0000 -0.1593010831
C   C64       1.0  0.43960  0.15320  0.44380  1.0000 -0.1593010831
C   C65       1.0  0.96650  0.94130  0.50020  1.0000 0.1100224442
C   C66       1.0  0.53350  0.94130  0.49980  1.0000 0.1100224442
C   C67       1.0  0.03350  0.05870  0.49980  1.0000 0.1100224442
C   C68       1.0  0.46650  0.05870  0.50020  1.0000 0.1100224442
C   C69       1.0  0.88420  0.51500  0.85390  1.0000 0.0822183978
C   C70       1.0  0.61580  0.51500  0.14610  1.0000 0.0822183978
C   C71       1.0  0.11580  0.48500  0.14610  1.0000 0.0822183978
C   C72       1.0  0.38420  0.48500  0.85390  1.0000 0.0822183978
C   C73       1.0  0.83680  0.66980  0.93490  1.0000 0.0616940301
C   C74       1.0  0.66320  0.66980  0.06510  1.0000 0.0616940301
C   C75       1.0  0.16320  0.33020  0.06510  1.0000 0.0616940301
C   C76       1.0  0.33680  0.33020  0.93490  1.0000 0.0616940301
C   C77       1.0  0.95420  0.46590  0.90340  1.0000 -0.1593010831
C   C78       1.0  0.54580  0.46590  0.09660  1.0000 -0.1593010831
C   C79       1.0  0.04580  0.53410  0.09660  1.0000 -0.1593010831
C   C80       1.0  0.45420  0.53410  0.90340  1.0000 -0.1593010831
C   C81       1.0  0.90220  0.63280  0.98720  1.0000 -0.1759101409
C   C82       1.0  0.59780  0.63280  0.01280  1.0000 -0.1759101409
C   C83       1.0  0.09780  0.36720  0.01280  1.0000 -0.1759101409
C   C84       1.0  0.40220  0.36720  0.98720  1.0000 -0.1759101409
C   C85       1.0  0.96370  0.52130  0.97390  1.0000 0.1100224442
C   C86       1.0  0.53630  0.52130  0.02610  1.0000 0.1100224442
C   C87       1.0  0.03630  0.47870  0.02610  1.0000 0.1100224442
C   C88       1.0  0.46370  0.47870  0.97390  1.0000 0.1100224442
N   N1        1.0  0.84020  0.71470  0.50370  1.0000 -0.2077095765
N   N2        1.0  0.65980  0.71470  0.49630  1.0000 -0.2077095765
N   N3        1.0  0.15980  0.28530  0.49630  1.0000 -0.2077095765
N   N4        1.0  0.34020  0.28530  0.50370  1.0000 -0.2077095765
N   N5        1.0  0.82530  0.61220  0.86870  1.0000 -0.2266235683
N   N6        1.0  0.67470  0.61220  0.13130  1.0000 -0.2266235683
N   N7        1.0  0.17470  0.38780  0.13130  1.0000 -0.2266235683
N   N8        1.0  0.32530  0.38780  0.86870  1.0000 -0.2266235683
O   O1        1.0  0.83550  0.77170  0.72020  1.0000 -0.5195934582
O   O2        1.0  0.66450  0.77170  0.27980  1.0000 -0.5195934582
O   O3        1.0  0.16450  0.22830  0.27980  1.0000 -0.5195934582
O   O4        1.0  0.33550  0.22830  0.72020  1.0000 -0.5195934582
O   O5        1.0  0.78030  0.90570  0.80260  1.0000 -0.5195934582
O   O6        1.0  0.71970  0.90570  0.19740  1.0000 -0.5195934582
O   O7        1.0  0.21970  0.09430  0.19740  1.0000 -0.5195934582
O   O8        1.0  0.28030  0.09430  0.80260  1.0000 -0.5195934582
O   O9        1.0  0.75310  0.47190  0.62550  1.0000 -0.5598961222
O   O10       1.0  0.74690  0.47190  0.37450  1.0000 -0.5598961222
O   O11       1.0  0.24690  0.52810  0.37450  1.0000 -0.5598961222
O   O12       1.0  0.25310  0.52810  0.62550  1.0000 -0.5598961222
O   O13       1.0  0.83210  0.39570  0.54560  1.0000 -0.5105581689
O   O14       1.0  0.66790  0.39570  0.45440  1.0000 -0.5105581689
O   O15       1.0  0.16790  0.60430  0.45440  1.0000 -0.5105581689
O   O16       1.0  0.33210  0.60430  0.54560  1.0000 -0.5105581689
O   O17       1.0  0.13110  0.24280  0.73160  1.0000 -0.5195934582
O   O18       1.0  0.36890  0.24280  0.26840  1.0000 -0.5195934582
O   O19       1.0  0.86890  0.75720  0.26840  1.0000 -0.5195934582
O   O20       1.0  0.63110  0.75720  0.73160  1.0000 -0.5195934582
O   O21       1.0  0.10060  0.28170  0.83970  1.0000 -0.5781851816
O   O22       1.0  0.39940  0.28170  0.16030  1.0000 -0.5781851816
O   O23       1.0  0.89940  0.71830  0.16030  1.0000 -0.5781851816
O   O24       1.0  0.60060  0.71830  0.83970  1.0000 -0.5781851816
