# DDEC6 charges by PACMAN v1.1 (https://github.com/mtap-research/PACMAN-charge/)
data_2008[Dy][rtl]3[ASR]1
_chemical_formula_sum              "Dy4 H36 C36 O24"
_cell_length_a       9.5983
_cell_length_b       13.8789
_cell_length_c       17.6024
_cell_angle_alpha    90
_cell_angle_beta     119.526
_cell_angle_gamma    90

_symmetry_space_group_name_H-M    "P 1"
_symmetry_Int_Tables_number       1

loop_
  _symmetry_equiv_pos_as_xyz
  'x, y, z'

loop_
  _atom_site_type_symbol
  _atom_site_label
  _atom_site_symmetry_multiplicity
  _atom_site_fract_x
  _atom_site_fract_y
  _atom_site_fract_z
  _atom_site_occupancy
  _atom_site_charge
Dy  Dy1       1.0  0.12826  0.11128  0.08579  1.0000 1.9807761846
Dy  Dy2       1.0  0.87174  0.61128  0.41421  1.0000 1.9807761846
Dy  Dy3       1.0  0.87174  0.88872  0.91421  1.0000 1.9871467687
Dy  Dy4       1.0  0.12826  0.38872  0.58579  1.0000 1.9807761846
H   H1        1.0  0.65240  0.90890  0.25690  1.0000 0.0986066697
H   H2        1.0  0.34760  0.40890  0.24310  1.0000 0.0986066697
H   H3        1.0  0.34760  0.09110  0.74310  1.0000 0.0986066697
H   H4        1.0  0.65240  0.59110  0.75690  1.0000 0.0986066697
H   H5        1.0  0.51130  0.83780  0.20100  1.0000 0.1126629086
H   H6        1.0  0.48870  0.33780  0.29900  1.0000 0.1126629086
H   H7        1.0  0.48870  0.16220  0.79900  1.0000 0.1126629086
H   H8        1.0  0.51130  0.66220  0.70100  1.0000 0.1126629086
H   H9        1.0  0.66010  0.76480  0.14470  1.0000 0.0986066697
H   H10       1.0  0.33990  0.26480  0.35530  1.0000 0.0986066697
H   H11       1.0  0.33990  0.23520  0.85530  1.0000 0.0986066697
H   H12       1.0  0.66010  0.73520  0.64470  1.0000 0.0986066697
H   H13       1.0  0.92360  0.81180  0.18780  1.0000 0.0986066697
H   H14       1.0  0.07640  0.31180  0.31220  1.0000 0.0986066697
H   H15       1.0  0.07640  0.18820  0.81220  1.0000 0.0986066697
H   H16       1.0  0.92360  0.68820  0.68780  1.0000 0.0986066697
H   H17       1.0  0.91630  0.89290  0.24800  1.0000 0.0986066697
H   H18       1.0  0.08370  0.39290  0.25200  1.0000 0.0986066697
H   H19       1.0  0.08370  0.10710  0.75200  1.0000 0.0986066697
H   H20       1.0  0.91630  0.60710  0.74800  1.0000 0.0986066697
H   H21       1.0  0.72640  0.88960  0.06370  1.0000 0.0986066697
H   H22       1.0  0.27360  0.38960  0.43630  1.0000 0.0986066697
H   H23       1.0  0.27360  0.11040  0.93630  1.0000 0.0986066697
H   H24       1.0  0.72640  0.61040  0.56370  1.0000 0.0986066697
H   H25       1.0  0.72630  0.03660  0.17420  1.0000 0.1126629086
H   H26       1.0  0.27370  0.53660  0.32580  1.0000 0.1126629086
H   H27       1.0  0.27370  0.96340  0.82580  1.0000 0.1126629086
H   H28       1.0  0.72630  0.46340  0.67420  1.0000 0.1126629086
H   H29       1.0  0.62410  0.03820  0.07190  1.0000 0.0924306735
H   H30       1.0  0.37590  0.53820  0.42810  1.0000 0.0924306735
H   H31       1.0  0.37590  0.96180  0.92810  1.0000 0.0924306735
H   H32       1.0  0.62410  0.46180  0.57190  1.0000 0.0924306735
H   H33       1.0  0.48390  0.90340  0.07450  1.0000 0.0986066697
H   H34       1.0  0.51610  0.40340  0.42550  1.0000 0.0986066697
H   H35       1.0  0.51610  0.09660  0.92550  1.0000 0.0986066697
H   H36       1.0  0.48390  0.59660  0.57450  1.0000 0.0986066697
C   C1        1.0  0.59940  0.87350  0.20240  1.0000 -0.1905053444
C   C2        1.0  0.40060  0.37350  0.29760  1.0000 -0.1905053444
C   C3        1.0  0.40060  0.12650  0.79760  1.0000 -0.1905053444
C   C4        1.0  0.59940  0.62650  0.70240  1.0000 -0.1905053444
C   C5        1.0  0.71780  0.80290  0.19820  1.0000 -0.1075497296
C   C6        1.0  0.28220  0.30290  0.30180  1.0000 -0.1075497296
C   C7        1.0  0.28220  0.19710  0.80180  1.0000 -0.1075497296
C   C8        1.0  0.71780  0.69710  0.69820  1.0000 -0.1075497296
C   C9        1.0  0.85340  0.85750  0.19400  1.0000 -0.197421588
C   C10       1.0  0.14660  0.35750  0.30600  1.0000 -0.197421588
C   C11       1.0  0.14660  0.14250  0.80600  1.0000 -0.197421588
C   C12       1.0  0.85340  0.64250  0.69400  1.0000 -0.197421588
C   C13       1.0  0.78550  0.92730  0.11740  1.0000 -0.1295687594
C   C14       1.0  0.21450  0.42730  0.38260  1.0000 -0.1295687594
C   C15       1.0  0.21450  0.07270  0.88260  1.0000 -0.1295687594
C   C16       1.0  0.78550  0.57270  0.61740  1.0000 -0.1295687594
C   C17       1.0  0.66950  0.99650  0.12280  1.0000 -0.1905053444
C   C18       1.0  0.33050  0.49650  0.37720  1.0000 -0.1905053444
C   C19       1.0  0.33050  0.00350  0.87720  1.0000 -0.1905053444
C   C20       1.0  0.66950  0.50350  0.62280  1.0000 -0.1905053444
C   C21       1.0  0.53520  0.94320  0.12730  1.0000 -0.1075497296
C   C22       1.0  0.46480  0.44320  0.37270  1.0000 -0.1075497296
C   C23       1.0  0.46480  0.05680  0.87270  1.0000 -0.1075497296
C   C24       1.0  0.53520  0.55680  0.62730  1.0000 -0.1045748927
C   C25       1.0  0.40320  0.00890  0.12230  1.0000 0.563564945
C   C26       1.0  0.59680  0.50890  0.37770  1.0000 0.563564945
C   C27       1.0  0.59680  0.99110  0.87770  1.0000 0.563564945
C   C28       1.0  0.40320  0.49110  0.62230  1.0000 0.563564945
C   C29       1.0  0.77930  0.73460  0.27560  1.0000 0.5702620335
C   C30       1.0  0.22070  0.23460  0.22440  1.0000 0.5702620335
C   C31       1.0  0.22070  0.26540  0.72440  1.0000 0.5702620335
C   C32       1.0  0.77930  0.76540  0.77560  1.0000 0.5702620335
C   C33       1.0  0.91770  0.98130  0.11180  1.0000 0.6183388121
C   C34       1.0  0.08230  0.48130  0.38820  1.0000 0.6183388121
C   C35       1.0  0.08230  0.01870  0.88820  1.0000 0.6183388121
C   C36       1.0  0.91770  0.51870  0.61180  1.0000 0.6183388121
O   O1        1.0  0.39750  0.09450  0.10250  1.0000 -0.5996409783
O   O2        1.0  0.60250  0.59450  0.39750  1.0000 -0.5996409783
O   O3        1.0  0.60250  0.90550  0.89750  1.0000 -0.5996409783
O   O4        1.0  0.39750  0.40550  0.60250  1.0000 -0.5996409783
O   O5        1.0  0.29620  0.97020  0.13530  1.0000 -0.626183372
O   O6        1.0  0.70380  0.47020  0.36470  1.0000 -0.626183372
O   O7        1.0  0.70380  0.02980  0.86470  1.0000 -0.626183372
O   O8        1.0  0.29620  0.52980  0.63530  1.0000 -0.626183372
O   O9        1.0  0.94310  0.96250  0.04930  1.0000 -0.7372013592
O   O10       1.0  0.05690  0.46250  0.45070  1.0000 -0.7372013592
O   O11       1.0  0.05690  0.03750  0.95070  1.0000 -0.7372013592
O   O12       1.0  0.94310  0.53750  0.54930  1.0000 -0.7372013592
O   O13       1.0  0.99780  0.04440  0.16520  1.0000 -0.5535330636
O   O14       1.0  0.00220  0.54440  0.33480  1.0000 -0.5535330636
O   O15       1.0  0.00220  0.95560  0.83480  1.0000 -0.5569544099
O   O16       1.0  0.99780  0.45560  0.66520  1.0000 -0.5535330636
O   O17       1.0  0.69050  0.66380  0.26760  1.0000 -0.5996409783
O   O18       1.0  0.30950  0.16380  0.23240  1.0000 -0.6061453484
O   O19       1.0  0.30950  0.33620  0.73240  1.0000 -0.6061453484
O   O20       1.0  0.69050  0.83620  0.76760  1.0000 -0.6061453484
O   O21       1.0  0.90830  0.74790  0.34220  1.0000 -0.5996409783
O   O22       1.0  0.09170  0.24790  0.15780  1.0000 -0.5996409783
O   O23       1.0  0.09170  0.25210  0.65780  1.0000 -0.5996409783
O   O24       1.0  0.90830  0.75210  0.84220  1.0000 -0.5996409783
