# DDEC6 charges by PACMAN v1.3 (https://github.com/mtap-research/PACMAN-charge/)
data_2008[Ga][bpq]3[ASR]1_pacman
_symmetry_space_group_name_H-M   'P 1'
_cell_length_a   11.18090000
_cell_length_b   11.18090000
_cell_length_c   11.18090000
_cell_angle_alpha   144.94800000
_cell_angle_beta   120.70200000
_cell_angle_gamma   70.77950000
_symmetry_Int_Tables_number   1
_chemical_formula_structural   GaH5C8O5
_chemical_formula_sum   'Ga2 H10 C16 O10'
_cell_volume   678.99494165
_cell_formula_units_Z   2
loop_
 _symmetry_equiv_pos_site_id
 _symmetry_equiv_pos_as_xyz
  1  'x, y, z'
loop_
 _atom_site_type_symbol
 _atom_site_label
 _atom_site_symmetry_multiplicity
 _atom_site_fract_x
 _atom_site_fract_y
 _atom_site_fract_z
 _atom_site_occupancy
 _atom_site_charge
Ga  Ga1  1  0.50000000  0.50000000  0.50000000  1.0 1.3604375274
Ga  Ga2  1  0.50000000  0.00000000  0.00000000  1.0 1.3604375274
H  H1  1  0.34700000  0.75000000  0.59700000  1.0 0.3931447417
H  H2  1  0.65300000  0.25000000  0.40300000  1.0 0.3931447417
H  H3  1  0.89740000  0.65150000  0.66370000  1.0 0.1221919582
H  H4  1  0.51220000  0.84850000  0.24590000  1.0 0.1221919582
H  H5  1  0.10260000  0.76630000  0.75410000  1.0 0.1221919582
H  H6  1  0.48780000  0.73370000  0.33630000  1.0 0.1221919582
H  H7  1  0.10260000  0.34850000  0.33630000  1.0 0.1221919582
H  H8  1  0.48780000  0.15150000  0.75410000  1.0 0.1221919582
H  H9  1  0.89740000  0.23370000  0.24590000  1.0 0.1221919582
H  H10  1  0.51220000  0.26630000  0.66370000  1.0 0.1221919582
C  C1  1  0.87610000  0.93130000  0.94480000  1.0 -0.0099871314
C  C2  1  0.51350000  0.56870000  0.94480000  1.0 -0.0099871314
C  C3  1  0.12390000  0.06870000  0.05520000  1.0 -0.0099871314
C  C4  1  0.48650000  0.43130000  0.05520000  1.0 -0.0099871314
C  C5  1  0.73970000  0.85580000  0.88390000  1.0 0.5886067451
C  C6  1  0.52810000  0.64420000  0.88390000  1.0 0.5886067451
C  C7  1  0.26030000  0.14420000  0.11610000  1.0 0.5886067451
C  C8  1  0.47190000  0.35580000  0.11610000  1.0 0.5886067451
C  C9  1  0.93770000  0.79440000  0.80150000  1.0 -0.117904257
C  C10  1  0.50710000  0.70560000  0.14330000  1.0 -0.117904257
C  C11  1  0.06230000  0.86380000  0.85670000  1.0 -0.117904257
C  C12  1  0.49290000  0.63620000  0.19850000  1.0 -0.117904257
C  C13  1  0.06230000  0.20560000  0.19850000  1.0 -0.117904257
C  C14  1  0.49290000  0.29440000  0.85670000  1.0 -0.117904257
C  C15  1  0.93770000  0.13620000  0.14330000  1.0 -0.117904257
C  C16  1  0.50710000  0.36380000  0.80150000  1.0 -0.117904257
O  O1  1  0.42080000  0.75000000  0.67080000  1.0 -0.8363795727
O  O2  1  0.57920000  0.25000000  0.32920000  1.0 -0.8363795727
O  O3  1  0.69050000  0.66820000  0.70070000  1.0 -0.5228981822
O  O4  1  0.53250000  0.83180000  0.02230000  1.0 -0.5228981822
O  O5  1  0.30950000  0.01020000  0.97770000  1.0 -0.5228981822
O  O6  1  0.46750000  0.48980000  0.29930000  1.0 -0.5228981822
O  O7  1  0.30950000  0.33180000  0.29930000  1.0 -0.5228981822
O  O8  1  0.46750000  0.16820000  0.97770000  1.0 -0.5228981822
O  O9  1  0.69050000  0.98980000  0.02230000  1.0 -0.5228981822
O  O10  1  0.53250000  0.51020000  0.70070000  1.0 -0.5228981822
