# DDEC6 charges by PACMAN v1.1 (https://github.com/mtap-research/PACMAN-charge/)
data_2008[Co][dia]3[ASR]2
_chemical_formula_sum              "Co12 H24 C24 O48"
_cell_length_a       11.255
_cell_length_b       9.826
_cell_length_c       18.1824
_cell_angle_alpha    90
_cell_angle_beta     126.885
_cell_angle_gamma    90

_symmetry_space_group_name_H-M    "P 1"
_symmetry_Int_Tables_number       1

loop_
  _symmetry_equiv_pos_as_xyz
  'x, y, z'

loop_
  _atom_site_type_symbol
  _atom_site_label
  _atom_site_symmetry_multiplicity
  _atom_site_fract_x
  _atom_site_fract_y
  _atom_site_fract_z
  _atom_site_occupancy
  _atom_site_charge
Co  Co1       1.0  0.37670  0.08038  0.13269  1.0000 0.9518151123
Co  Co2       1.0  0.62330  0.58038  0.36731  1.0000 0.9518151123
Co  Co3       1.0  0.62330  0.91962  0.86731  1.0000 0.9518151123
Co  Co4       1.0  0.37670  0.41962  0.63269  1.0000 0.9518151123
Co  Co5       1.0  0.57040  0.89119  0.31063  1.0000 0.9344102282
Co  Co6       1.0  0.42960  0.39119  0.18937  1.0000 0.9344102282
Co  Co7       1.0  0.42960  0.10881  0.68937  1.0000 0.9363238949
Co  Co8       1.0  0.57040  0.60881  0.81063  1.0000 0.9344102282
Co  Co9       1.0  0.50000  0.00000  0.00000  1.0000 0.9837109982
Co  Co10      1.0  0.50000  0.50000  0.50000  1.0000 0.9837109982
Co  Co11      1.0  0.00000  0.00000  0.00000  1.0000 0.9867964525
Co  Co12      1.0  0.00000  0.50000  0.50000  1.0000 0.9837109982
H   H1        1.0  0.50590  0.24330  0.36580  1.0000 0.110696953
H   H2        1.0  0.49410  0.74330  0.13420  1.0000 0.110696953
H   H3        1.0  0.49410  0.75670  0.63420  1.0000 0.110696953
H   H4        1.0  0.50590  0.25670  0.86580  1.0000 0.110696953
H   H5        1.0  0.24960  0.81160  0.23130  1.0000 0.110696953
H   H6        1.0  0.75040  0.31160  0.26870  1.0000 0.110696953
H   H7        1.0  0.75040  0.18840  0.76870  1.0000 0.110696953
H   H8        1.0  0.24960  0.68840  0.73130  1.0000 0.110696953
H   H9        1.0  0.97910  0.79770  0.48830  1.0000 0.110696953
H   H10       1.0  0.02090  0.29770  0.01170  1.0000 0.110696953
H   H11       1.0  0.02090  0.20230  0.51170  1.0000 0.110696953
H   H12       1.0  0.97910  0.70230  0.98830  1.0000 0.110696953
H   H13       1.0  0.47590  0.38160  0.03750  1.0000 0.1013357777
H   H14       1.0  0.52410  0.88160  0.46250  1.0000 0.1013357777
H   H15       1.0  0.52410  0.61840  0.96250  1.0000 0.1013357777
H   H16       1.0  0.47590  0.11840  0.53750  1.0000 0.1013357777
H   H17       1.0  0.24090  0.82750  0.93820  1.0000 0.1013357777
H   H18       1.0  0.75910  0.32750  0.56180  1.0000 0.1013357777
H   H19       1.0  0.75910  0.17250  0.06180  1.0000 0.1013357777
H   H20       1.0  0.24090  0.67250  0.43820  1.0000 0.1013357777
H   H21       1.0  0.20950  0.02690  0.73500  1.0000 0.1013357777
H   H22       1.0  0.79050  0.52690  0.76500  1.0000 0.1013357777
H   H23       1.0  0.79050  0.97310  0.26500  1.0000 0.1013357777
H   H24       1.0  0.20950  0.47310  0.23500  1.0000 0.1013357777
C   C1        1.0  0.49790  0.17290  0.32890  1.0000 0.4842807937
C   C2        1.0  0.50210  0.67290  0.17110  1.0000 0.4842807937
C   C3        1.0  0.50210  0.82710  0.67110  1.0000 0.4842807937
C   C4        1.0  0.49790  0.32710  0.82890  1.0000 0.4842807937
C   C5        1.0  0.23130  0.87010  0.18530  1.0000 0.4684784178
C   C6        1.0  0.76870  0.37010  0.31470  1.0000 0.4684784178
C   C7        1.0  0.76870  0.12990  0.81470  1.0000 0.4684784178
C   C8        1.0  0.23130  0.62990  0.68530  1.0000 0.4684784178
C   C9        1.0  0.87770  0.78030  0.44780  1.0000 0.4919107098
C   C10       1.0  0.12230  0.28030  0.05220  1.0000 0.4919107098
C   C11       1.0  0.12230  0.21970  0.55220  1.0000 0.4919107098
C   C12       1.0  0.87770  0.71970  0.94780  1.0000 0.4919107098
C   C13       1.0  0.46900  0.28950  0.04620  1.0000 0.4684784178
C   C14       1.0  0.53100  0.78950  0.45380  1.0000 0.4684784178
C   C15       1.0  0.53100  0.71050  0.95380  1.0000 0.4684784178
C   C16       1.0  0.46900  0.21050  0.54620  1.0000 0.4684784178
C   C17       1.0  0.23120  0.88930  0.97300  1.0000 0.4919107098
C   C18       1.0  0.76880  0.38930  0.52700  1.0000 0.4919107098
C   C19       1.0  0.76880  0.11070  0.02700  1.0000 0.4919107098
C   C20       1.0  0.23120  0.61070  0.47300  1.0000 0.4919107098
C   C21       1.0  0.30400  0.00850  0.78820  1.0000 0.4684784178
C   C22       1.0  0.69600  0.50850  0.71180  1.0000 0.4684784178
C   C23       1.0  0.69600  0.99150  0.21180  1.0000 0.4684784178
C   C24       1.0  0.30400  0.49150  0.28820  1.0000 0.4684784178
O   O1        1.0  0.43420  0.20090  0.24510  1.0000 -0.5603036832
O   O2        1.0  0.56580  0.70090  0.25490  1.0000 -0.5603036832
O   O3        1.0  0.56580  0.79910  0.75490  1.0000 -0.5603036832
O   O4        1.0  0.43420  0.29910  0.74510  1.0000 -0.5603036832
O   O5        1.0  0.55070  0.06150  0.36700  1.0000 -0.5022578668
O   O6        1.0  0.44930  0.56150  0.13300  1.0000 -0.5022578668
O   O7        1.0  0.44930  0.93850  0.63300  1.0000 -0.5022578668
O   O8        1.0  0.55070  0.43850  0.86700  1.0000 -0.5022578668
O   O9        1.0  0.34468  0.91730  0.19498  1.0000 -0.5603036832
O   O10       1.0  0.65532  0.41730  0.30502  1.0000 -0.5603036832
O   O11       1.0  0.65532  0.08270  0.80502  1.0000 -0.5603036832
O   O12       1.0  0.34468  0.58270  0.69498  1.0000 -0.5603036832
O   O13       1.0  0.10090  0.89240  0.12280  1.0000 -0.4823842209
O   O14       1.0  0.89910  0.39240  0.37720  1.0000 -0.4823842209
O   O15       1.0  0.89910  0.10760  0.87720  1.0000 -0.4823842209
O   O16       1.0  0.10090  0.60760  0.62280  1.0000 -0.4823842209
O   O17       1.0  0.79590  0.87960  0.40750  1.0000 -0.5022578668
O   O18       1.0  0.20410  0.37960  0.09250  1.0000 -0.5022578668
O   O19       1.0  0.20410  0.12040  0.59250  1.0000 -0.5022578668
O   O20       1.0  0.79590  0.62040  0.90750  1.0000 -0.5022578668
O   O21       1.0  0.83735  0.65580  0.43965  1.0000 -0.5603036832
O   O22       1.0  0.16265  0.15580  0.06035  1.0000 -0.5603036832
O   O23       1.0  0.16265  0.34420  0.56035  1.0000 -0.5603036832
O   O24       1.0  0.83735  0.84420  0.93965  1.0000 -0.5603036832
O   O25       1.0  0.45552  0.25830  0.10862  1.0000 -0.5603036832
O   O26       1.0  0.54448  0.75830  0.39138  1.0000 -0.5603036832
O   O27       1.0  0.54448  0.74170  0.89138  1.0000 -0.5603036832
O   O28       1.0  0.45552  0.24170  0.60862  1.0000 -0.5603036832
O   O29       1.0  0.47380  0.20840  0.99570  1.0000 -0.5102656793
O   O30       1.0  0.52620  0.70840  0.50430  1.0000 -0.5102656793
O   O31       1.0  0.52620  0.79160  0.00430  1.0000 -0.5102656793
O   O32       1.0  0.47380  0.29160  0.49570  1.0000 -0.5102656793
O   O33       1.0  0.33935  0.97020  0.02415  1.0000 -0.5603036832
O   O34       1.0  0.66065  0.47020  0.47585  1.0000 -0.5603036832
O   O35       1.0  0.66065  0.02980  0.97585  1.0000 -0.5603036832
O   O36       1.0  0.33935  0.52980  0.52415  1.0000 -0.5603036832
O   O37       1.0  0.11480  0.88540  0.96550  1.0000 -0.5102656793
O   O38       1.0  0.88520  0.38540  0.53450  1.0000 -0.5102656793
O   O39       1.0  0.88520  0.11460  0.03450  1.0000 -0.5102656793
O   O40       1.0  0.11480  0.61460  0.46550  1.0000 -0.5102656793
O   O41       1.0  0.40954  0.00260  0.78104  1.0000 -0.5656102758
O   O42       1.0  0.59046  0.50260  0.71896  1.0000 -0.5656102758
O   O43       1.0  0.59046  0.99740  0.21896  1.0000 -0.5656102758
O   O44       1.0  0.40954  0.49740  0.28104  1.0000 -0.5656102758
O   O45       1.0  0.31640  0.99190  0.86000  1.0000 -0.5102656793
O   O46       1.0  0.68360  0.49190  0.64000  1.0000 -0.5022578668
O   O47       1.0  0.68360  0.00810  0.14000  1.0000 -0.5102656793
O   O48       1.0  0.31640  0.50810  0.36000  1.0000 -0.5022578668
