# DDEC6 charges by PACMAN v1.1 (https://github.com/mtap-research/PACMAN-charge/)
data_2008[Cd][pts]3[ASR]1
_chemical_formula_sum              "Cd4 H8 C40 O32"
_cell_length_a       11.8243
_cell_length_b       12.9012
_cell_length_c       14.5816
_cell_angle_alpha    90
_cell_angle_beta     90
_cell_angle_gamma    90

_symmetry_space_group_name_H-M    "P 1"
_symmetry_Int_Tables_number       1

loop_
  _symmetry_equiv_pos_as_xyz
  'x, y, z'

loop_
  _atom_site_type_symbol
  _atom_site_label
  _atom_site_symmetry_multiplicity
  _atom_site_fract_x
  _atom_site_fract_y
  _atom_site_fract_z
  _atom_site_occupancy
  _atom_site_charge
Cd  Cd1       1.0  0.02373  0.50211  0.25495  1.0000 0.9895931034
Cd  Cd2       1.0  0.52373  0.49789  0.74506  1.0000 0.9895931034
Cd  Cd3       1.0  0.02373  0.00211  0.24506  1.0000 0.9895931034
Cd  Cd4       1.0  0.52373  0.99789  0.75495  1.0000 0.9895931034
H   H1        1.0  0.27900  0.43710  0.99269  1.0000 0.1400012838
H   H2        1.0  0.77900  0.56290  0.00730  1.0000 0.1400012838
H   H3        1.0  0.27900  0.93710  0.50731  1.0000 0.1400012838
H   H4        1.0  0.77900  0.06290  0.49269  1.0000 0.1400012838
H   H5        1.0  0.28100  0.07230  0.01189  1.0000 0.1400012838
H   H6        1.0  0.78100  0.92770  0.98811  1.0000 0.1400012838
H   H7        1.0  0.28100  0.57230  0.48811  1.0000 0.1400012838
H   H8        1.0  0.78100  0.42770  0.51189  1.0000 0.1400012838
C   C1        1.0  0.14417  0.38419  0.12831  1.0000 0.5407790441
C   C2        1.0  0.64417  0.61581  0.87169  1.0000 0.5407790441
C   C3        1.0  0.14417  0.88419  0.37169  1.0000 0.5407790441
C   C4        1.0  0.64417  0.11581  0.62831  1.0000 0.5407790441
C   C5        1.0  0.20828  0.31464  0.06356  1.0000 -0.0126583033
C   C6        1.0  0.70828  0.68536  0.93644  1.0000 -0.0126583033
C   C7        1.0  0.20828  0.81464  0.43645  1.0000 -0.0126583033
C   C8        1.0  0.70828  0.18536  0.56356  1.0000 -0.0126583033
C   C9        1.0  0.20585  0.20615  0.06609  1.0000 0.0301299154
C   C10       1.0  0.70585  0.79385  0.93392  1.0000 0.0301299154
C   C11       1.0  0.20585  0.70615  0.43392  1.0000 0.0301299154
C   C12       1.0  0.70585  0.29385  0.56608  1.0000 0.0301299154
C   C13       1.0  0.12502  0.14228  0.12301  1.0000 0.5407790441
C   C14       1.0  0.62502  0.85772  0.87700  1.0000 0.5407790441
C   C15       1.0  0.12502  0.64228  0.37700  1.0000 0.5407790441
C   C16       1.0  0.62502  0.35772  0.62301  1.0000 0.5407790441
C   C17       1.0  0.27810  0.15083  0.00822  1.0000 -0.0979659932
C   C18       1.0  0.77810  0.84917  0.99179  1.0000 -0.0979659932
C   C19       1.0  0.27810  0.65083  0.49179  1.0000 -0.0979659932
C   C20       1.0  0.77810  0.34917  0.50821  1.0000 -0.0979659932
C   C21       1.0  0.34840  0.19942  0.94464  1.0000 0.0301299154
C   C22       1.0  0.84840  0.80058  0.05536  1.0000 0.0301299154
C   C23       1.0  0.34840  0.69942  0.55537  1.0000 0.0301299154
C   C24       1.0  0.84840  0.30058  0.44464  1.0000 0.0301299154
C   C25       1.0  0.42354  0.13049  0.88631  1.0000 0.5407790441
C   C26       1.0  0.92354  0.86951  0.11370  1.0000 0.5407790441
C   C27       1.0  0.42354  0.63049  0.61369  1.0000 0.5407790441
C   C28       1.0  0.92354  0.36951  0.38631  1.0000 0.5407790441
C   C29       1.0  0.34497  0.30767  0.93815  1.0000 -0.0126583033
C   C30       1.0  0.84497  0.69233  0.06186  1.0000 -0.0126583033
C   C31       1.0  0.34497  0.80767  0.56185  1.0000 -0.0126583033
C   C32       1.0  0.84497  0.19233  0.43815  1.0000 -0.0126583033
C   C33       1.0  0.41087  0.36738  0.86762  1.0000 0.5324566214
C   C34       1.0  0.91087  0.63262  0.13239  1.0000 0.5324566214
C   C35       1.0  0.41087  0.86738  0.63238  1.0000 0.5324566214
C   C36       1.0  0.91087  0.13262  0.36762  1.0000 0.5324566214
C   C37       1.0  0.27700  0.36262  0.99896  1.0000 -0.0759362524
C   C38       1.0  0.77700  0.63738  0.00104  1.0000 -0.0759362524
C   C39       1.0  0.27700  0.86262  0.50105  1.0000 -0.0759362524
C   C40       1.0  0.77700  0.13738  0.49896  1.0000 -0.0759362524
O   O1        1.0  0.14730  0.47946  0.11477  1.0000 -0.419916476
O   O2        1.0  0.64730  0.52054  0.88524  1.0000 -0.419916476
O   O3        1.0  0.14730  0.97946  0.38523  1.0000 -0.419916476
O   O4        1.0  0.64730  0.02054  0.61477  1.0000 -0.419916476
O   O5        1.0  0.09262  0.34461  0.19531  1.0000 -0.419916476
O   O6        1.0  0.59262  0.65539  0.80469  1.0000 -0.419916476
O   O7        1.0  0.09262  0.84461  0.30468  1.0000 -0.419916476
O   O8        1.0  0.59262  0.15539  0.69532  1.0000 -0.419916476
O   O9        1.0  0.02362  0.14152  0.10304  1.0000 -0.3912943119
O   O10       1.0  0.52362  0.85848  0.89697  1.0000 -0.3912943119
O   O11       1.0  0.02362  0.64152  0.39697  1.0000 -0.3912943119
O   O12       1.0  0.52362  0.35848  0.60304  1.0000 -0.3912943119
O   O13       1.0  0.16975  0.08693  0.18533  1.0000 -0.4304170089
O   O14       1.0  0.66975  0.91307  0.81466  1.0000 -0.4304170089
O   O15       1.0  0.16975  0.58693  0.31466  1.0000 -0.4304170089
O   O16       1.0  0.66975  0.41307  0.68534  1.0000 -0.4304170089
O   O17       1.0  0.37887  0.08996  0.81700  1.0000 -0.4304170089
O   O18       1.0  0.87887  0.91004  0.18301  1.0000 -0.4304170089
O   O19       1.0  0.37887  0.58996  0.68300  1.0000 -0.4304170089
O   O20       1.0  0.87887  0.41004  0.31700  1.0000 -0.4304170089
O   O21       1.0  0.52128  0.11338  0.91225  1.0000 -0.3912943119
O   O22       1.0  0.02128  0.88662  0.08776  1.0000 -0.3912943119
O   O23       1.0  0.52128  0.61338  0.58776  1.0000 -0.3912943119
O   O24       1.0  0.02128  0.38662  0.41225  1.0000 -0.3912943119
O   O25       1.0  0.47549  0.32280  0.81488  1.0000 -0.3822583334
O   O26       1.0  0.97549  0.67720  0.18513  1.0000 -0.3822583334
O   O27       1.0  0.47549  0.82280  0.68512  1.0000 -0.3822583334
O   O28       1.0  0.97549  0.17720  0.31488  1.0000 -0.3822583334
O   O29       1.0  0.39528  0.46345  0.86245  1.0000 -0.419916476
O   O30       1.0  0.89528  0.53655  0.13756  1.0000 -0.419916476
O   O31       1.0  0.39528  0.96345  0.63756  1.0000 -0.419916476
O   O32       1.0  0.89528  0.03655  0.36245  1.0000 -0.419916476
