# DDEC6 charges by PACMAN v1.1 (https://github.com/mtap-research/PACMAN-charge/)
data_2008[Zn][nan]3[ASR]14
_chemical_formula_sum              "Zn6 H6 C24 O18"
_cell_length_a       15.2843
_cell_length_b       15.2843
_cell_length_c       15.2843
_cell_angle_alpha    118.132
_cell_angle_beta     118.132
_cell_angle_gamma    118.132

_symmetry_space_group_name_H-M    "P 1"
_symmetry_Int_Tables_number       1

loop_
  _symmetry_equiv_pos_as_xyz
  'x, y, z'

loop_
  _atom_site_type_symbol
  _atom_site_label
  _atom_site_symmetry_multiplicity
  _atom_site_fract_x
  _atom_site_fract_y
  _atom_site_fract_z
  _atom_site_occupancy
  _atom_site_charge
Zn  Zn1       1.0  0.36404  0.94061  0.67695  1.0000 0.9855536581
Zn  Zn2       1.0  0.94061  0.67695  0.36404  1.0000 0.9855536581
Zn  Zn3       1.0  0.67695  0.36404  0.94061  1.0000 0.9855536581
Zn  Zn4       1.0  0.63596  0.05939  0.32305  1.0000 0.9848267795
Zn  Zn5       1.0  0.05939  0.32305  0.63596  1.0000 0.9855536581
Zn  Zn6       1.0  0.32305  0.63596  0.05939  1.0000 0.9848267795
H   H1        1.0  0.68223  0.11579  0.14739  1.0000 0.1563973339
H   H2        1.0  0.11579  0.14739  0.68223  1.0000 0.1563973339
H   H3        1.0  0.14739  0.68223  0.11579  1.0000 0.1563973339
H   H4        1.0  0.31777  0.88421  0.85261  1.0000 0.1563973339
H   H5        1.0  0.88421  0.85261  0.31777  1.0000 0.1563973339
H   H6        1.0  0.85261  0.31777  0.88421  1.0000 0.1563973339
C   C1        1.0  0.73468  0.29347  0.12840  1.0000 0.6084162654
C   C2        1.0  0.29347  0.12840  0.73468  1.0000 0.6084162654
C   C3        1.0  0.12840  0.73468  0.29347  1.0000 0.6084162654
C   C4        1.0  0.26532  0.70653  0.87160  1.0000 0.6084162654
C   C5        1.0  0.70653  0.87160  0.26532  1.0000 0.6084162654
C   C6        1.0  0.87160  0.26532  0.70653  1.0000 0.6084162654
C   C7        1.0  0.86134  0.39604  0.31329  1.0000 -0.1798737832
C   C8        1.0  0.39604  0.31329  0.86134  1.0000 -0.1798737832
C   C9        1.0  0.31329  0.86134  0.39604  1.0000 -0.1798737832
C   C10       1.0  0.13866  0.60396  0.68671  1.0000 -0.1798737832
C   C11       1.0  0.60396  0.68671  0.13866  1.0000 -0.1798737832
C   C12       1.0  0.68671  0.13866  0.60396  1.0000 -0.1798737832
C   C13       1.0  0.05707  0.62591  0.52420  1.0000 0.3169308266
C   C14       1.0  0.62591  0.52420  0.05707  1.0000 0.3169308266
C   C15       1.0  0.52420  0.05707  0.62591  1.0000 0.3169308266
C   C16       1.0  0.94293  0.37409  0.47580  1.0000 0.3169308266
C   C17       1.0  0.37409  0.47580  0.94293  1.0000 0.3169308266
C   C18       1.0  0.47580  0.94293  0.37409  1.0000 0.3169308266
C   C19       1.0  0.81165  0.27173  0.29145  1.0000 -0.2032424399
C   C20       1.0  0.27173  0.29145  0.81165  1.0000 -0.2032424399
C   C21       1.0  0.29145  0.81165  0.27173  1.0000 -0.2032424399
C   C22       1.0  0.18835  0.72827  0.70855  1.0000 -0.2032424399
C   C23       1.0  0.72827  0.70855  0.18835  1.0000 -0.2032424399
C   C24       1.0  0.70855  0.18835  0.72827  1.0000 -0.2032424399
O   O1        1.0  0.60754  0.11036  0.95922  1.0000 -0.4862236221
O   O2        1.0  0.11036  0.95922  0.60754  1.0000 -0.4862236221
O   O3        1.0  0.95922  0.60754  0.11036  1.0000 -0.4862236221
O   O4        1.0  0.39246  0.88964  0.04078  1.0000 -0.4862236221
O   O5        1.0  0.88964  0.04078  0.39246  1.0000 -0.4862236221
O   O6        1.0  0.04078  0.39246  0.88964  1.0000 -0.4862236221
O   O7        1.0  0.71512  0.36055  0.11565  1.0000 -0.5758034029
O   O8        1.0  0.36055  0.11565  0.71512  1.0000 -0.5758034029
O   O9        1.0  0.11565  0.71512  0.36055  1.0000 -0.5758034029
O   O10       1.0  0.28488  0.63945  0.88435  1.0000 -0.5758034029
O   O11       1.0  0.63945  0.88435  0.28488  1.0000 -0.5758034029
O   O12       1.0  0.88435  0.28488  0.63945  1.0000 -0.5758034029
O   O13       1.0  0.11084  0.74752  0.54715  1.0000 -0.6219125429
O   O14       1.0  0.74752  0.54715  0.11084  1.0000 -0.6219125429
O   O15       1.0  0.54715  0.11084  0.74752  1.0000 -0.6219125429
O   O16       1.0  0.88916  0.25248  0.45285  1.0000 -0.6219125429
O   O17       1.0  0.25248  0.45285  0.88916  1.0000 -0.6219125429
O   O18       1.0  0.45285  0.88916  0.25248  1.0000 -0.6219125429
