# DDEC6 charges by PACMAN v1.1 (https://github.com/mtap-research/PACMAN-charge/)
data_2008[CuEu][nan]3[ASR]1
_chemical_formula_sum              "Eu4 Cu4 H32 C56 N8 O32"
_cell_length_a       9.241
_cell_length_b       21.6026
_cell_length_c       9.5545
_cell_angle_alpha    90
_cell_angle_beta     116.151
_cell_angle_gamma    90

_symmetry_space_group_name_H-M    "P 1"
_symmetry_Int_Tables_number       1

loop_
  _symmetry_equiv_pos_as_xyz
  'x, y, z'

loop_
  _atom_site_type_symbol
  _atom_site_label
  _atom_site_symmetry_multiplicity
  _atom_site_fract_x
  _atom_site_fract_y
  _atom_site_fract_z
  _atom_site_occupancy
  _atom_site_charge
Eu  Eu1       1.0  0.12381  0.49151  0.85880  1.0000 2.073565125
Eu  Eu2       1.0  0.37619  0.99151  0.14120  1.0000 2.073565125
Eu  Eu3       1.0  0.87619  0.50849  0.14120  1.0000 2.073565125
Eu  Eu4       1.0  0.62381  0.00849  0.85880  1.0000 2.073565125
Cu  Cu1       1.0  0.04049  0.85427  0.19135  1.0000 0.334302554
Cu  Cu2       1.0  0.45951  0.35427  0.80865  1.0000 0.334302554
Cu  Cu3       1.0  0.95951  0.14573  0.80865  1.0000 0.334302554
Cu  Cu4       1.0  0.54049  0.64573  0.19135  1.0000 0.3363195951
H   H1        1.0  0.99640  0.72360  0.15410  1.0000 0.1094992826
H   H2        1.0  0.50360  0.22360  0.84590  1.0000 0.1094992826
H   H3        1.0  0.00360  0.27640  0.84590  1.0000 0.1094992826
H   H4        1.0  0.49640  0.77640  0.15410  1.0000 0.1094992826
H   H5        1.0  0.10540  0.66640  0.81540  1.0000 0.149404488
H   H6        1.0  0.39460  0.16640  0.18460  1.0000 0.149404488
H   H7        1.0  0.89460  0.33360  0.18460  1.0000 0.149404488
H   H8        1.0  0.60540  0.83360  0.81540  1.0000 0.149404488
H   H9        1.0  0.14870  0.76870  0.77250  1.0000 0.1323339412
H   H10       1.0  0.35130  0.26870  0.22750  1.0000 0.1323339412
H   H11       1.0  0.85130  0.23130  0.22750  1.0000 0.1323339412
H   H12       1.0  0.64870  0.73130  0.77250  1.0000 0.1323339412
H   H13       1.0  0.12240  0.84490  0.92560  1.0000 0.1204622458
H   H14       1.0  0.37760  0.34490  0.07440  1.0000 0.1204622458
H   H15       1.0  0.87760  0.15510  0.07440  1.0000 0.1204622458
H   H16       1.0  0.62240  0.65510  0.92560  1.0000 0.1204622458
H   H17       1.0  0.79310  0.84380  0.29760  1.0000 0.0959033514
H   H18       1.0  0.70690  0.34380  0.70240  1.0000 0.0959033514
H   H19       1.0  0.20690  0.15620  0.70240  1.0000 0.0959033514
H   H20       1.0  0.29310  0.65620  0.29760  1.0000 0.0959033514
H   H21       1.0  0.74600  0.87470  0.50290  1.0000 0.149404488
H   H22       1.0  0.75400  0.37470  0.49710  1.0000 0.149404488
H   H23       1.0  0.25400  0.12530  0.49710  1.0000 0.149404488
H   H24       1.0  0.24600  0.62530  0.50290  1.0000 0.149404488
H   H25       1.0  0.93940  0.93040  0.70300  1.0000 0.1323339412
H   H26       1.0  0.56060  0.43040  0.29700  1.0000 0.1323339412
H   H27       1.0  0.06060  0.06960  0.29700  1.0000 0.1323339412
H   H28       1.0  0.43940  0.56960  0.70300  1.0000 0.1323339412
H   H29       1.0  0.20770  0.92970  0.47160  1.0000 0.1204622458
H   H30       1.0  0.29230  0.42970  0.52840  1.0000 0.1204622458
H   H31       1.0  0.79230  0.07030  0.52840  1.0000 0.1204622458
H   H32       1.0  0.70770  0.57030  0.47160  1.0000 0.1204622458
C   C1        1.0  0.02940  0.73270  0.07750  1.0000 0.030571165
C   C2        1.0  0.47060  0.23270  0.92250  1.0000 0.030571165
C   C3        1.0  0.97060  0.26730  0.92250  1.0000 0.030571165
C   C4        1.0  0.52940  0.76730  0.07750  1.0000 0.030571165
C   C5        1.0  0.04640  0.68440  0.99200  1.0000 -0.0665018787
C   C6        1.0  0.45360  0.18440  0.00800  1.0000 -0.0665018787
C   C7        1.0  0.95360  0.31560  0.00800  1.0000 -0.0665018787
C   C8        1.0  0.54640  0.81560  0.99200  1.0000 -0.0665018787
C   C9        1.0  0.09270  0.69780  0.87550  1.0000 -0.0441611153
C   C10       1.0  0.40730  0.19780  0.12450  1.0000 -0.0441611153
C   C11       1.0  0.90730  0.30220  0.12450  1.0000 -0.0441611153
C   C12       1.0  0.59270  0.80220  0.87550  1.0000 -0.0441611153
C   C13       1.0  0.11930  0.75850  0.85100  1.0000 -0.1420588051
C   C14       1.0  0.38070  0.25850  0.14900  1.0000 -0.1420588051
C   C15       1.0  0.88070  0.24150  0.14900  1.0000 -0.1420588051
C   C16       1.0  0.61930  0.74150  0.85100  1.0000 -0.1420588051
C   C17       1.0  0.10230  0.80420  0.94280  1.0000 0.0833048499
C   C18       1.0  0.39770  0.30420  0.05720  1.0000 0.0833048499
C   C19       1.0  0.89770  0.19580  0.05720  1.0000 0.0833048499
C   C20       1.0  0.60230  0.69580  0.94280  1.0000 0.0833048499
C   C21       1.0  0.01150  0.61990  0.02620  1.0000 0.6085575218
C   C22       1.0  0.48850  0.11990  0.97380  1.0000 0.6085575218
C   C23       1.0  0.98850  0.38010  0.97380  1.0000 0.6085575218
C   C24       1.0  0.51150  0.88010  0.02620  1.0000 0.6085575218
C   C25       1.0  0.87050  0.86760  0.37610  1.0000 0.0664282809
C   C26       1.0  0.62950  0.36760  0.62390  1.0000 0.0664282809
C   C27       1.0  0.12950  0.13240  0.62390  1.0000 0.0664282809
C   C28       1.0  0.37050  0.63240  0.37610  1.0000 0.0664282809
C   C29       1.0  0.84200  0.88530  0.49980  1.0000 -0.108990178
C   C30       1.0  0.65800  0.38530  0.50020  1.0000 -0.108990178
C   C31       1.0  0.15800  0.11470  0.50020  1.0000 -0.108990178
C   C32       1.0  0.34200  0.61470  0.49980  1.0000 -0.108990178
C   C33       1.0  0.95590  0.91860  0.61740  1.0000 -0.0574284648
C   C34       1.0  0.54410  0.41860  0.38260  1.0000 -0.0574284648
C   C35       1.0  0.04410  0.08140  0.38260  1.0000 -0.0574284648
C   C36       1.0  0.45590  0.58140  0.61740  1.0000 -0.0574284648
C   C37       1.0  0.09650  0.93490  0.60900  1.0000 -0.0665018787
C   C38       1.0  0.40350  0.43490  0.39100  1.0000 -0.0665018787
C   C39       1.0  0.90350  0.06510  0.39100  1.0000 -0.0665018787
C   C40       1.0  0.59650  0.56510  0.60900  1.0000 -0.0665018787
C   C41       1.0  0.11520  0.91730  0.47950  1.0000 0.0560131106
C   C42       1.0  0.38480  0.41730  0.52050  1.0000 0.0560131106
C   C43       1.0  0.88480  0.08270  0.52050  1.0000 0.0560131106
C   C44       1.0  0.61520  0.58270  0.47950  1.0000 0.0560131106
C   C45       1.0  0.22860  0.97000  0.74130  1.0000 0.6320533748
C   C46       1.0  0.27140  0.47000  0.25870  1.0000 0.6320533748
C   C47       1.0  0.77140  0.03000  0.25870  1.0000 0.6320533748
C   C48       1.0  0.72860  0.53000  0.74130  1.0000 0.6320533748
C   C49       1.0  0.98820  0.46480  0.49190  1.0000 0.4781839247
C   C50       1.0  0.51180  0.96480  0.50810  1.0000 0.4781839247
C   C51       1.0  0.01180  0.53520  0.50810  1.0000 0.4781839247
C   C52       1.0  0.48820  0.03520  0.49190  1.0000 0.4781839247
C   C53       1.0  0.99700  0.96580  0.02310  1.0000 0.486898839
C   C54       1.0  0.50300  0.46580  0.97690  1.0000 0.486898839
C   C55       1.0  0.00300  0.03420  0.97690  1.0000 0.486898839
C   C56       1.0  0.49700  0.53420  0.02310  1.0000 0.486898839
N   N1        1.0  0.05770  0.79220  0.05680  1.0000 -0.1991251488
N   N2        1.0  0.44230  0.29220  0.94320  1.0000 -0.1991251488
N   N3        1.0  0.94230  0.20780  0.94320  1.0000 -0.1991251488
N   N4        1.0  0.55770  0.70780  0.05680  1.0000 -0.1991251488
N   N5        1.0  0.00490  0.88290  0.36340  1.0000 -0.1991251488
N   N6        1.0  0.49510  0.38290  0.63660  1.0000 -0.1991251488
N   N7        1.0  0.99510  0.11710  0.63660  1.0000 -0.1991251488
N   N8        1.0  0.50490  0.61710  0.36340  1.0000 -0.1991251488
O   O1        1.0  0.05150  0.57535  0.96640  1.0000 -0.6962358212
O   O2        1.0  0.44850  0.07535  0.03360  1.0000 -0.6962358212
O   O3        1.0  0.94850  0.42465  0.03360  1.0000 -0.6962358212
O   O4        1.0  0.55150  0.92465  0.96640  1.0000 -0.6962358212
O   O5        1.0  0.94400  0.61333  0.11330  1.0000 -0.6100414847
O   O6        1.0  0.55600  0.11333  0.88670  1.0000 -0.6100414847
O   O7        1.0  0.05600  0.38667  0.88670  1.0000 -0.6100414847
O   O8        1.0  0.44400  0.88667  0.11330  1.0000 -0.6100414847
O   O9        1.0  0.33620  0.99450  0.71290  1.0000 -0.6562187825
O   O10       1.0  0.16380  0.49450  0.28710  1.0000 -0.6562187825
O   O11       1.0  0.66380  0.00550  0.28710  1.0000 -0.6562187825
O   O12       1.0  0.83620  0.50550  0.71290  1.0000 -0.6562187825
O   O13       1.0  0.22090  0.97040  0.86830  1.0000 -0.6562187825
O   O14       1.0  0.27910  0.47040  0.13170  1.0000 -0.6562187825
O   O15       1.0  0.77910  0.02960  0.13170  1.0000 -0.6562187825
O   O16       1.0  0.72090  0.52960  0.86830  1.0000 -0.6562187825
O   O17       1.0  0.05110  0.43382  0.61620  1.0000 -0.5916514997
O   O18       1.0  0.44890  0.93382  0.38380  1.0000 -0.5916514997
O   O19       1.0  0.94890  0.56618  0.38380  1.0000 -0.5916514997
O   O20       1.0  0.55110  0.06618  0.61620  1.0000 -0.5916514997
O   O21       1.0  0.90880  0.44344  0.35750  1.0000 -0.6036751871
O   O22       1.0  0.59120  0.94344  0.64250  1.0000 -0.6036751871
O   O23       1.0  0.09120  0.55656  0.64250  1.0000 -0.6036751871
O   O24       1.0  0.40880  0.05656  0.35750  1.0000 -0.6036751871
O   O25       1.0  0.12860  0.94203  0.11790  1.0000 -0.5811264072
O   O26       1.0  0.37140  0.44203  0.88210  1.0000 -0.5811264072
O   O27       1.0  0.87140  0.05797  0.88210  1.0000 -0.5811264072
O   O28       1.0  0.62860  0.55797  0.11790  1.0000 -0.5811264072
O   O29       1.0  0.86280  0.93900  0.96190  1.0000 -0.5811264072
O   O30       1.0  0.63720  0.43900  0.03810  1.0000 -0.5811264072
O   O31       1.0  0.13720  0.06100  0.03810  1.0000 -0.5811264072
O   O32       1.0  0.36280  0.56100  0.96190  1.0000 -0.5811264072
