# DDEC6 charges by PACMAN v1.1 (https://github.com/mtap-research/PACMAN-charge/)
data_2008[Zn][nan]3[ASR]8
_chemical_formula_sum              "Zn8 H26 C18 S2 N32 O14"
_cell_length_a       12.9082
_cell_length_b       12.9082
_cell_length_c       7.4267
_cell_angle_alpha    85.4656
_cell_angle_beta     94.5344
_cell_angle_gamma    92.1451

_symmetry_space_group_name_H-M    "P 1"
_symmetry_Int_Tables_number       1

loop_
  _symmetry_equiv_pos_as_xyz
  'x, y, z'

loop_
  _atom_site_type_symbol
  _atom_site_label
  _atom_site_symmetry_multiplicity
  _atom_site_fract_x
  _atom_site_fract_y
  _atom_site_fract_z
  _atom_site_occupancy
  _atom_site_charge
Zn  Zn1       1.0  0.15447  0.15447  0.50000  1.0000 0.6401157594
Zn  Zn2       1.0  0.84553  0.84553  0.50000  1.0000 0.6401157594
Zn  Zn3       1.0  0.17925  0.17925  0.00000  1.0000 0.6637535906
Zn  Zn4       1.0  0.82075  0.82075  0.00000  1.0000 0.6637535906
Zn  Zn5       1.0  0.61014  0.21300  0.72233  1.0000 0.8294674075
Zn  Zn6       1.0  0.21300  0.61014  0.27767  1.0000 0.8294674075
Zn  Zn7       1.0  0.38986  0.78700  0.27767  1.0000 0.8294674075
Zn  Zn8       1.0  0.78700  0.38986  0.72233  1.0000 0.8294674075
H   H1        1.0  0.49600  0.26880  0.05820  1.0000 0.3032809189
H   H2        1.0  0.26880  0.49600  0.94180  1.0000 0.3032809189
H   H3        1.0  0.50400  0.73120  0.94180  1.0000 0.3032809189
H   H4        1.0  0.73120  0.50400  0.05820  1.0000 0.3032809189
H   H5        1.0  0.39160  0.26340  0.11570  1.0000 0.2779171458
H   H6        1.0  0.26340  0.39160  0.88430  1.0000 0.2779171458
H   H7        1.0  0.60840  0.73660  0.88430  1.0000 0.2779171458
H   H8        1.0  0.73660  0.60840  0.11570  1.0000 0.2779171458
H   H9        1.0  0.26180  0.86940  0.93840  1.0000 0.3032809189
H   H10       1.0  0.86940  0.26180  0.06160  1.0000 0.3032809189
H   H11       1.0  0.73820  0.13060  0.06160  1.0000 0.3032809189
H   H12       1.0  0.13060  0.73820  0.93840  1.0000 0.3032809189
H   H13       1.0  0.21120  0.96340  0.86850  1.0000 0.3050964093
H   H14       1.0  0.96340  0.21120  0.13150  1.0000 0.3050964093
H   H15       1.0  0.78880  0.03660  0.13150  1.0000 0.3050964093
H   H16       1.0  0.03660  0.78880  0.86850  1.0000 0.3050964093
H   H17       1.0  0.40650  0.16410  0.50290  1.0000 0.1213079309
H   H18       1.0  0.16410  0.40650  0.49710  1.0000 0.1213079309
H   H19       1.0  0.59350  0.83590  0.49710  1.0000 0.1213079309
H   H20       1.0  0.83590  0.59350  0.50290  1.0000 0.1213079309
H   H21       1.0  0.30780  0.95500  0.51310  1.0000 0.1274397886
H   H22       1.0  0.95500  0.30780  0.48690  1.0000 0.1274397886
H   H23       1.0  0.69220  0.04500  0.48690  1.0000 0.1274397886
H   H24       1.0  0.04500  0.69220  0.51310  1.0000 0.1274397886
H   H25       1.0  0.64530  0.35470  0.89600  1.0000 0.3805120057
H   H26       1.0  0.35470  0.64530  0.10400  1.0000 0.3805120057
C   C1        1.0  0.38873  0.17635  0.61810  1.0000 0.1510503656
C   C2        1.0  0.17635  0.38873  0.38190  1.0000 0.1510503656
C   C3        1.0  0.61127  0.82365  0.38190  1.0000 0.1510503656
C   C4        1.0  0.82365  0.61127  0.61810  1.0000 0.1510503656
C   C5        1.0  0.40026  0.21090  0.89240  1.0000 0.4935635096
C   C6        1.0  0.21090  0.40026  0.10760  1.0000 0.4935635096
C   C7        1.0  0.59974  0.78910  0.10760  1.0000 0.4935635096
C   C8        1.0  0.78910  0.59974  0.89240  1.0000 0.4935635096
C   C9        1.0  0.28640  0.97234  0.39230  1.0000 0.1510503656
C   C10       1.0  0.97234  0.28640  0.60770  1.0000 0.1510503656
C   C11       1.0  0.71360  0.02766  0.60770  1.0000 0.1510503656
C   C12       1.0  0.02766  0.71360  0.39230  1.0000 0.1510503656
C   C13       1.0  0.26091  0.96641  0.10800  1.0000 0.4985912061
C   C14       1.0  0.96641  0.26091  0.89200  1.0000 0.4985912061
C   C15       1.0  0.73909  0.03359  0.89200  1.0000 0.4985912061
C   C16       1.0  0.03359  0.73909  0.10800  1.0000 0.4985912061
C   C17       1.0  0.02597  0.97403  0.59020  1.0000 0.4709856725
C   C18       1.0  0.97403  0.02597  0.40980  1.0000 0.4709856725
S   S1        1.0  0.68511  0.31489  0.35188  1.0000 1.3977244115
S   S2        1.0  0.31489  0.68511  0.64812  1.0000 1.3977244115
N   N1        1.0  0.29309  0.17519  0.66300  1.0000 -0.2019389951
N   N2        1.0  0.17519  0.29309  0.33700  1.0000 -0.2019389951
N   N3        1.0  0.70691  0.82481  0.33700  1.0000 -0.2019389951
N   N4        1.0  0.82481  0.70691  0.66300  1.0000 -0.2019389951
N   N5        1.0  0.29967  0.19839  0.84290  1.0000 -0.319907301
N   N6        1.0  0.19839  0.29967  0.15710  1.0000 -0.319907301
N   N7        1.0  0.70033  0.80161  0.15710  1.0000 -0.319907301
N   N8        1.0  0.80161  0.70033  0.84290  1.0000 -0.319907301
N   N9        1.0  0.45984  0.19712  0.75600  1.0000 -0.4294403875
N   N10       1.0  0.19712  0.45984  0.24400  1.0000 -0.4294403875
N   N11       1.0  0.54016  0.80288  0.24400  1.0000 -0.4294403875
N   N12       1.0  0.80288  0.54016  0.75600  1.0000 -0.4294403875
N   N13       1.0  0.43835  0.22995  0.06400  1.0000 -0.6335653671
N   N14       1.0  0.22995  0.43835  0.93600  1.0000 -0.6335653671
N   N15       1.0  0.56165  0.77005  0.93600  1.0000 -0.6335653671
N   N16       1.0  0.77005  0.56165  0.06400  1.0000 -0.6335653671
N   N17       1.0  0.23435  0.05521  0.33770  1.0000 -0.2060744548
N   N18       1.0  0.05521  0.23435  0.66230  1.0000 -0.2060744548
N   N19       1.0  0.76565  0.94479  0.66230  1.0000 -0.2060744548
N   N20       1.0  0.94479  0.76565  0.33770  1.0000 -0.2060744548
N   N21       1.0  0.21643  0.05157  0.15050  1.0000 -0.2969243312
N   N22       1.0  0.05157  0.21643  0.84950  1.0000 -0.2969243312
N   N23       1.0  0.78357  0.94843  0.84950  1.0000 -0.2969243312
N   N24       1.0  0.94843  0.78357  0.15050  1.0000 -0.2969243312
N   N25       1.0  0.30607  0.91443  0.25630  1.0000 -0.4244538629
N   N26       1.0  0.91443  0.30607  0.74370  1.0000 -0.4244538629
N   N27       1.0  0.69393  0.08557  0.74370  1.0000 -0.4244538629
N   N28       1.0  0.08557  0.69393  0.25630  1.0000 -0.4244538629
N   N29       1.0  0.26468  0.93784  0.93660  1.0000 -0.6335653671
N   N30       1.0  0.93784  0.26468  0.06340  1.0000 -0.6335653671
N   N31       1.0  0.73532  0.06216  0.06340  1.0000 -0.6335653671
N   N32       1.0  0.06216  0.73532  0.93660  1.0000 -0.6335653671
O   O1        1.0  0.60547  0.25973  0.46180  1.0000 -0.6843894059
O   O2        1.0  0.25973  0.60547  0.53820  1.0000 -0.6843894059
O   O3        1.0  0.39453  0.74027  0.53820  1.0000 -0.6843894059
O   O4        1.0  0.74027  0.39453  0.46180  1.0000 -0.6843894059
O   O5        1.0  0.63152  0.36848  0.19200  1.0000 -0.640830555
O   O6        1.0  0.36848  0.63152  0.80800  1.0000 -0.640830555
O   O7        1.0  0.75824  0.24176  0.30200  1.0000 -0.640830555
O   O8        1.0  0.24176  0.75824  0.69800  1.0000 -0.640830555
O   O9        1.0  0.10739  0.01743  0.65610  1.0000 -0.4738330626
O   O10       1.0  0.01743  0.10739  0.34390  1.0000 -0.4738330626
O   O11       1.0  0.89261  0.98257  0.34390  1.0000 -0.4750096285
O   O12       1.0  0.98257  0.89261  0.65610  1.0000 -0.4750096285
O   O13       1.0  0.68709  0.31291  0.86010  1.0000 -0.7861606264
O   O14       1.0  0.31291  0.68709  0.13990  1.0000 -0.7861606264
