# DDEC6 charges by PACMAN v1.1 (https://github.com/mtap-research/PACMAN-charge/)
data_2008[Cd][nan]3[ASR]3
_chemical_formula_sum              "Cd4 H48 C48 N12 O36"
_cell_length_a       8.5893
_cell_length_b       23.376
_cell_length_c       12.375
_cell_angle_alpha    90
_cell_angle_beta     104.46
_cell_angle_gamma    90

_symmetry_space_group_name_H-M    "P 1"
_symmetry_Int_Tables_number       1

loop_
  _symmetry_equiv_pos_as_xyz
  'x, y, z'

loop_
  _atom_site_type_symbol
  _atom_site_label
  _atom_site_symmetry_multiplicity
  _atom_site_fract_x
  _atom_site_fract_y
  _atom_site_fract_z
  _atom_site_occupancy
  _atom_site_charge
Cd  Cd1       1.0  0.54754  0.78123  0.76071  1.0000 0.9599216547
Cd  Cd2       1.0  0.95246  0.28123  0.23929  1.0000 0.9599216547
Cd  Cd3       1.0  0.45246  0.21877  0.23929  1.0000 0.9599216547
Cd  Cd4       1.0  0.04754  0.71877  0.76071  1.0000 0.9599216547
H   H1        1.0  0.60930  0.14730  0.00010  1.0000 0.1184714017
H   H2        1.0  0.89070  0.64730  0.99990  1.0000 0.1184714017
H   H3        1.0  0.39070  0.85270  0.99990  1.0000 0.1184714017
H   H4        1.0  0.10930  0.35270  0.00010  1.0000 0.1184714017
H   H5        1.0  0.49220  0.19780  0.95090  1.0000 0.1122430529
H   H6        1.0  0.00780  0.69780  0.04910  1.0000 0.1122430529
H   H7        1.0  0.50780  0.80220  0.04910  1.0000 0.1122430529
H   H8        1.0  0.99220  0.30220  0.95090  1.0000 0.1122430529
H   H9        1.0  0.68220  0.23660  0.86650  1.0000 0.1448558237
H   H10       1.0  0.81780  0.73660  0.13350  1.0000 0.1448558237
H   H11       1.0  0.31780  0.76340  0.13350  1.0000 0.1448558237
H   H12       1.0  0.18220  0.26340  0.86650  1.0000 0.1448558237
H   H13       1.0  0.79770  0.18450  0.90690  1.0000 0.1497958746
H   H14       1.0  0.70230  0.68450  0.09310  1.0000 0.1497958746
H   H15       1.0  0.20230  0.81550  0.09310  1.0000 0.1497958746
H   H16       1.0  0.29770  0.31550  0.90690  1.0000 0.1497958746
H   H17       1.0  0.17590  0.19410  0.59260  1.0000 0.1184714017
H   H18       1.0  0.32410  0.69410  0.40740  1.0000 0.1184714017
H   H19       1.0  0.82410  0.80590  0.40740  1.0000 0.1184714017
H   H20       1.0  0.67590  0.30590  0.59260  1.0000 0.1122430529
H   H21       1.0  0.14380  0.13550  0.52910  1.0000 0.1122430529
H   H22       1.0  0.35620  0.63550  0.47090  1.0000 0.1122430529
H   H23       1.0  0.85620  0.86450  0.47090  1.0000 0.1122430529
H   H24       1.0  0.64380  0.36450  0.52910  1.0000 0.1122430529
H   H25       1.0  0.34450  0.15350  0.44100  1.0000 0.1497958746
H   H26       1.0  0.15550  0.65350  0.55900  1.0000 0.1497958746
H   H27       1.0  0.65550  0.84650  0.55900  1.0000 0.1497958746
H   H28       1.0  0.84450  0.34650  0.44100  1.0000 0.1497958746
H   H29       1.0  0.39310  0.20960  0.51100  1.0000 0.1497958746
H   H30       1.0  0.10690  0.70960  0.48900  1.0000 0.1497958746
H   H31       1.0  0.60690  0.79040  0.48900  1.0000 0.1497958746
H   H32       1.0  0.89310  0.29040  0.51100  1.0000 0.1497958746
H   H33       1.0  0.64720  0.98850  0.75740  1.0000 0.1122430529
H   H34       1.0  0.85280  0.48850  0.24260  1.0000 0.1122430529
H   H35       1.0  0.35280  0.01150  0.24260  1.0000 0.1122430529
H   H36       1.0  0.14720  0.51150  0.75740  1.0000 0.1122430529
H   H37       1.0  0.51950  0.98510  0.64220  1.0000 0.1184714017
H   H38       1.0  0.98050  0.48510  0.35780  1.0000 0.1184714017
H   H39       1.0  0.48050  0.01490  0.35780  1.0000 0.1184714017
H   H40       1.0  0.01950  0.51490  0.64220  1.0000 0.1184714017
H   H41       1.0  0.32020  0.96190  0.73190  1.0000 0.1497958746
H   H42       1.0  0.17980  0.46190  0.26810  1.0000 0.1497958746
H   H43       1.0  0.67980  0.03810  0.26810  1.0000 0.1497958746
H   H44       1.0  0.82020  0.53810  0.73190  1.0000 0.1497958746
H   H45       1.0  0.44370  0.96780  0.84840  1.0000 0.1497958746
H   H46       1.0  0.05630  0.46780  0.15160  1.0000 0.1497958746
H   H47       1.0  0.55630  0.03220  0.15160  1.0000 0.1497958746
H   H48       1.0  0.94370  0.53220  0.84840  1.0000 0.1497958746
C   C1        1.0  0.56160  0.08360  0.82930  1.0000 0.5423920554
C   C2        1.0  0.93840  0.58360  0.17070  1.0000 0.5423920554
C   C3        1.0  0.43840  0.91640  0.17070  1.0000 0.5423920554
C   C4        1.0  0.06160  0.41640  0.82930  1.0000 0.5423920554
C   C5        1.0  0.40710  0.16750  0.74660  1.0000 0.5423920554
C   C6        1.0  0.09290  0.66750  0.25340  1.0000 0.5423920554
C   C7        1.0  0.59290  0.83250  0.25340  1.0000 0.5423920554
C   C8        1.0  0.90710  0.33250  0.74660  1.0000 0.5423920554
C   C9        1.0  0.38860  0.07860  0.64310  1.0000 0.5453121628
C   C10       1.0  0.11140  0.57860  0.35690  1.0000 0.5423920554
C   C11       1.0  0.61140  0.92140  0.35690  1.0000 0.5423920554
C   C12       1.0  0.88860  0.42140  0.64310  1.0000 0.5423920554
C   C13       1.0  0.57620  0.17320  0.93730  1.0000 -0.0429475379
C   C14       1.0  0.92380  0.67320  0.06270  1.0000 -0.0429475379
C   C15       1.0  0.42380  0.82680  0.06270  1.0000 -0.0429475379
C   C16       1.0  0.07620  0.32680  0.93730  1.0000 -0.0429475379
C   C17       1.0  0.71730  0.20890  0.92610  1.0000 -0.3131937716
C   C18       1.0  0.78270  0.70890  0.07390  1.0000 -0.3131937716
C   C19       1.0  0.28270  0.79110  0.07390  1.0000 -0.3131937716
C   C20       1.0  0.21730  0.29110  0.92610  1.0000 -0.3131937716
C   C21       1.0  0.79010  0.23990  0.03390  1.0000 0.6016180184
C   C22       1.0  0.70990  0.73990  0.96610  1.0000 0.6016180184
C   C23       1.0  0.20990  0.76010  0.96610  1.0000 0.6016180184
C   C24       1.0  0.29010  0.26010  0.03390  1.0000 0.6016180184
C   C25       1.0  0.22670  0.16290  0.56280  1.0000 -0.0243922077
C   C26       1.0  0.27330  0.66290  0.43720  1.0000 -0.0295405249
C   C27       1.0  0.77330  0.83710  0.43720  1.0000 -0.0295405249
C   C28       1.0  0.72670  0.33710  0.56280  1.0000 -0.0295405249
C   C29       1.0  0.30300  0.18540  0.47580  1.0000 -0.3436980728
C   C30       1.0  0.19700  0.68540  0.52420  1.0000 -0.3436980728
C   C31       1.0  0.69700  0.81460  0.52420  1.0000 -0.3436980728
C   C32       1.0  0.80300  0.31460  0.47580  1.0000 -0.3436980728
C   C33       1.0  0.18720  0.21940  0.38660  1.0000 0.6330764558
C   C34       1.0  0.31280  0.71940  0.61340  1.0000 0.6330764558
C   C35       1.0  0.81280  0.78060  0.61340  1.0000 0.6330764558
C   C36       1.0  0.68720  0.28060  0.38660  1.0000 0.6330764558
C   C37       1.0  0.53500  0.99490  0.72030  1.0000 -0.0295405249
C   C38       1.0  0.96500  0.49490  0.27970  1.0000 -0.0295405249
C   C39       1.0  0.46500  0.00510  0.27970  1.0000 -0.0295405249
C   C40       1.0  0.03500  0.50510  0.72030  1.0000 -0.0295405249
C   C41       1.0  0.43210  0.95680  0.77130  1.0000 -0.3193520341
C   C42       1.0  0.06790  0.45680  0.22870  1.0000 -0.3193520341
C   C43       1.0  0.56790  0.04320  0.22870  1.0000 -0.3193520341
C   C44       1.0  0.93210  0.54320  0.77130  1.0000 -0.3193520341
C   C45       1.0  0.47660  0.89460  0.76670  1.0000 0.6016180184
C   C46       1.0  0.02340  0.39460  0.23330  1.0000 0.6016180184
C   C47       1.0  0.52340  0.10540  0.23330  1.0000 0.6016180184
C   C48       1.0  0.97660  0.60540  0.76670  1.0000 0.6016180184
N   N1        1.0  0.51360  0.13990  0.83310  1.0000 -0.224165741
N   N2        1.0  0.98640  0.63990  0.16690  1.0000 -0.224165741
N   N3        1.0  0.48640  0.86010  0.16690  1.0000 -0.224165741
N   N4        1.0  0.01360  0.36010  0.83310  1.0000 -0.224165741
N   N5        1.0  0.34520  0.13490  0.65460  1.0000 -0.2453265224
N   N6        1.0  0.15480  0.63490  0.34540  1.0000 -0.2433594797
N   N7        1.0  0.65480  0.86510  0.34540  1.0000 -0.2433594797
N   N8        1.0  0.84520  0.36510  0.65460  1.0000 -0.2433594797
N   N9        1.0  0.49610  0.05620  0.72960  1.0000 -0.2622247074
N   N10       1.0  0.00390  0.55620  0.27040  1.0000 -0.2622247074
N   N11       1.0  0.50390  0.94380  0.27040  1.0000 -0.2622247074
N   N12       1.0  0.99610  0.44380  0.72960  1.0000 -0.2622247074
O   O1        1.0  0.65380  0.06150  0.90590  1.0000 -0.4238996391
O   O2        1.0  0.84620  0.56150  0.09410  1.0000 -0.4238996391
O   O3        1.0  0.34620  0.93850  0.09410  1.0000 -0.4238996391
O   O4        1.0  0.15380  0.43850  0.90590  1.0000 -0.4238996391
O   O5        1.0  0.37110  0.21720  0.75160  1.0000 -0.4503727216
O   O6        1.0  0.12890  0.71720  0.24840  1.0000 -0.4503727216
O   O7        1.0  0.62890  0.78280  0.24840  1.0000 -0.4503727216
O   O8        1.0  0.87110  0.28280  0.75160  1.0000 -0.4503727216
O   O9        1.0  0.32680  0.05190  0.55680  1.0000 -0.459724534
O   O10       1.0  0.17320  0.55190  0.44320  1.0000 -0.459724534
O   O11       1.0  0.67320  0.94810  0.44320  1.0000 -0.459724534
O   O12       1.0  0.82680  0.44810  0.55680  1.0000 -0.459724534
O   O13       1.0  0.38330  0.85810  0.78360  1.0000 -0.490930054
O   O14       1.0  0.11670  0.35810  0.21640  1.0000 -0.490930054
O   O15       1.0  0.61670  0.14190  0.21640  1.0000 -0.490930054
O   O16       1.0  0.88330  0.64190  0.78360  1.0000 -0.490930054
O   O17       1.0  0.60610  0.88150  0.74440  1.0000 -0.4799781475
O   O18       1.0  0.89390  0.38150  0.25560  1.0000 -0.4799781475
O   O19       1.0  0.39390  0.11850  0.25560  1.0000 -0.4799781475
O   O20       1.0  0.10610  0.61850  0.74440  1.0000 -0.4799781475
O   O21       1.0  0.89120  0.21550  0.10430  1.0000 -0.427353162
O   O22       1.0  0.60880  0.71550  0.89570  1.0000 -0.427353162
O   O23       1.0  0.10880  0.78450  0.89570  1.0000 -0.427353162
O   O24       1.0  0.39120  0.28450  0.10430  1.0000 -0.427353162
O   O25       1.0  0.75620  0.29090  0.04860  1.0000 -0.4799781475
O   O26       1.0  0.74380  0.79090  0.95140  1.0000 -0.4799781475
O   O27       1.0  0.24380  0.70910  0.95140  1.0000 -0.4799781475
O   O28       1.0  0.25620  0.20910  0.04860  1.0000 -0.4799781475
O   O29       1.0  0.21460  0.22650  0.29310  1.0000 -0.5091201846
O   O30       1.0  0.28540  0.72650  0.70690  1.0000 -0.5091201846
O   O31       1.0  0.78540  0.77350  0.70690  1.0000 -0.5091201846
O   O32       1.0  0.71460  0.27350  0.29310  1.0000 -0.5091201846
O   O33       1.0  0.06260  0.23760  0.40560  1.0000 -0.4799781475
O   O34       1.0  0.43740  0.73760  0.59440  1.0000 -0.4799781475
O   O35       1.0  0.93740  0.76240  0.59440  1.0000 -0.4799781475
O   O36       1.0  0.56260  0.26240  0.40560  1.0000 -0.4799781475
