# DDEC6 charges by PACMAN v1.1 (https://github.com/mtap-research/PACMAN-charge/)
data_2008[Co][mog]3[ASR]1
_chemical_formula_sum              "Co6 H60 C108 S12 N24 O24"
_cell_length_a       14.9113
_cell_length_b       14.9113
_cell_length_c       14.4562
_cell_angle_alpha    85.1145
_cell_angle_beta     94.8855
_cell_angle_gamma    108.097

_symmetry_space_group_name_H-M    "P 1"
_symmetry_Int_Tables_number       1

loop_
  _symmetry_equiv_pos_as_xyz
  'x, y, z'

loop_
  _atom_site_type_symbol
  _atom_site_label
  _atom_site_symmetry_multiplicity
  _atom_site_fract_x
  _atom_site_fract_y
  _atom_site_fract_z
  _atom_site_occupancy
  _atom_site_charge
Co  Co1       1.0  0.13705  0.73867  0.78418  1.0000 0.7574887619
Co  Co2       1.0  0.73867  0.13705  0.71582  1.0000 0.7574887619
Co  Co3       1.0  0.86295  0.26133  0.21582  1.0000 0.7574887619
Co  Co4       1.0  0.26133  0.86295  0.28418  1.0000 0.7574887619
Co  Co5       1.0  0.39192  0.39192  0.25000  1.0000 0.744903718
Co  Co6       1.0  0.60808  0.60808  0.75000  1.0000 0.7450690613
H   H1        1.0  0.96370  0.96650  0.82300  1.0000 0.1675265998
H   H2        1.0  0.96650  0.96370  0.67700  1.0000 0.1675265998
H   H3        1.0  0.03630  0.03350  0.17700  1.0000 0.1675265998
H   H4        1.0  0.03350  0.03630  0.32300  1.0000 0.1675265998
H   H5        1.0  0.10520  0.22660  0.04710  1.0000 0.1231813253
H   H6        1.0  0.22660  0.10520  0.45290  1.0000 0.1231813253
H   H7        1.0  0.89480  0.77340  0.95290  1.0000 0.1231813253
H   H8        1.0  0.77340  0.89480  0.54710  1.0000 0.1231813253
H   H9        1.0  0.20130  0.33270  0.14840  1.0000 0.1038880468
H   H10       1.0  0.33270  0.20130  0.35160  1.0000 0.1038880468
H   H11       1.0  0.79870  0.66730  0.85160  1.0000 0.1038880468
H   H12       1.0  0.66730  0.79870  0.64840  1.0000 0.1038880468
H   H13       1.0  0.40530  0.21790  0.14310  1.0000 0.1090299952
H   H14       1.0  0.21790  0.40530  0.35690  1.0000 0.1090299952
H   H15       1.0  0.59470  0.78210  0.85690  1.0000 0.1090299952
H   H16       1.0  0.78210  0.59470  0.64310  1.0000 0.1090299952
H   H17       1.0  0.31570  0.11010  0.03880  1.0000 0.1511671315
H   H18       1.0  0.11010  0.31570  0.46120  1.0000 0.1511671315
H   H19       1.0  0.68430  0.88990  0.96120  1.0000 0.1511671315
H   H20       1.0  0.88990  0.68430  0.53880  1.0000 0.1511671315
H   H21       1.0  0.83600  0.48080  0.82370  1.0000 0.1675265998
H   H22       1.0  0.48080  0.83600  0.67630  1.0000 0.1675265998
H   H23       1.0  0.16400  0.51920  0.17630  1.0000 0.1675265998
H   H24       1.0  0.51920  0.16400  0.32370  1.0000 0.1675265998
H   H25       1.0  0.95320  0.66900  0.11730  1.0000 0.1231813253
H   H26       1.0  0.66900  0.95320  0.38270  1.0000 0.1231813253
H   H27       1.0  0.04680  0.33100  0.88270  1.0000 0.1231813253
H   H28       1.0  0.33100  0.04680  0.61730  1.0000 0.1231813253
H   H29       1.0  0.04710  0.74730  0.23950  1.0000 0.1090299952
H   H30       1.0  0.74730  0.04710  0.26050  1.0000 0.1090299952
H   H31       1.0  0.95290  0.25270  0.76050  1.0000 0.1090299952
H   H32       1.0  0.25270  0.95290  0.73950  1.0000 0.1090299952
H   H33       1.0  0.27830  0.76930  0.11500  1.0000 0.1231813253
H   H34       1.0  0.76930  0.27830  0.38500  1.0000 0.1231813253
H   H35       1.0  0.72170  0.23070  0.88500  1.0000 0.1231813253
H   H36       1.0  0.23070  0.72170  0.61500  1.0000 0.1231813253
H   H37       1.0  0.19150  0.69270  0.98930  1.0000 0.1321365059
H   H38       1.0  0.69270  0.19150  0.51070  1.0000 0.1321365059
H   H39       1.0  0.80850  0.30730  0.01070  1.0000 0.1321365059
H   H40       1.0  0.30730  0.80850  0.48930  1.0000 0.1321365059
H   H41       1.0  0.69340  0.50020  0.44090  1.0000 0.1786094353
H   H42       1.0  0.50020  0.69340  0.05910  1.0000 0.1786094353
H   H43       1.0  0.30660  0.49980  0.55910  1.0000 0.1786094353
H   H44       1.0  0.49980  0.30660  0.94090  1.0000 0.1786094353
H   H45       1.0  0.55800  0.76300  0.30800  1.0000 0.1321365059
H   H46       1.0  0.76300  0.55800  0.19200  1.0000 0.1321365059
H   H47       1.0  0.44200  0.23700  0.69200  1.0000 0.1321365059
H   H48       1.0  0.23700  0.44200  0.80800  1.0000 0.1321365059
H   H49       1.0  0.46410  0.86130  0.28040  1.0000 0.1090299952
H   H50       1.0  0.86130  0.46410  0.21960  1.0000 0.1090299952
H   H51       1.0  0.53590  0.13870  0.71960  1.0000 0.1090299952
H   H52       1.0  0.13870  0.53590  0.78040  1.0000 0.1090299952
H   H53       1.0  0.23780  0.65460  0.35060  1.0000 0.1231813253
H   H54       1.0  0.65460  0.23780  0.14940  1.0000 0.1231813253
H   H55       1.0  0.76220  0.34540  0.64940  1.0000 0.1231813253
H   H56       1.0  0.34540  0.76220  0.85060  1.0000 0.1231813253
H   H57       1.0  0.32550  0.55050  0.38040  1.0000 0.1409849719
H   H58       1.0  0.55050  0.32550  0.11960  1.0000 0.1409849719
H   H59       1.0  0.67450  0.44950  0.61960  1.0000 0.1409849719
H   H60       1.0  0.44950  0.67450  0.88040  1.0000 0.1409849719
C   C1        1.0  0.10404  0.87704  0.84471  1.0000 0.5158626781
C   C2        1.0  0.87704  0.10404  0.65529  1.0000 0.5158626781
C   C3        1.0  0.89596  0.12296  0.15529  1.0000 0.5158626781
C   C4        1.0  0.12296  0.89596  0.34471  1.0000 0.5158626781
C   C5        1.0  0.09304  0.96276  0.88260  1.0000 0.069456331
C   C6        1.0  0.96276  0.09304  0.61740  1.0000 0.069456331
C   C7        1.0  0.90696  0.03724  0.11740  1.0000 0.069456331
C   C8        1.0  0.03724  0.90696  0.38260  1.0000 0.069456331
C   C9        1.0  0.01757  0.99579  0.86214  1.0000 -0.2508436824
C   C10       1.0  0.99579  0.01757  0.63786  1.0000 -0.2508436824
C   C11       1.0  0.98243  0.00421  0.13786  1.0000 -0.2508436824
C   C12       1.0  0.00421  0.98243  0.36214  1.0000 -0.2508436824
C   C13       1.0  0.14119  0.08793  0.96585  1.0000 0.1090299952
C   C14       1.0  0.08793  0.14119  0.53415  1.0000 0.1090299952
C   C15       1.0  0.85881  0.91207  0.03415  1.0000 0.1090299952
C   C16       1.0  0.91207  0.85881  0.46585  1.0000 0.1090299952
C   C17       1.0  0.19987  0.15657  0.03055  1.0000 0.0915337459
C   C18       1.0  0.15657  0.19987  0.46945  1.0000 0.0915337459
C   C19       1.0  0.80013  0.84343  0.96945  1.0000 0.0915337459
C   C20       1.0  0.84343  0.80013  0.53055  1.0000 0.0915337459
C   C21       1.0  0.16713  0.22395  0.06511  1.0000 -0.2077415801
C   C22       1.0  0.22395  0.16713  0.43489  1.0000 -0.2077415801
C   C23       1.0  0.83287  0.77605  0.93489  1.0000 -0.2077415801
C   C24       1.0  0.77605  0.83287  0.56511  1.0000 -0.2077415801
C   C25       1.0  0.22498  0.28704  0.12571  1.0000 0.0815730941
C   C26       1.0  0.28704  0.22498  0.37429  1.0000 0.0815730941
C   C27       1.0  0.77502  0.71296  0.87429  1.0000 0.0815730941
C   C28       1.0  0.71296  0.77502  0.62571  1.0000 0.0815730941
C   C29       1.0  0.34387  0.22045  0.12226  1.0000 0.069456331
C   C30       1.0  0.22045  0.34387  0.37774  1.0000 0.069456331
C   C31       1.0  0.65613  0.77955  0.87774  1.0000 0.069456331
C   C32       1.0  0.77955  0.65613  0.62226  1.0000 0.069456331
C   C33       1.0  0.29058  0.15516  0.06045  1.0000 -0.1520171343
C   C34       1.0  0.15516  0.29058  0.43955  1.0000 -0.1520171343
C   C35       1.0  0.70942  0.84484  0.93955  1.0000 -0.1520171343
C   C36       1.0  0.84484  0.70942  0.56045  1.0000 -0.1520171343
C   C37       1.0  0.97966  0.59086  0.71111  1.0000 0.5366559372
C   C38       1.0  0.59086  0.97966  0.78889  1.0000 0.5366559372
C   C39       1.0  0.02034  0.40914  0.28889  1.0000 0.5366559372
C   C40       1.0  0.40914  0.02034  0.21111  1.0000 0.5366559372
C   C41       1.0  0.96440  0.58266  0.81329  1.0000 0.0562611268
C   C42       1.0  0.58266  0.96440  0.68671  1.0000 0.0562611268
C   C43       1.0  0.03560  0.41734  0.18671  1.0000 0.0562611268
C   C44       1.0  0.41734  0.03560  0.31329  1.0000 0.0562611268
C   C45       1.0  0.88744  0.52524  0.85462  1.0000 -0.2077415801
C   C46       1.0  0.52524  0.88744  0.64538  1.0000 -0.2077415801
C   C47       1.0  0.11256  0.47476  0.14538  1.0000 -0.2077415801
C   C48       1.0  0.47476  0.11256  0.35462  1.0000 -0.2077415801
C   C49       1.0  0.00520  0.62814  0.95747  1.0000 0.1090299952
C   C50       1.0  0.62814  0.00520  0.54253  1.0000 0.1090299952
C   C51       1.0  0.99480  0.37186  0.04253  1.0000 0.1090299952
C   C52       1.0  0.37186  0.99480  0.45747  1.0000 0.1090299952
C   C53       1.0  0.06212  0.67568  0.03717  1.0000 0.0815730941
C   C54       1.0  0.67568  0.06212  0.46283  1.0000 0.0815730941
C   C55       1.0  0.93788  0.32432  0.96283  1.0000 0.0815730941
C   C56       1.0  0.32432  0.93788  0.53717  1.0000 0.0815730941
C   C57       1.0  0.01992  0.69072  0.11456  1.0000 -0.2160709306
C   C58       1.0  0.69072  0.01992  0.38544  1.0000 -0.2160709306
C   C59       1.0  0.98008  0.30928  0.88544  1.0000 -0.2160709306
C   C60       1.0  0.30928  0.98008  0.61456  1.0000 -0.2160709306
C   C61       1.0  0.07658  0.73764  0.18713  1.0000 0.0915337459
C   C62       1.0  0.73764  0.07658  0.31287  1.0000 0.0915337459
C   C63       1.0  0.92342  0.26236  0.81287  1.0000 0.0915337459
C   C64       1.0  0.26236  0.92342  0.68713  1.0000 0.0915337459
C   C65       1.0  0.21126  0.75050  0.11438  1.0000 0.1090299952
C   C66       1.0  0.75050  0.21126  0.38562  1.0000 0.1090299952
C   C67       1.0  0.78874  0.24950  0.88562  1.0000 0.1090299952
C   C68       1.0  0.24950  0.78874  0.61438  1.0000 0.1090299952
C   C69       1.0  0.16004  0.70454  0.03927  1.0000 -0.1295754119
C   C70       1.0  0.70454  0.16004  0.46073  1.0000 -0.1295754119
C   C71       1.0  0.83996  0.29546  0.96073  1.0000 -0.1295754119
C   C72       1.0  0.29546  0.83996  0.53927  1.0000 -0.1295754119
C   C73       1.0  0.54675  0.35417  0.36001  1.0000 0.5269733117
C   C74       1.0  0.35417  0.54675  0.13999  1.0000 0.5269733117
C   C75       1.0  0.45325  0.64583  0.63999  1.0000 0.5269733117
C   C76       1.0  0.64583  0.45325  0.86001  1.0000 0.5269733117
C   C77       1.0  0.55900  0.45476  0.37934  1.0000 0.069456331
C   C78       1.0  0.45476  0.55900  0.12066  1.0000 0.069456331
C   C79       1.0  0.44100  0.54524  0.62066  1.0000 0.069456331
C   C80       1.0  0.54524  0.44100  0.87934  1.0000 0.069456331
C   C81       1.0  0.63816  0.51580  0.41795  1.0000 -0.2508436824
C   C82       1.0  0.51580  0.63816  0.08205  1.0000 -0.2508436824
C   C83       1.0  0.36184  0.48420  0.58205  1.0000 -0.2508436824
C   C84       1.0  0.48420  0.36184  0.91795  1.0000 -0.2508436824
C   C85       1.0  0.51115  0.58235  0.36778  1.0000 0.1231813253
C   C86       1.0  0.58235  0.51115  0.13222  1.0000 0.1231813253
C   C87       1.0  0.48885  0.41765  0.63222  1.0000 0.1231813253
C   C88       1.0  0.41765  0.48885  0.86778  1.0000 0.1231813253
C   C89       1.0  0.45172  0.64542  0.34793  1.0000 0.0915337459
C   C90       1.0  0.64542  0.45172  0.15207  1.0000 0.0915337459
C   C91       1.0  0.54828  0.35458  0.65207  1.0000 0.0915337459
C   C92       1.0  0.35458  0.54828  0.84793  1.0000 0.0915337459
C   C93       1.0  0.49234  0.73930  0.31746  1.0000 -0.2016685112
C   C94       1.0  0.73930  0.49234  0.18254  1.0000 -0.2016685112
C   C95       1.0  0.50766  0.26070  0.68254  1.0000 -0.2016685112
C   C96       1.0  0.26070  0.50766  0.81746  1.0000 -0.2016685112
C   C97       1.0  0.43576  0.79734  0.30126  1.0000 0.0915337459
C   C98       1.0  0.79734  0.43576  0.19874  1.0000 0.0915337459
C   C99       1.0  0.56424  0.20266  0.69874  1.0000 0.0915337459
C   C100      1.0  0.20266  0.56424  0.80126  1.0000 0.0915337459
C   C101      1.0  0.30383  0.67689  0.34219  1.0000 0.0915337459
C   C102      1.0  0.67689  0.30383  0.15781  1.0000 0.0915337459
C   C103      1.0  0.69617  0.32311  0.65781  1.0000 0.0915337459
C   C104      1.0  0.32311  0.69617  0.84219  1.0000 0.0915337459
C   C105      1.0  0.35555  0.61437  0.36000  1.0000 -0.1369542956
C   C106      1.0  0.61437  0.35555  0.14000  1.0000 -0.1369542956
C   C107      1.0  0.64445  0.38563  0.64000  1.0000 -0.1369542956
C   C108      1.0  0.38563  0.64445  0.86000  1.0000 -0.1369542956
S   S1        1.0  0.03332  0.09654  0.91624  1.0000 0.1557482266
S   S2        1.0  0.09654  0.03332  0.58376  1.0000 0.1557482266
S   S3        1.0  0.96668  0.90346  0.08376  1.0000 0.1557482266
S   S4        1.0  0.90346  0.96668  0.41624  1.0000 0.1557482266
S   S5        1.0  0.89591  0.54409  0.97024  1.0000 0.1511671315
S   S6        1.0  0.54409  0.89591  0.52976  1.0000 0.1511671315
S   S7        1.0  0.10409  0.45591  0.02976  1.0000 0.1511671315
S   S8        1.0  0.45591  0.10409  0.47024  1.0000 0.1511671315
S   S9        1.0  0.62393  0.62475  0.41918  1.0000 0.1511671315
S   S10       1.0  0.62475  0.62393  0.08082  1.0000 0.1511671315
S   S11       1.0  0.37607  0.37525  0.58082  1.0000 0.1511671315
S   S12       1.0  0.37525  0.37607  0.91918  1.0000 0.1511671315
N   N1        1.0  0.16297  0.01517  0.94226  1.0000 -0.2710576683
N   N2        1.0  0.01517  0.16297  0.55774  1.0000 -0.2710576683
N   N3        1.0  0.83703  0.98483  0.05774  1.0000 -0.2710576683
N   N4        1.0  0.98483  0.83703  0.44226  1.0000 -0.2710576683
N   N5        1.0  0.31320  0.28710  0.15414  1.0000 -0.2405835841
N   N6        1.0  0.28710  0.31320  0.34586  1.0000 -0.2405835841
N   N7        1.0  0.68680  0.71290  0.84586  1.0000 -0.2405835841
N   N8        1.0  0.71290  0.68680  0.65414  1.0000 -0.2405835841
N   N9        1.0  0.03179  0.64119  0.87157  1.0000 -0.3116911157
N   N10       1.0  0.64119  0.03179  0.62843  1.0000 -0.3116911157
N   N11       1.0  0.96821  0.35881  0.12843  1.0000 -0.3116911157
N   N12       1.0  0.35881  0.96821  0.37157  1.0000 -0.3116911157
N   N13       1.0  0.17121  0.77015  0.18716  1.0000 -0.2405835841
N   N14       1.0  0.77015  0.17121  0.31284  1.0000 -0.2405835841
N   N15       1.0  0.82879  0.22985  0.81284  1.0000 -0.2405835841
N   N16       1.0  0.22985  0.82879  0.68716  1.0000 -0.2405835841
N   N17       1.0  0.48682  0.49246  0.35069  1.0000 -0.3116911157
N   N18       1.0  0.49246  0.48682  0.14931  1.0000 -0.3116911157
N   N19       1.0  0.51318  0.50754  0.64931  1.0000 -0.3116911157
N   N20       1.0  0.50754  0.51318  0.85069  1.0000 -0.3116911157
N   N21       1.0  0.34250  0.76802  0.31340  1.0000 -0.2405835841
N   N22       1.0  0.76802  0.34250  0.18660  1.0000 -0.2405835841
N   N23       1.0  0.65750  0.23198  0.68660  1.0000 -0.2405835841
N   N24       1.0  0.23198  0.65750  0.81340  1.0000 -0.2405835841
O   O1        1.0  0.17221  0.84743  0.87717  1.0000 -0.5127101296
O   O2        1.0  0.84743  0.17221  0.62283  1.0000 -0.5127101296
O   O3        1.0  0.82779  0.15257  0.12283  1.0000 -0.5127101296
O   O4        1.0  0.15257  0.82779  0.37717  1.0000 -0.5127101296
O   O5        1.0  0.04769  0.83727  0.78092  1.0000 -0.5161336317
O   O6        1.0  0.83727  0.04769  0.71908  1.0000 -0.5161336317
O   O7        1.0  0.95231  0.16273  0.21908  1.0000 -0.5161336317
O   O8        1.0  0.16273  0.95231  0.28092  1.0000 -0.5161336317
O   O9        1.0  0.05460  0.65552  0.68592  1.0000 -0.5410855367
O   O10       1.0  0.65552  0.05460  0.81408  1.0000 -0.5410855367
O   O11       1.0  0.94540  0.34448  0.31408  1.0000 -0.5410855367
O   O12       1.0  0.34448  0.94540  0.18592  1.0000 -0.5410855367
O   O13       1.0  0.92052  0.53752  0.66030  1.0000 -0.5127101296
O   O14       1.0  0.53752  0.92052  0.83970  1.0000 -0.5127101296
O   O15       1.0  0.07948  0.46248  0.33970  1.0000 -0.5127101296
O   O16       1.0  0.46248  0.07948  0.16030  1.0000 -0.5127101296
O   O17       1.0  0.47781  0.31741  0.30187  1.0000 -0.5320667877
O   O18       1.0  0.31741  0.47781  0.19813  1.0000 -0.5320667877
O   O19       1.0  0.52219  0.68259  0.69813  1.0000 -0.5320667877
O   O20       1.0  0.68259  0.52219  0.80187  1.0000 -0.5320667877
O   O21       1.0  0.60216  0.31474  0.39880  1.0000 -0.5127101296
O   O22       1.0  0.31474  0.60216  0.10120  1.0000 -0.5127101296
O   O23       1.0  0.39784  0.68526  0.60120  1.0000 -0.5127101296
O   O24       1.0  0.68526  0.39784  0.89880  1.0000 -0.5127101296
