# DDEC6 charges by PACMAN v1.1 (https://github.com/mtap-research/PACMAN-charge/)
data_2008[Cu][snz]3[ASR]1
_chemical_formula_sum              "Cu6 H78 C96 N6 O24"
_cell_length_a       24.0588
_cell_length_b       24.0588
_cell_length_c       24.0588
_cell_angle_alpha    118.163
_cell_angle_beta     118.163
_cell_angle_gamma    118.163

_symmetry_space_group_name_H-M    "P 1"
_symmetry_Int_Tables_number       1

loop_
  _symmetry_equiv_pos_as_xyz
  'x, y, z'

loop_
  _atom_site_type_symbol
  _atom_site_label
  _atom_site_symmetry_multiplicity
  _atom_site_fract_x
  _atom_site_fract_y
  _atom_site_fract_z
  _atom_site_occupancy
  _atom_site_charge
Cu  Cu1       1.0  0.43069  0.91542  0.47114  1.0000 0.7576265723
Cu  Cu2       1.0  0.91542  0.47114  0.43069  1.0000 0.7576265723
Cu  Cu3       1.0  0.47114  0.43069  0.91542  1.0000 0.7576265723
Cu  Cu4       1.0  0.56931  0.08458  0.52886  1.0000 0.7576265723
Cu  Cu5       1.0  0.08458  0.52886  0.56931  1.0000 0.7576265723
Cu  Cu6       1.0  0.52886  0.56931  0.08458  1.0000 0.7576265723
H   H1        1.0  0.21710  0.77570  0.10190  1.0000 0.1203475446
H   H2        1.0  0.77570  0.10190  0.21710  1.0000 0.1203475446
H   H3        1.0  0.10190  0.21710  0.77570  1.0000 0.1203475446
H   H4        1.0  0.78290  0.22430  0.89810  1.0000 0.1203475446
H   H5        1.0  0.22430  0.89810  0.78290  1.0000 0.1203475446
H   H6        1.0  0.89810  0.78290  0.22430  1.0000 0.1203475446
H   H7        1.0  0.00490  0.58100  0.86230  1.0000 0.1203475446
H   H8        1.0  0.58100  0.86230  0.00490  1.0000 0.1203475446
H   H9        1.0  0.86230  0.00490  0.58100  1.0000 0.1203475446
H   H10       1.0  0.99510  0.41900  0.13770  1.0000 0.1203475446
H   H11       1.0  0.41900  0.13770  0.99510  1.0000 0.1203475446
H   H12       1.0  0.13770  0.99510  0.41900  1.0000 0.1203475446
H   H13       1.0  0.80190  0.39930  0.82700  1.0000 0.1203475446
H   H14       1.0  0.39930  0.82700  0.80190  1.0000 0.1203475446
H   H15       1.0  0.82700  0.80190  0.39930  1.0000 0.1203475446
H   H16       1.0  0.19810  0.60070  0.17300  1.0000 0.1203475446
H   H17       1.0  0.60070  0.17300  0.19810  1.0000 0.1203475446
H   H18       1.0  0.17300  0.19810  0.60070  1.0000 0.1203475446
H   H19       1.0  0.01620  0.58740  0.06330  1.0000 0.1203475446
H   H20       1.0  0.58740  0.06330  0.01620  1.0000 0.1203475446
H   H21       1.0  0.06330  0.01620  0.58740  1.0000 0.1203475446
H   H22       1.0  0.98380  0.41260  0.93670  1.0000 0.1203475446
H   H23       1.0  0.41260  0.93670  0.98380  1.0000 0.1203475446
H   H24       1.0  0.93670  0.98380  0.41260  1.0000 0.1203475446
H   H25       1.0  0.75740  0.36980  0.64540  1.0000 0.0970114961
H   H26       1.0  0.36980  0.64540  0.75740  1.0000 0.0970114961
H   H27       1.0  0.64540  0.75740  0.36980  1.0000 0.0970114961
H   H28       1.0  0.24260  0.63020  0.35460  1.0000 0.0970114961
H   H29       1.0  0.63020  0.35460  0.24260  1.0000 0.0970114961
H   H30       1.0  0.35460  0.24260  0.63020  1.0000 0.0970114961
H   H31       1.0  0.67450  0.30670  0.63120  1.0000 0.1203475446
H   H32       1.0  0.30670  0.63120  0.67450  1.0000 0.1203475446
H   H33       1.0  0.63120  0.67450  0.30670  1.0000 0.1203475446
H   H34       1.0  0.32550  0.69330  0.36880  1.0000 0.1203475446
H   H35       1.0  0.69330  0.36880  0.32550  1.0000 0.1203475446
H   H36       1.0  0.36880  0.32550  0.69330  1.0000 0.1203475446
H   H37       1.0  0.77300  0.26600  0.63700  1.0000 0.2158537398
H   H38       1.0  0.26600  0.63700  0.77300  1.0000 0.2158537398
H   H39       1.0  0.63700  0.77300  0.26600  1.0000 0.2158537398
H   H40       1.0  0.22700  0.73400  0.36300  1.0000 0.2158537398
H   H41       1.0  0.73400  0.36300  0.22700  1.0000 0.2158537398
H   H42       1.0  0.36300  0.22700  0.73400  1.0000 0.2158537398
H   H43       1.0  0.53320  0.11130  0.40210  1.0000 0.1203475446
H   H44       1.0  0.11130  0.40210  0.53320  1.0000 0.1203475446
H   H45       1.0  0.40210  0.53320  0.11130  1.0000 0.1203475446
H   H46       1.0  0.46680  0.88870  0.59790  1.0000 0.1203475446
H   H47       1.0  0.88870  0.59790  0.46680  1.0000 0.1203475446
H   H48       1.0  0.59790  0.46680  0.88870  1.0000 0.1203475446
H   H49       1.0  0.55290  0.05660  0.39000  1.0000 0.1203475446
H   H50       1.0  0.05660  0.39000  0.55290  1.0000 0.1203475446
H   H51       1.0  0.39000  0.55290  0.05660  1.0000 0.1203475446
H   H52       1.0  0.44710  0.94340  0.61000  1.0000 0.1203475446
H   H53       1.0  0.94340  0.61000  0.44710  1.0000 0.1203475446
H   H54       1.0  0.61000  0.44710  0.94340  1.0000 0.1203475446
H   H55       1.0  0.81140  0.25770  0.56580  1.0000 0.1203475446
H   H56       1.0  0.25770  0.56580  0.81140  1.0000 0.1203475446
H   H57       1.0  0.56580  0.81140  0.25770  1.0000 0.1203475446
H   H58       1.0  0.18860  0.74230  0.43420  1.0000 0.1203475446
H   H59       1.0  0.74230  0.43420  0.18860  1.0000 0.1203475446
H   H60       1.0  0.43420  0.18860  0.74230  1.0000 0.1203475446
H   H61       1.0  0.93060  0.36390  0.58550  1.0000 0.1203475446
H   H62       1.0  0.36390  0.58550  0.93060  1.0000 0.1203475446
H   H63       1.0  0.58550  0.93060  0.36390  1.0000 0.1203475446
H   H64       1.0  0.06940  0.63610  0.41450  1.0000 0.1203475446
H   H65       1.0  0.63610  0.41450  0.06940  1.0000 0.1203475446
H   H66       1.0  0.41450  0.06940  0.63610  1.0000 0.1203475446
H   H67       1.0  0.69820  0.30760  0.40470  1.0000 0.1203475446
H   H68       1.0  0.30760  0.40470  0.69820  1.0000 0.1203475446
H   H69       1.0  0.40470  0.69820  0.30760  1.0000 0.1203475446
H   H70       1.0  0.30180  0.69240  0.59530  1.0000 0.1203475446
H   H71       1.0  0.69240  0.59530  0.30180  1.0000 0.1203475446
H   H72       1.0  0.59530  0.30180  0.69240  1.0000 0.1203475446
H   H73       1.0  0.58440  0.20600  0.38850  1.0000 0.1203475446
H   H74       1.0  0.20600  0.38850  0.58440  1.0000 0.1203475446
H   H75       1.0  0.38850  0.58440  0.20600  1.0000 0.1203475446
H   H76       1.0  0.41560  0.79400  0.61150  1.0000 0.1203475446
H   H77       1.0  0.79400  0.61150  0.41560  1.0000 0.1203475446
H   H78       1.0  0.61150  0.41560  0.79400  1.0000 0.1203475446
C   C1        1.0  0.27340  0.81620  0.25500  1.0000 0.5572949539
C   C2        1.0  0.81620  0.25500  0.27340  1.0000 0.5572949539
C   C3        1.0  0.25500  0.27340  0.81620  1.0000 0.5572949539
C   C4        1.0  0.72660  0.18380  0.74500  1.0000 0.5572949539
C   C5        1.0  0.18380  0.74500  0.72660  1.0000 0.5572949539
C   C6        1.0  0.74500  0.72660  0.18380  1.0000 0.5572949539
C   C7        1.0  0.13600  0.69710  0.10350  1.0000 -0.0211555117
C   C8        1.0  0.69710  0.10350  0.13600  1.0000 -0.0211555117
C   C9        1.0  0.10350  0.13600  0.69710  1.0000 -0.0211555117
C   C10       1.0  0.86400  0.30290  0.89650  1.0000 -0.0211555117
C   C11       1.0  0.30290  0.89650  0.86400  1.0000 -0.0211555117
C   C12       1.0  0.89650  0.86400  0.30290  1.0000 -0.0211555117
C   C13       1.0  0.13120  0.69510  0.04340  1.0000 -0.1110967662
C   C14       1.0  0.69510  0.04340  0.13120  1.0000 -0.1110967662
C   C15       1.0  0.04340  0.13120  0.69510  1.0000 -0.1110967662
C   C16       1.0  0.86880  0.30490  0.95660  1.0000 -0.1110967662
C   C17       1.0  0.30490  0.95660  0.86880  1.0000 -0.1110967662
C   C18       1.0  0.95660  0.86880  0.30490  1.0000 -0.1110967662
C   C19       1.0  0.00480  0.58220  0.90230  1.0000 -0.1520636488
C   C20       1.0  0.58220  0.90230  0.00480  1.0000 -0.1520636488
C   C21       1.0  0.90230  0.00480  0.58220  1.0000 -0.1520636488
C   C22       1.0  0.99520  0.41780  0.09770  1.0000 -0.1520636488
C   C23       1.0  0.41780  0.09770  0.99520  1.0000 -0.1520636488
C   C24       1.0  0.09770  0.99520  0.41780  1.0000 -0.1520636488
C   C25       1.0  0.88070  0.46870  0.81890  1.0000 0.0970114961
C   C26       1.0  0.46870  0.81890  0.88070  1.0000 0.0970114961
C   C27       1.0  0.81890  0.88070  0.46870  1.0000 0.0970114961
C   C28       1.0  0.11930  0.53130  0.18110  1.0000 0.0970114961
C   C29       1.0  0.53130  0.18110  0.11930  1.0000 0.0970114961
C   C30       1.0  0.18110  0.11930  0.53130  1.0000 0.0970114961
C   C31       1.0  0.88620  0.47390  0.88080  1.0000 -0.1400421255
C   C32       1.0  0.47390  0.88080  0.88620  1.0000 -0.1400421255
C   C33       1.0  0.88080  0.88620  0.47390  1.0000 -0.1400421255
C   C34       1.0  0.11380  0.52610  0.11920  1.0000 -0.1400421255
C   C35       1.0  0.52610  0.11920  0.11380  1.0000 -0.1400421255
C   C36       1.0  0.11920  0.11380  0.52610  1.0000 -0.1400421255
C   C37       1.0  0.01420  0.58770  0.02300  1.0000 -0.0993009759
C   C38       1.0  0.58770  0.02300  0.01420  1.0000 -0.0993009759
C   C39       1.0  0.02300  0.01420  0.58770  1.0000 -0.0993009759
C   C40       1.0  0.98580  0.41230  0.97700  1.0000 -0.0993009759
C   C41       1.0  0.41230  0.97700  0.98580  1.0000 -0.0993009759
C   C42       1.0  0.97700  0.98580  0.41230  1.0000 -0.0993009759
C   C43       1.0  0.74280  0.34220  0.66240  1.0000 -0.1400421255
C   C44       1.0  0.34220  0.66240  0.74280  1.0000 -0.1400421255
C   C45       1.0  0.66240  0.74280  0.34220  1.0000 -0.1400421255
C   C46       1.0  0.25720  0.65780  0.33760  1.0000 -0.1400421255
C   C47       1.0  0.65780  0.33760  0.25720  1.0000 -0.1400421255
C   C48       1.0  0.33760  0.25720  0.65780  1.0000 -0.1400421255
C   C49       1.0  0.60020  0.13810  0.44720  1.0000 -0.1400421255
C   C50       1.0  0.13810  0.44720  0.60020  1.0000 -0.1400421255
C   C51       1.0  0.44720  0.60020  0.13810  1.0000 -0.1400421255
C   C52       1.0  0.39980  0.86190  0.55280  1.0000 -0.1400421255
C   C53       1.0  0.86190  0.55280  0.39980  1.0000 -0.1400421255
C   C54       1.0  0.55280  0.39980  0.86190  1.0000 -0.1400421255
C   C55       1.0  0.68110  0.21410  0.46640  1.0000 0.0970114961
C   C56       1.0  0.21410  0.46640  0.68110  1.0000 0.0970114961
C   C57       1.0  0.46640  0.68110  0.21410  1.0000 0.0970114961
C   C58       1.0  0.31890  0.78590  0.53360  1.0000 0.0970114961
C   C59       1.0  0.78590  0.53360  0.31890  1.0000 0.0970114961
C   C60       1.0  0.53360  0.31890  0.78590  1.0000 0.0970114961
C   C61       1.0  0.78450  0.26320  0.52810  1.0000 -0.159131616
C   C62       1.0  0.26320  0.52810  0.78450  1.0000 -0.159131616
C   C63       1.0  0.52810  0.78450  0.26320  1.0000 -0.159131616
C   C64       1.0  0.21550  0.73680  0.47190  1.0000 -0.159131616
C   C65       1.0  0.73680  0.47190  0.21550  1.0000 -0.159131616
C   C66       1.0  0.47190  0.21550  0.73680  1.0000 -0.159131616
C   C67       1.0  0.86130  0.33300  0.54590  1.0000 -0.0993009759
C   C68       1.0  0.33300  0.54590  0.86130  1.0000 -0.0993009759
C   C69       1.0  0.54590  0.86130  0.33300  1.0000 -0.0993009759
C   C70       1.0  0.13870  0.66700  0.45410  1.0000 -0.0993009759
C   C71       1.0  0.66700  0.45410  0.13870  1.0000 -0.0993009759
C   C72       1.0  0.45410  0.13870  0.66700  1.0000 -0.0993009759
C   C73       1.0  0.82690  0.34840  0.49920  1.0000 -0.029803056
C   C74       1.0  0.34840  0.49920  0.82690  1.0000 -0.029803056
C   C75       1.0  0.49920  0.82690  0.34840  1.0000 -0.029803056
C   C76       1.0  0.17310  0.65160  0.50080  1.0000 -0.029803056
C   C77       1.0  0.65160  0.50080  0.17310  1.0000 -0.029803056
C   C78       1.0  0.50080  0.17310  0.65160  1.0000 -0.029803056
C   C79       1.0  0.72460  0.30070  0.44100  1.0000 -0.1110967662
C   C80       1.0  0.30070  0.44100  0.72460  1.0000 -0.1110967662
C   C81       1.0  0.44100  0.72460  0.30070  1.0000 -0.1110967662
C   C82       1.0  0.27540  0.69930  0.55900  1.0000 -0.1110967662
C   C83       1.0  0.69930  0.55900  0.27540  1.0000 -0.1110967662
C   C84       1.0  0.55900  0.27540  0.69930  1.0000 -0.1110967662
C   C85       1.0  0.65110  0.23370  0.42460  1.0000 -0.159131616
C   C86       1.0  0.23370  0.42460  0.65110  1.0000 -0.159131616
C   C87       1.0  0.42460  0.65110  0.23370  1.0000 -0.159131616
C   C88       1.0  0.34890  0.76630  0.57540  1.0000 -0.159131616
C   C89       1.0  0.76630  0.57540  0.34890  1.0000 -0.159131616
C   C90       1.0  0.57540  0.34890  0.76630  1.0000 -0.159131616
C   C91       1.0  0.89750  0.41200  0.50660  1.0000 0.5544422458
C   C92       1.0  0.41200  0.50660  0.89750  1.0000 0.5544422458
C   C93       1.0  0.50660  0.89750  0.41200  1.0000 0.5544422458
C   C94       1.0  0.10250  0.58800  0.49340  1.0000 0.5544422458
C   C95       1.0  0.58800  0.49340  0.10250  1.0000 0.5544422458
C   C96       1.0  0.49340  0.10250  0.58800  1.0000 0.5544422458
N   N1        1.0  0.69010  0.22860  0.58180  1.0000 -0.3124190181
N   N2        1.0  0.22860  0.58180  0.69010  1.0000 -0.3124190181
N   N3        1.0  0.58180  0.69010  0.22860  1.0000 -0.3124190181
N   N4        1.0  0.30990  0.77140  0.41820  1.0000 -0.3124190181
N   N5        1.0  0.77140  0.41820  0.30990  1.0000 -0.3124190181
N   N6        1.0  0.41820  0.30990  0.77140  1.0000 -0.3124190181
O   O1        1.0  0.26870  0.79230  0.29080  1.0000 -0.517403385
O   O2        1.0  0.79230  0.29080  0.26870  1.0000 -0.517403385
O   O3        1.0  0.29080  0.26870  0.79230  1.0000 -0.517403385
O   O4        1.0  0.73130  0.20770  0.70920  1.0000 -0.517403385
O   O5        1.0  0.20770  0.70920  0.73130  1.0000 -0.517403385
O   O6        1.0  0.70920  0.73130  0.20770  1.0000 -0.517403385
O   O7        1.0  0.38270  0.92920  0.33390  1.0000 -0.5002120395
O   O8        1.0  0.92920  0.33390  0.38270  1.0000 -0.5002120395
O   O9        1.0  0.33390  0.38270  0.92920  1.0000 -0.5002120395
O   O10       1.0  0.61730  0.07080  0.66610  1.0000 -0.5002120395
O   O11       1.0  0.07080  0.66610  0.61730  1.0000 -0.5002120395
O   O12       1.0  0.66610  0.61730  0.07080  1.0000 -0.5002120395
O   O13       1.0  0.99080  0.45380  0.56230  1.0000 -0.5076211999
O   O14       1.0  0.45380  0.56230  0.99080  1.0000 -0.5076211999
O   O15       1.0  0.56230  0.99080  0.45380  1.0000 -0.5076211999
O   O16       1.0  0.00920  0.54620  0.43770  1.0000 -0.5076211999
O   O17       1.0  0.54620  0.43770  0.00920  1.0000 -0.5076211999
O   O18       1.0  0.43770  0.00920  0.54620  1.0000 -0.5076211999
O   O19       1.0  0.85510  0.41290  0.45240  1.0000 -0.5002120395
O   O20       1.0  0.41290  0.45240  0.85510  1.0000 -0.5002120395
O   O21       1.0  0.45240  0.85510  0.41290  1.0000 -0.5002120395
O   O22       1.0  0.14490  0.58710  0.54760  1.0000 -0.5002120395
O   O23       1.0  0.58710  0.54760  0.14490  1.0000 -0.5002120395
O   O24       1.0  0.54760  0.14490  0.58710  1.0000 -0.5002120395
