# DDEC6 charges by PACMAN v1.1 (https://github.com/mtap-research/PACMAN-charge/)
data_2008[Gd][nan]3[ASR]3
_chemical_formula_sum              "Gd8 P8 H40 C36 N4 O64"
_cell_length_a       8.6839
_cell_length_b       31.729
_cell_length_c       11.7415
_cell_angle_alpha    90
_cell_angle_beta     128.493
_cell_angle_gamma    90

_symmetry_space_group_name_H-M    "P 1"
_symmetry_Int_Tables_number       1

loop_
  _symmetry_equiv_pos_as_xyz
  'x, y, z'

loop_
  _atom_site_type_symbol
  _atom_site_label
  _atom_site_symmetry_multiplicity
  _atom_site_fract_x
  _atom_site_fract_y
  _atom_site_fract_z
  _atom_site_occupancy
  _atom_site_charge
Gd  Gd1       1.0  0.63846  0.21690  0.20044  1.0000 2.0396805463
Gd  Gd2       1.0  0.36154  0.71690  0.29956  1.0000 2.0396805463
Gd  Gd3       1.0  0.36154  0.78310  0.79956  1.0000 2.0396805463
Gd  Gd4       1.0  0.63846  0.28310  0.70044  1.0000 2.0396805463
Gd  Gd5       1.0  0.44130  0.97020  0.68662  1.0000 2.0729868469
Gd  Gd6       1.0  0.55870  0.47020  0.81338  1.0000 2.0729868469
Gd  Gd7       1.0  0.55870  0.02980  0.31338  1.0000 2.0729868469
Gd  Gd8       1.0  0.44130  0.52980  0.18662  1.0000 2.0729868469
P   P1        1.0  0.18940  0.22547  0.43540  1.0000 1.3249375878
P   P2        1.0  0.81060  0.72547  0.06460  1.0000 1.3255041895
P   P3        1.0  0.81060  0.77453  0.56460  1.0000 1.3255041895
P   P4        1.0  0.18940  0.27453  0.93540  1.0000 1.3255041895
P   P5        1.0  0.48650  0.07511  0.56280  1.0000 1.3563145754
P   P6        1.0  0.51350  0.57511  0.93720  1.0000 1.3563145754
P   P7        1.0  0.51350  0.92489  0.43720  1.0000 1.3563145754
P   P8        1.0  0.48650  0.42489  0.06280  1.0000 1.3563145754
H   H1        1.0  0.60730  0.11030  0.73950  1.0000 0.385309702
H   H2        1.0  0.39270  0.61030  0.76050  1.0000 0.385309702
H   H3        1.0  0.39270  0.88970  0.26050  1.0000 0.385309702
H   H4        1.0  0.60730  0.38970  0.23950  1.0000 0.385309702
H   H5        1.0  0.06220  0.14310  0.35320  1.0000 0.261972597
H   H6        1.0  0.93780  0.64310  0.14680  1.0000 0.261972597
H   H7        1.0  0.93780  0.85690  0.64680  1.0000 0.261972597
H   H8        1.0  0.06220  0.35690  0.85320  1.0000 0.261972597
H   H9        1.0  0.23680  0.16980  0.58220  1.0000 0.1726918204
H   H10       1.0  0.76320  0.66980  0.91780  1.0000 0.1726918204
H   H11       1.0  0.76320  0.83020  0.41780  1.0000 0.1726918204
H   H12       1.0  0.23680  0.33020  0.08220  1.0000 0.1726918204
H   H13       1.0  0.41970  0.17410  0.58540  1.0000 0.1631146801
H   H14       1.0  0.58030  0.67410  0.91460  1.0000 0.1631146801
H   H15       1.0  0.58030  0.82590  0.41460  1.0000 0.1631146801
H   H16       1.0  0.41970  0.32590  0.08540  1.0000 0.1631146801
H   H17       1.0  0.20980  0.09470  0.53600  1.0000 0.1631146801
H   H18       1.0  0.79020  0.59470  0.96400  1.0000 0.1631146801
H   H19       1.0  0.79020  0.90530  0.46400  1.0000 0.1631146801
H   H20       1.0  0.20980  0.40530  0.03600  1.0000 0.1631146801
H   H21       1.0  0.14890  0.07760  0.38870  1.0000 0.1726918204
H   H22       1.0  0.85110  0.57760  0.11130  1.0000 0.1726918204
H   H23       1.0  0.85110  0.92240  0.61130  1.0000 0.1726918204
H   H24       1.0  0.14890  0.42240  0.88870  1.0000 0.1726918204
H   H25       1.0  0.38610  0.14850  0.36460  1.0000 0.1438711343
H   H26       1.0  0.61390  0.64850  0.13540  1.0000 0.1438711343
H   H27       1.0  0.61390  0.85150  0.63540  1.0000 0.1438711343
H   H28       1.0  0.38610  0.35150  0.86460  1.0000 0.1438711343
H   H29       1.0  0.19500  0.12390  0.24120  1.0000 0.1332381016
H   H30       1.0  0.80500  0.62390  0.25880  1.0000 0.1332381016
H   H31       1.0  0.80500  0.87610  0.75880  1.0000 0.1332381016
H   H32       1.0  0.19500  0.37610  0.74120  1.0000 0.1332381016
H   H33       1.0  0.01140  0.18670  0.17250  1.0000 0.1093410088
H   H34       1.0  0.98860  0.68670  0.32750  1.0000 0.1093410088
H   H35       1.0  0.98860  0.81330  0.82750  1.0000 0.1093410088
H   H36       1.0  0.01140  0.31330  0.67250  1.0000 0.1093410088
H   H37       1.0  0.17650  0.19120  0.15600  1.0000 0.1460010169
H   H38       1.0  0.82350  0.69120  0.34400  1.0000 0.1460010169
H   H39       1.0  0.82350  0.80880  0.84400  1.0000 0.1460010169
H   H40       1.0  0.17650  0.30880  0.65600  1.0000 0.1460010169
C   C1        1.0  0.27710  0.17470  0.52250  1.0000 -0.4307664948
C   C2        1.0  0.72290  0.67470  0.97750  1.0000 -0.4307664948
C   C3        1.0  0.72290  0.82530  0.47750  1.0000 -0.4307664948
C   C4        1.0  0.27710  0.32530  0.02250  1.0000 -0.4307664948
C   C5        1.0  0.23990  0.09630  0.46920  1.0000 -0.4307664948
C   C6        1.0  0.76010  0.59630  0.03080  1.0000 -0.4307664948
C   C7        1.0  0.76010  0.90370  0.53080  1.0000 -0.4307664948
C   C8        1.0  0.23990  0.40370  0.96920  1.0000 -0.4307664948
C   C9        1.0  0.24450  0.14720  0.30900  1.0000 -0.1562850418
C   C10       1.0  0.75550  0.64720  0.19100  1.0000 -0.1562850418
C   C11       1.0  0.75550  0.85280  0.69100  1.0000 -0.1562850418
C   C12       1.0  0.24450  0.35280  0.80900  1.0000 -0.1562850418
C   C13       1.0  0.15260  0.18800  0.22600  1.0000 0.0144850935
C   C14       1.0  0.84740  0.68800  0.27400  1.0000 0.0144850935
C   C15       1.0  0.84740  0.81200  0.77400  1.0000 0.0144850935
C   C16       1.0  0.15260  0.31200  0.72600  1.0000 0.0144850935
C   C17       1.0  0.64150  0.27290  0.42990  1.0000 0.5006571981
C   C18       1.0  0.35850  0.77290  0.07010  1.0000 0.5006571981
C   C19       1.0  0.35850  0.72710  0.57010  1.0000 0.5006571981
C   C20       1.0  0.64150  0.22710  0.92990  1.0000 0.5006571981
C   C21       1.0  0.66330  0.22720  0.48390  1.0000 0.4935737533
C   C22       1.0  0.33670  0.72720  0.01610  1.0000 0.4935737533
C   C23       1.0  0.33670  0.77280  0.51610  1.0000 0.4935737533
C   C24       1.0  0.66330  0.27280  0.98390  1.0000 0.4935737533
C   C25       1.0  0.70470  0.11570  0.26120  1.0000 0.5006571981
C   C26       1.0  0.29530  0.61570  0.23880  1.0000 0.5006571981
C   C27       1.0  0.29530  0.88430  0.73880  1.0000 0.5006571981
C   C28       1.0  0.70470  0.38430  0.76120  1.0000 0.5006571981
C   C29       1.0  0.48200  0.12220  0.16980  1.0000 0.5051225481
C   C30       1.0  0.51800  0.62220  0.33020  1.0000 0.5006571981
C   C31       1.0  0.51800  0.87780  0.83020  1.0000 0.5051225481
C   C32       1.0  0.48200  0.37780  0.66980  1.0000 0.5006571981
C   C33       1.0  0.97810  0.99020  0.43060  1.0000 0.5006571981
C   C34       1.0  0.02190  0.49020  0.06940  1.0000 0.5006571981
C   C35       1.0  0.02190  0.00980  0.56940  1.0000 0.5006571981
C   C36       1.0  0.97810  0.50980  0.93060  1.0000 0.5006571981
N   N1        1.0  0.19530  0.14040  0.40980  1.0000 0.0677568672
N   N2        1.0  0.80470  0.64040  0.09020  1.0000 0.0677568672
N   N3        1.0  0.80470  0.85960  0.59020  1.0000 0.0677568672
N   N4        1.0  0.19530  0.35960  0.90980  1.0000 0.0677568672
O   O1        1.0  0.97500  0.22780  0.35890  1.0000 -0.8404355066
O   O2        1.0  0.02500  0.72780  0.14110  1.0000 -0.8404355066
O   O3        1.0  0.02500  0.77220  0.64110  1.0000 -0.8404355066
O   O4        1.0  0.97500  0.27220  0.85890  1.0000 -0.8404355066
O   O5        1.0  0.23060  0.22480  0.32150  1.0000 -0.3924877362
O   O6        1.0  0.76940  0.72480  0.17850  1.0000 -0.3924877362
O   O7        1.0  0.76940  0.77520  0.67850  1.0000 -0.3924877362
O   O8        1.0  0.23060  0.27520  0.82150  1.0000 -0.3924877362
O   O9        1.0  0.31460  0.25950  0.54210  1.0000 -0.8187759163
O   O10       1.0  0.68540  0.75950  0.95790  1.0000 -0.8187759163
O   O11       1.0  0.68540  0.74050  0.45790  1.0000 -0.8187759163
O   O12       1.0  0.31460  0.24050  0.04210  1.0000 -0.8187759163
O   O13       1.0  0.48510  0.03560  0.62930  1.0000 -0.903041059
O   O14       1.0  0.51490  0.53560  0.87070  1.0000 -0.903041059
O   O15       1.0  0.51490  0.96440  0.37070  1.0000 -0.903041059
O   O16       1.0  0.48510  0.46440  0.12930  1.0000 -0.903041059
O   O17       1.0  0.62940  0.10810  0.68130  1.0000 -0.57005865
O   O18       1.0  0.37060  0.60810  0.81870  1.0000 -0.57005865
O   O19       1.0  0.37060  0.89190  0.31870  1.0000 -0.57005865
O   O20       1.0  0.62940  0.39190  0.18130  1.0000 -0.5640743317
O   O21       1.0  0.53690  0.07200  0.46270  1.0000 -0.8404355066
O   O22       1.0  0.46310  0.57200  0.03730  1.0000 -0.8404355066
O   O23       1.0  0.46310  0.92800  0.53730  1.0000 -0.8404355066
O   O24       1.0  0.53690  0.42800  0.96270  1.0000 -0.8404355066
O   O25       1.0  0.63830  0.27780  0.32290  1.0000 -0.57005865
O   O26       1.0  0.36170  0.77780  0.17710  1.0000 -0.57005865
O   O27       1.0  0.36170  0.72220  0.67710  1.0000 -0.57005865
O   O28       1.0  0.63830  0.22220  0.82290  1.0000 -0.57005865
O   O29       1.0  0.63070  0.30090  0.50030  1.0000 -0.6180125641
O   O30       1.0  0.36930  0.80090  0.99970  1.0000 -0.6180125641
O   O31       1.0  0.36930  0.69910  0.49970  1.0000 -0.6180125641
O   O32       1.0  0.63070  0.19910  0.00030  1.0000 -0.6180125641
O   O33       1.0  0.66330  0.19840  0.41000  1.0000 -0.6041101279
O   O34       1.0  0.33670  0.69840  0.09000  1.0000 -0.6041101279
O   O35       1.0  0.33670  0.80160  0.59000  1.0000 -0.6041101279
O   O36       1.0  0.66330  0.30160  0.91000  1.0000 -0.6041101279
O   O37       1.0  0.67920  0.22210  0.59700  1.0000 -0.57005865
O   O38       1.0  0.32080  0.72210  0.90300  1.0000 -0.57005865
O   O39       1.0  0.32080  0.77790  0.40300  1.0000 -0.57005865
O   O40       1.0  0.67920  0.27790  0.09700  1.0000 -0.57005865
O   O41       1.0  0.77300  0.08080  0.31590  1.0000 -0.5529996323
O   O42       1.0  0.22700  0.58080  0.18410  1.0000 -0.5529996323
O   O43       1.0  0.22700  0.91920  0.68410  1.0000 -0.5529996323
O   O44       1.0  0.77300  0.41920  0.81590  1.0000 -0.5529996323
O   O45       1.0  0.80110  0.14680  0.26790  1.0000 -0.5832633318
O   O46       1.0  0.19890  0.64680  0.23210  1.0000 -0.5832633318
O   O47       1.0  0.19890  0.85320  0.73210  1.0000 -0.5832633318
O   O48       1.0  0.80110  0.35320  0.76790  1.0000 -0.5832633318
O   O49       1.0  0.38540  0.09100  0.15860  1.0000 -0.6180125641
O   O50       1.0  0.61460  0.59100  0.34140  1.0000 -0.6180125641
O   O51       1.0  0.61460  0.90900  0.84140  1.0000 -0.6180125641
O   O52       1.0  0.38540  0.40900  0.65860  1.0000 -0.6180125641
O   O53       1.0  0.41500  0.15780  0.11580  1.0000 -0.5529996323
O   O54       1.0  0.58500  0.65780  0.38420  1.0000 -0.5529996323
O   O55       1.0  0.58500  0.84220  0.88420  1.0000 -0.5529996323
O   O56       1.0  0.41500  0.34220  0.61580  1.0000 -0.5529996323
O   O57       1.0  0.12160  0.97440  0.44380  1.0000 -0.57005865
O   O58       1.0  0.87840  0.47440  0.05620  1.0000 -0.57005865
O   O59       1.0  0.87840  0.02560  0.55620  1.0000 -0.57005865
O   O60       1.0  0.12160  0.52560  0.94380  1.0000 -0.57005865
O   O61       1.0  0.80100  0.99080  0.31590  1.0000 -0.6056141199
O   O62       1.0  0.19900  0.49080  0.18410  1.0000 -0.6056141199
O   O63       1.0  0.19900  0.00920  0.68410  1.0000 -0.6041101279
O   O64       1.0  0.80100  0.50920  0.81590  1.0000 -0.6056141199
