# DDEC6 charges by PACMAN v1.1 (https://github.com/mtap-research/PACMAN-charge/)
data_2008[ZnSi][cds]3[ASR]1
_chemical_formula_sum              "Zn8 Si6 H108 C156 O28"
_cell_length_a       17.4058
_cell_length_b       17.4058
_cell_length_c       32.306
_cell_angle_alpha    71.3325
_cell_angle_beta     108.668
_cell_angle_gamma    147.714

_symmetry_space_group_name_H-M    "P 1"
_symmetry_Int_Tables_number       1

loop_
  _symmetry_equiv_pos_as_xyz
  'x, y, z'

loop_
  _atom_site_type_symbol
  _atom_site_label
  _atom_site_symmetry_multiplicity
  _atom_site_fract_x
  _atom_site_fract_y
  _atom_site_fract_z
  _atom_site_occupancy
  _atom_site_charge
Zn  Zn1       1.0  0.59462  0.65900  0.48821  1.0000 1.0787418108
Zn  Zn2       1.0  0.65900  0.59462  0.01179  1.0000 1.0787418108
Zn  Zn3       1.0  0.40538  0.34100  0.51179  1.0000 1.0787418108
Zn  Zn4       1.0  0.34100  0.40538  0.98821  1.0000 1.0787418108
Zn  Zn5       1.0  0.32897  0.45101  0.53766  1.0000 1.0096792799
Zn  Zn6       1.0  0.45101  0.32897  0.96234  1.0000 1.0096792799
Zn  Zn7       1.0  0.67103  0.54899  0.46234  1.0000 1.0096792799
Zn  Zn8       1.0  0.54899  0.67103  0.03766  1.0000 1.0096792799
Si  Si1       1.0  0.45966  0.07666  0.39215  1.0000 0.6391697746
Si  Si2       1.0  0.07666  0.45966  0.10785  1.0000 0.6391697746
Si  Si3       1.0  0.54034  0.92334  0.60785  1.0000 0.6391697746
Si  Si4       1.0  0.92334  0.54034  0.89215  1.0000 0.6391697746
Si  Si5       1.0  0.00120  0.00120  0.75000  1.0000 0.6391697746
Si  Si6       1.0  0.99880  0.99880  0.25000  1.0000 0.6391697746
H   H1        1.0  0.57800  0.03360  0.37790  1.0000 0.1117008968
H   H2        1.0  0.03360  0.57800  0.12210  1.0000 0.1117008968
H   H3        1.0  0.42200  0.96640  0.62210  1.0000 0.1117008968
H   H4        1.0  0.96640  0.42200  0.87790  1.0000 0.1117008968
H   H5        1.0  0.57500  0.89100  0.41030  1.0000 0.1210069895
H   H6        1.0  0.89100  0.57500  0.08970  1.0000 0.1210069895
H   H7        1.0  0.42500  0.10900  0.58970  1.0000 0.1210069895
H   H8        1.0  0.10900  0.42500  0.91030  1.0000 0.1210069895
H   H9        1.0  0.27310  0.66610  0.48740  1.0000 0.1117008968
H   H10       1.0  0.66610  0.27310  0.01260  1.0000 0.1117008968
H   H11       1.0  0.72690  0.33390  0.51260  1.0000 0.1117008968
H   H12       1.0  0.33390  0.72690  0.98740  1.0000 0.1117008968
H   H13       1.0  0.28830  0.81910  0.45710  1.0000 0.1117008968
H   H14       1.0  0.81910  0.28830  0.04290  1.0000 0.1117008968
H   H15       1.0  0.71170  0.18090  0.54290  1.0000 0.1117008968
H   H16       1.0  0.18090  0.71170  0.95710  1.0000 0.1117008968
H   H17       1.0  0.60210  0.34330  0.39870  1.0000 0.1117008968
H   H18       1.0  0.34330  0.60210  0.10130  1.0000 0.1117008968
H   H19       1.0  0.39790  0.65670  0.60130  1.0000 0.1117008968
H   H20       1.0  0.65670  0.39790  0.89870  1.0000 0.1117008968
H   H21       1.0  0.82980  0.56980  0.42000  1.0000 0.1210069895
H   H22       1.0  0.56980  0.82980  0.08000  1.0000 0.1210069895
H   H23       1.0  0.17020  0.43020  0.58000  1.0000 0.1210069895
H   H24       1.0  0.43020  0.17020  0.92000  1.0000 0.1210069895
H   H25       1.0  0.01260  0.62720  0.44740  1.0000 0.1117008968
H   H26       1.0  0.62720  0.01260  0.05260  1.0000 0.1117008968
H   H27       1.0  0.98740  0.37280  0.55260  1.0000 0.1117008968
H   H28       1.0  0.37280  0.98740  0.94740  1.0000 0.1117008968
H   H29       1.0  0.96420  0.44920  0.45470  1.0000 0.1210069895
H   H30       1.0  0.44920  0.96420  0.04530  1.0000 0.1210069895
H   H31       1.0  0.03580  0.55080  0.54530  1.0000 0.1210069895
H   H32       1.0  0.55080  0.03580  0.95470  1.0000 0.1210069895
H   H33       1.0  0.73510  0.22110  0.43480  1.0000 0.1117008968
H   H34       1.0  0.22110  0.73510  0.06520  1.0000 0.1117008968
H   H35       1.0  0.26490  0.77890  0.56520  1.0000 0.1117008968
H   H36       1.0  0.77890  0.26490  0.93480  1.0000 0.1117008968
H   H37       1.0  0.33530  0.91010  0.31980  1.0000 0.1210069895
H   H38       1.0  0.91010  0.33530  0.18020  1.0000 0.1210069895
H   H39       1.0  0.66470  0.08990  0.68020  1.0000 0.1210069895
H   H40       1.0  0.08990  0.66470  0.81980  1.0000 0.1210069895
H   H41       1.0  0.32820  0.94240  0.24550  1.0000 0.1117008968
H   H42       1.0  0.94240  0.32820  0.25450  1.0000 0.1117008968
H   H43       1.0  0.67180  0.05760  0.75450  1.0000 0.1117008968
H   H44       1.0  0.05760  0.67180  0.74550  1.0000 0.1117008968
H   H45       1.0  0.39750  0.12970  0.20670  1.0000 0.1294607628
H   H46       1.0  0.12970  0.39750  0.29330  1.0000 0.1294607628
H   H47       1.0  0.60250  0.87030  0.79330  1.0000 0.1294607628
H   H48       1.0  0.87030  0.60250  0.70670  1.0000 0.1294607628
H   H49       1.0  0.46600  0.27620  0.24610  1.0000 0.1210069895
H   H50       1.0  0.27620  0.46600  0.25390  1.0000 0.1210069895
H   H51       1.0  0.53400  0.72380  0.75390  1.0000 0.1210069895
H   H52       1.0  0.72380  0.53400  0.74610  1.0000 0.1210069895
H   H53       1.0  0.51640  0.26920  0.32150  1.0000 0.1117008968
H   H54       1.0  0.26920  0.51640  0.17850  1.0000 0.1117008968
H   H55       1.0  0.48360  0.73080  0.67850  1.0000 0.1117008968
H   H56       1.0  0.73080  0.48360  0.82150  1.0000 0.1117008968
H   H57       1.0  0.42270  0.10470  0.46670  1.0000 0.1117008968
H   H58       1.0  0.10470  0.42270  0.03330  1.0000 0.1117008968
H   H59       1.0  0.57730  0.89530  0.53330  1.0000 0.1117008968
H   H60       1.0  0.89530  0.57730  0.96670  1.0000 0.1117008968
H   H61       1.0  0.24330  0.02330  0.48750  1.0000 0.1210069895
H   H62       1.0  0.02330  0.24330  0.01250  1.0000 0.1210069895
H   H63       1.0  0.75670  0.97670  0.51250  1.0000 0.1210069895
H   H64       1.0  0.97670  0.75670  0.98750  1.0000 0.1210069895
H   H65       1.0  0.98760  0.81040  0.37920  1.0000 0.1117008968
H   H66       1.0  0.81040  0.98760  0.12080  1.0000 0.1117008968
H   H67       1.0  0.01240  0.18960  0.62080  1.0000 0.1117008968
H   H68       1.0  0.18960  0.01240  0.87920  1.0000 0.1117008968
H   H69       1.0  0.17200  0.90440  0.35600  1.0000 0.1117008968
H   H70       1.0  0.90440  0.17200  0.14400  1.0000 0.1117008968
H   H71       1.0  0.82800  0.09560  0.64400  1.0000 0.1117008968
H   H72       1.0  0.09560  0.82800  0.85600  1.0000 0.1117008968
H   H73       1.0  0.03310  0.99190  0.66690  1.0000 0.1117008968
H   H74       1.0  0.99190  0.03310  0.83310  1.0000 0.1117008968
H   H75       1.0  0.96690  0.00810  0.33310  1.0000 0.1117008968
H   H76       1.0  0.00810  0.96690  0.16690  1.0000 0.1117008968
H   H77       1.0  0.88450  0.87350  0.60460  1.0000 0.1294607628
H   H78       1.0  0.87350  0.88450  0.89540  1.0000 0.1294607628
H   H79       1.0  0.11550  0.12650  0.39540  1.0000 0.1294607628
H   H80       1.0  0.12650  0.11550  0.10460  1.0000 0.1294607628
H   H81       1.0  0.54610  0.64950  0.65760  1.0000 0.1117008968
H   H82       1.0  0.64950  0.54610  0.84240  1.0000 0.1117008968
H   H83       1.0  0.45390  0.35050  0.34240  1.0000 0.1117008968
H   H84       1.0  0.35050  0.45390  0.15760  1.0000 0.1117008968
H   H85       1.0  0.69630  0.77170  0.71990  1.0000 0.1117008968
H   H86       1.0  0.77170  0.69630  0.78010  1.0000 0.1117008968
H   H87       1.0  0.30370  0.22830  0.28010  1.0000 0.1117008968
H   H88       1.0  0.22830  0.30370  0.21990  1.0000 0.1117008968
H   H89       1.0  0.24040  0.29140  0.70870  1.0000 0.1210069895
H   H90       1.0  0.29140  0.24040  0.79130  1.0000 0.1210069895
H   H91       1.0  0.75960  0.70860  0.29130  1.0000 0.1210069895
H   H92       1.0  0.70860  0.75960  0.20870  1.0000 0.1210069895
H   H93       1.0  0.31300  0.48440  0.68350  1.0000 0.1210069895
H   H94       1.0  0.48440  0.31300  0.81650  1.0000 0.1210069895
H   H95       1.0  0.68700  0.51560  0.31650  1.0000 0.1210069895
H   H96       1.0  0.51560  0.68700  0.18350  1.0000 0.1210069895
H   H97       1.0  0.17870  0.47110  0.69410  1.0000 0.1210069895
H   H98       1.0  0.47110  0.17870  0.80590  1.0000 0.1210069895
H   H99       1.0  0.82130  0.52890  0.30590  1.0000 0.1210069895
H   H100      1.0  0.52890  0.82130  0.19410  1.0000 0.1210069895
H   H101      1.0  0.97520  0.26840  0.73290  1.0000 0.1117008968
H   H102      1.0  0.26840  0.97520  0.76710  1.0000 0.1117008968
H   H103      1.0  0.02480  0.73160  0.26710  1.0000 0.1117008968
H   H104      1.0  0.73160  0.02480  0.23290  1.0000 0.1117008968
H   H105      1.0  0.90220  0.07120  0.75810  1.0000 0.1117008968
H   H106      1.0  0.07120  0.90220  0.74190  1.0000 0.1117008968
H   H107      1.0  0.09780  0.92880  0.24190  1.0000 0.1117008968
H   H108      1.0  0.92880  0.09780  0.25810  1.0000 0.1117008968
C   C1        1.0  0.43583  0.94457  0.41460  1.0000 -0.2088312138
C   C2        1.0  0.94457  0.43583  0.08540  1.0000 -0.2088312138
C   C3        1.0  0.56417  0.05543  0.58540  1.0000 -0.2088312138
C   C4        1.0  0.05543  0.56417  0.91460  1.0000 -0.2088312138
C   C5        1.0  0.51820  0.96100  0.40090  1.0000 -0.09021422
C   C6        1.0  0.96100  0.51820  0.09910  1.0000 -0.09021422
C   C7        1.0  0.48180  0.03900  0.59910  1.0000 -0.09021422
C   C8        1.0  0.03900  0.48180  0.90090  1.0000 -0.09021422
C   C9        1.0  0.51544  0.87496  0.41970  1.0000 -0.09021422
C   C10       1.0  0.87496  0.51544  0.08030  1.0000 -0.09021422
C   C11       1.0  0.48456  0.12504  0.58030  1.0000 -0.09021422
C   C12       1.0  0.12504  0.48456  0.91970  1.0000 -0.09021422
C   C13       1.0  0.42429  0.76471  0.45260  1.0000 -0.01864653
C   C14       1.0  0.76471  0.42429  0.04740  1.0000 -0.01864653
C   C15       1.0  0.57571  0.23529  0.54740  1.0000 -0.01864653
C   C16       1.0  0.23529  0.57571  0.95260  1.0000 -0.01864653
C   C17       1.0  0.33777  0.74283  0.46580  1.0000 -0.0992493194
C   C18       1.0  0.74283  0.33777  0.03420  1.0000 -0.0992493194
C   C19       1.0  0.66223  0.25717  0.53420  1.0000 -0.0992493194
C   C20       1.0  0.25717  0.66223  0.96580  1.0000 -0.0992493194
C   C21       1.0  0.34599  0.83361  0.44720  1.0000 -0.0826707401
C   C22       1.0  0.83361  0.34599  0.05280  1.0000 -0.0826707401
C   C23       1.0  0.65401  0.16639  0.55280  1.0000 -0.0826707401
C   C24       1.0  0.16639  0.65401  0.94720  1.0000 -0.0826707401
C   C25       1.0  0.42718  0.67702  0.47476  1.0000 0.5960268598
C   C26       1.0  0.67702  0.42718  0.02524  1.0000 0.5960268598
C   C27       1.0  0.57282  0.32298  0.52524  1.0000 0.5960268598
C   C28       1.0  0.32298  0.57282  0.97476  1.0000 0.5960268598
C   C29       1.0  0.64315  0.25605  0.41330  1.0000 -0.2088312138
C   C30       1.0  0.25605  0.64315  0.08670  1.0000 -0.2088312138
C   C31       1.0  0.35685  0.74395  0.58670  1.0000 -0.2088312138
C   C32       1.0  0.74395  0.35685  0.91330  1.0000 -0.2088312138
C   C33       1.0  0.67574  0.36426  0.41000  1.0000 -0.0826707401
C   C34       1.0  0.36426  0.67574  0.09000  1.0000 -0.0826707401
C   C35       1.0  0.32426  0.63574  0.59000  1.0000 -0.0826707401
C   C36       1.0  0.63574  0.32426  0.91000  1.0000 -0.0826707401
C   C37       1.0  0.81110  0.49910  0.42270  1.0000 -0.0697327036
C   C38       1.0  0.49910  0.81110  0.07730  1.0000 -0.0697327036
C   C39       1.0  0.18890  0.50090  0.57730  1.0000 -0.0697327036
C   C40       1.0  0.50090  0.18890  0.92270  1.0000 -0.0697327036
C   C41       1.0  0.91870  0.53310  0.43900  1.0000 -0.0826707401
C   C42       1.0  0.53310  0.91870  0.06100  1.0000 -0.0826707401
C   C43       1.0  0.08130  0.46690  0.56100  1.0000 -0.0826707401
C   C44       1.0  0.46690  0.08130  0.93900  1.0000 -0.0826707401
C   C45       1.0  0.88990  0.42710  0.44330  1.0000 -0.0992493194
C   C46       1.0  0.42710  0.88990  0.05670  1.0000 -0.0992493194
C   C47       1.0  0.11010  0.57290  0.55670  1.0000 -0.0992493194
C   C48       1.0  0.57290  0.11010  0.94330  1.0000 -0.0992493194
C   C49       1.0  0.75400  0.29240  0.43100  1.0000 -0.0826707401
C   C50       1.0  0.29240  0.75400  0.06900  1.0000 -0.0826707401
C   C51       1.0  0.24600  0.70760  0.56900  1.0000 -0.0826707401
C   C52       1.0  0.70760  0.24600  0.93100  1.0000 -0.0826707401
C   C53       1.0  0.44110  0.09310  0.33040  1.0000 -0.1900710989
C   C54       1.0  0.09310  0.44110  0.16960  1.0000 -0.1900710989
C   C55       1.0  0.55890  0.90690  0.66960  1.0000 -0.1900710989
C   C56       1.0  0.90690  0.55890  0.83040  1.0000 -0.1900710989
C   C57       1.0  0.37530  0.99430  0.30490  1.0000 -0.0992493194
C   C58       1.0  0.99430  0.37530  0.19510  1.0000 -0.0992493194
C   C59       1.0  0.62470  0.00570  0.69510  1.0000 -0.0992493194
C   C60       1.0  0.00570  0.62470  0.80490  1.0000 -0.0992493194
C   C61       1.0  0.36370  0.00830  0.26060  1.0000 -0.09021422
C   C62       1.0  0.00830  0.36370  0.23940  1.0000 -0.09021422
C   C63       1.0  0.63630  0.99170  0.73940  1.0000 -0.09021422
C   C64       1.0  0.99170  0.63630  0.76060  1.0000 -0.09021422
C   C65       1.0  0.40260  0.11640  0.23790  1.0000 -0.09021422
C   C66       1.0  0.11640  0.40260  0.26210  1.0000 -0.09021422
C   C67       1.0  0.59740  0.88360  0.76210  1.0000 -0.09021422
C   C68       1.0  0.88360  0.59740  0.73790  1.0000 -0.09021422
C   C69       1.0  0.45020  0.20740  0.26130  1.0000 -0.0992493194
C   C70       1.0  0.20740  0.45020  0.23870  1.0000 -0.0992493194
C   C71       1.0  0.54980  0.79260  0.73870  1.0000 -0.0992493194
C   C72       1.0  0.79260  0.54980  0.76130  1.0000 -0.0992493194
C   C73       1.0  0.47490  0.19950  0.30650  1.0000 -0.0992493194
C   C74       1.0  0.19950  0.47490  0.19350  1.0000 -0.0992493194
C   C75       1.0  0.52510  0.80050  0.69350  1.0000 -0.0992493194
C   C76       1.0  0.80050  0.52510  0.80650  1.0000 -0.0992493194
C   C77       1.0  0.31719  0.01361  0.40906  1.0000 -0.1988114439
C   C78       1.0  0.01361  0.31719  0.09094  1.0000 -0.1988114439
C   C79       1.0  0.68281  0.98639  0.59094  1.0000 -0.1988114439
C   C80       1.0  0.98639  0.68281  0.90906  1.0000 -0.1988114439
C   C81       1.0  0.33473  0.04627  0.44830  1.0000 -0.0826707401
C   C82       1.0  0.04627  0.33473  0.05170  1.0000 -0.0826707401
C   C83       1.0  0.66527  0.95373  0.55170  1.0000 -0.0826707401
C   C84       1.0  0.95373  0.66527  0.94830  1.0000 -0.0826707401
C   C85       1.0  0.22706  0.99574  0.46130  1.0000 -0.09021422
C   C86       1.0  0.99574  0.22706  0.03870  1.0000 -0.09021422
C   C87       1.0  0.77294  0.00426  0.53870  1.0000 -0.09021422
C   C88       1.0  0.00426  0.77294  0.96130  1.0000 -0.09021422
C   C89       1.0  0.09736  0.90584  0.43592  1.0000 -0.01864653
C   C90       1.0  0.90584  0.09736  0.06408  1.0000 -0.01864653
C   C91       1.0  0.90264  0.09416  0.56408  1.0000 -0.01864653
C   C92       1.0  0.09416  0.90264  0.93592  1.0000 -0.01864653
C   C93       1.0  0.07716  0.87184  0.39688  1.0000 -0.0992493194
C   C94       1.0  0.87184  0.07716  0.10312  1.0000 -0.0992493194
C   C95       1.0  0.92284  0.12816  0.60312  1.0000 -0.0992493194
C   C96       1.0  0.12816  0.92284  0.89688  1.0000 -0.0992493194
C   C97       1.0  0.18655  0.92665  0.38329  1.0000 -0.09021422
C   C98       1.0  0.92665  0.18655  0.11671  1.0000 -0.09021422
C   C99       1.0  0.81345  0.07335  0.61671  1.0000 -0.09021422
C   C100      1.0  0.07335  0.81345  0.88329  1.0000 -0.09021422
C   C101      1.0  0.97396  0.83884  0.45075  1.0000 0.5684536319
C   C102      1.0  0.83884  0.97396  0.04925  1.0000 0.5684536319
C   C103      1.0  0.02604  0.16116  0.54925  1.0000 0.5684536319
C   C104      1.0  0.16116  0.02604  0.95075  1.0000 0.5684536319
C   C105      1.0  0.88210  0.89430  0.70130  1.0000 -0.1988114439
C   C106      1.0  0.89430  0.88210  0.79870  1.0000 -0.1988114439
C   C107      1.0  0.11790  0.10570  0.29870  1.0000 -0.1988114439
C   C108      1.0  0.10570  0.11790  0.20130  1.0000 -0.1988114439
C   C109      1.0  0.93357  0.92183  0.66550  1.0000 -0.0826707401
C   C110      1.0  0.92183  0.93357  0.83450  1.0000 -0.0826707401
C   C111      1.0  0.06643  0.07817  0.33450  1.0000 -0.0826707401
C   C112      1.0  0.07817  0.06643  0.16550  1.0000 -0.0826707401
C   C113      1.0  0.84491  0.85089  0.62837  1.0000 -0.0826707401
C   C114      1.0  0.85089  0.84491  0.87163  1.0000 -0.0826707401
C   C115      1.0  0.15509  0.14911  0.37163  1.0000 -0.0826707401
C   C116      1.0  0.14911  0.15509  0.12837  1.0000 -0.0826707401
C   C117      1.0  0.70066  0.74814  0.62487  1.0000 -0.01864653
C   C118      1.0  0.74814  0.70066  0.87513  1.0000 -0.01864653
C   C119      1.0  0.29934  0.25186  0.37513  1.0000 -0.01864653
C   C120      1.0  0.25186  0.29934  0.12487  1.0000 -0.01864653
C   C121      1.0  0.64560  0.71920  0.65950  1.0000 -0.0992493194
C   C122      1.0  0.71920  0.64560  0.84050  1.0000 -0.0992493194
C   C123      1.0  0.35440  0.28080  0.34050  1.0000 -0.0992493194
C   C124      1.0  0.28080  0.35440  0.15950  1.0000 -0.0992493194
C   C125      1.0  0.73570  0.79210  0.69670  1.0000 -0.0992493194
C   C126      1.0  0.79210  0.73570  0.80330  1.0000 -0.0992493194
C   C127      1.0  0.26430  0.20790  0.30330  1.0000 -0.0992493194
C   C128      1.0  0.20790  0.26430  0.19670  1.0000 -0.0992493194
C   C129      1.0  0.60243  0.66957  0.58508  1.0000 0.5901204568
C   C130      1.0  0.66957  0.60243  0.91492  1.0000 0.5901204568
C   C131      1.0  0.39757  0.33043  0.41492  1.0000 0.5901204568
C   C132      1.0  0.33043  0.39757  0.08508  1.0000 0.5901204568
C   C133      1.0  0.06380  0.16020  0.73660  1.0000 -0.1845281202
C   C134      1.0  0.16020  0.06380  0.76340  1.0000 -0.1845281202
C   C135      1.0  0.93620  0.83980  0.26340  1.0000 -0.1845281202
C   C136      1.0  0.83980  0.93620  0.23660  1.0000 -0.1845281202
C   C137      1.0  0.18470  0.28550  0.71390  1.0000 -0.0992493194
C   C138      1.0  0.28550  0.18470  0.78610  1.0000 -0.0992493194
C   C139      1.0  0.81530  0.71450  0.28610  1.0000 -0.0992493194
C   C140      1.0  0.71450  0.81530  0.21390  1.0000 -0.0992493194
C   C141      1.0  0.22860  0.40060  0.69860  1.0000 -0.09021422
C   C142      1.0  0.40060  0.22860  0.80140  1.0000 -0.09021422
C   C143      1.0  0.77140  0.59940  0.30140  1.0000 -0.09021422
C   C144      1.0  0.59940  0.77140  0.19860  1.0000 -0.09021422
C   C145      1.0  0.15070  0.39270  0.70510  1.0000 -0.09021422
C   C146      1.0  0.39270  0.15070  0.79490  1.0000 -0.09021422
C   C147      1.0  0.84930  0.60730  0.29490  1.0000 -0.09021422
C   C148      1.0  0.60730  0.84930  0.20510  1.0000 -0.09021422
C   C149      1.0  0.02910  0.27210  0.72780  1.0000 -0.09021422
C   C150      1.0  0.27210  0.02910  0.77220  1.0000 -0.09021422
C   C151      1.0  0.97090  0.72790  0.27220  1.0000 -0.09021422
C   C152      1.0  0.72790  0.97090  0.22780  1.0000 -0.09021422
C   C153      1.0  0.98650  0.15510  0.74310  1.0000 -0.09021422
C   C154      1.0  0.15510  0.98650  0.75690  1.0000 -0.09021422
C   C155      1.0  0.01350  0.84490  0.25690  1.0000 -0.09021422
C   C156      1.0  0.84490  0.01350  0.24310  1.0000 -0.09021422
O   O1        1.0  0.53240  0.72620  0.46874  1.0000 -0.5749027509
O   O2        1.0  0.72620  0.53240  0.03126  1.0000 -0.5749027509
O   O3        1.0  0.46760  0.27380  0.53126  1.0000 -0.5749027509
O   O4        1.0  0.27380  0.46760  0.96874  1.0000 -0.5749027509
O   O5        1.0  0.32738  0.56462  0.49856  1.0000 -0.5314563889
O   O6        1.0  0.56462  0.32738  0.00144  1.0000 -0.5314563889
O   O7        1.0  0.67262  0.43538  0.50144  1.0000 -0.5314563889
O   O8        1.0  0.43538  0.67262  0.99856  1.0000 -0.5314563889
O   O9        1.0  0.84835  0.71925  0.43494  1.0000 -0.5774194378
O   O10       1.0  0.71925  0.84835  0.06506  1.0000 -0.5774194378
O   O11       1.0  0.15165  0.28075  0.56506  1.0000 -0.5774194378
O   O12       1.0  0.28075  0.15165  0.93494  1.0000 -0.5774194378
O   O13       1.0  0.99612  0.89648  0.47661  1.0000 -0.4931100238
O   O14       1.0  0.89648  0.99612  0.02339  1.0000 -0.4931100238
O   O15       1.0  0.00388  0.10352  0.52339  1.0000 -0.4931100238
O   O16       1.0  0.10352  0.00388  0.97661  1.0000 -0.4931100238
O   O17       1.0  0.37452  0.43808  0.49554  1.0000 -0.9757752199
O   O18       1.0  0.43808  0.37452  0.00446  1.0000 -0.9757752199
O   O19       1.0  0.62548  0.56192  0.50446  1.0000 -0.9757752199
O   O20       1.0  0.56192  0.62548  0.99554  1.0000 -0.9757752199
O   O21       1.0  0.46853  0.57047  0.58604  1.0000 -0.5592650998
O   O22       1.0  0.57047  0.46853  0.91396  1.0000 -0.5592650998
O   O23       1.0  0.53147  0.42953  0.41396  1.0000 -0.5592650998
O   O24       1.0  0.42953  0.53147  0.08604  1.0000 -0.5592650998
O   O25       1.0  0.65599  0.70301  0.55310  1.0000 -0.5354084749
O   O26       1.0  0.70301  0.65599  0.94690  1.0000 -0.5354084749
O   O27       1.0  0.34401  0.29699  0.44690  1.0000 -0.5354084749
O   O28       1.0  0.29699  0.34401  0.05310  1.0000 -0.5354084749
