# DDEC6 charges by PACMAN v1.1 (https://github.com/mtap-research/PACMAN-charge/)
data_2008[Zn][ths]3[ASR]1
_chemical_formula_sum              "Zn8 H144 C192 N24 O40"
_cell_length_a       17.309
_cell_length_b       16.441
_cell_length_c       24.5259
_cell_angle_alpha    90
_cell_angle_beta     132.399
_cell_angle_gamma    90

_symmetry_space_group_name_H-M    "P 1"
_symmetry_Int_Tables_number       1

loop_
  _symmetry_equiv_pos_as_xyz
  'x, y, z'

loop_
  _atom_site_type_symbol
  _atom_site_label
  _atom_site_symmetry_multiplicity
  _atom_site_fract_x
  _atom_site_fract_y
  _atom_site_fract_z
  _atom_site_occupancy
  _atom_site_charge
Zn  Zn1       1.0  0.49647  0.00093  0.27244  1.0000 0.7542508311
Zn  Zn2       1.0  0.49647  0.49907  0.77244  1.0000 0.7542508311
Zn  Zn3       1.0  0.91745  0.49375  0.70914  1.0000 0.7559522158
Zn  Zn4       1.0  0.91745  0.00625  0.20914  1.0000 0.7559522158
Zn  Zn5       1.0  0.50353  0.50093  0.22756  1.0000 0.7542508311
Zn  Zn6       1.0  0.50353  0.99907  0.72756  1.0000 0.7542508311
Zn  Zn7       1.0  0.08255  0.99375  0.79086  1.0000 0.7559522158
Zn  Zn8       1.0  0.08255  0.50625  0.29086  1.0000 0.7559522158
H   H1        1.0  0.16890  0.67250  0.97530  1.0000 0.1005139796
H   H2        1.0  0.16890  0.82750  0.47530  1.0000 0.1005139796
H   H3        1.0  0.24490  0.67880  0.96140  1.0000 0.1113834846
H   H4        1.0  0.24490  0.82120  0.46140  1.0000 0.1113834846
H   H5        1.0  0.14500  0.80110  0.88930  1.0000 0.1277655694
H   H6        1.0  0.14500  0.69890  0.38930  1.0000 0.1277655694
H   H7        1.0  0.06040  0.76880  0.89000  1.0000 0.1113834846
H   H8        1.0  0.06040  0.73120  0.39000  1.0000 0.1113834846
H   H9        1.0  0.54350  0.72850  0.19580  1.0000 0.1388674656
H   H10       1.0  0.54350  0.77150  0.69580  1.0000 0.1388674656
H   H11       1.0  0.35910  0.68100  0.10390  1.0000 0.1277655694
H   H12       1.0  0.35910  0.81900  0.60390  1.0000 0.1277655694
H   H13       1.0  0.27990  0.71730  0.10860  1.0000 0.1113834846
H   H14       1.0  0.27990  0.78270  0.60860  1.0000 0.1113834846
H   H15       1.0  0.98400  0.67640  0.89750  1.0000 0.1277655694
H   H16       1.0  0.98400  0.82360  0.39750  1.0000 0.1277655694
H   H17       1.0  0.26760  0.25130  0.74580  1.0000 0.1277655694
H   H18       1.0  0.26760  0.24870  0.24580  1.0000 0.1277655694
H   H19       1.0  0.60610  0.97810  0.96110  1.0000 0.1224302778
H   H20       1.0  0.60610  0.52190  0.46110  1.0000 0.1224302778
H   H21       1.0  0.22290  0.81320  0.02120  1.0000 0.1005139796
H   H22       1.0  0.22290  0.68680  0.52120  1.0000 0.1005139796
H   H23       1.0  0.31640  0.79630  0.02580  1.0000 0.1113834846
H   H24       1.0  0.31640  0.70370  0.52580  1.0000 0.1113834846
H   H25       1.0  0.06420  0.63690  0.70550  1.0000 0.1277655694
H   H26       1.0  0.06420  0.86310  0.20550  1.0000 0.1277655694
H   H27       1.0  0.15230  0.35260  0.71510  1.0000 0.1113834846
H   H28       1.0  0.15230  0.14740  0.21510  1.0000 0.1113834846
H   H29       1.0  0.43950  0.01570  0.85500  1.0000 0.1277655694
H   H30       1.0  0.43950  0.48430  0.35500  1.0000 0.1388674656
H   H31       1.0  0.72060  0.34320  0.77960  1.0000 0.1113834846
H   H32       1.0  0.72060  0.15680  0.27960  1.0000 0.1113834846
H   H33       1.0  0.78000  0.23600  0.75590  1.0000 0.1224302778
H   H34       1.0  0.78000  0.26400  0.25590  1.0000 0.1224302778
H   H35       1.0  0.53840  0.18260  0.53730  1.0000 0.1224302778
H   H36       1.0  0.53840  0.31740  0.03730  1.0000 0.1224302778
H   H37       1.0  0.45040  0.20380  0.96350  1.0000 0.1224302778
H   H38       1.0  0.45040  0.29620  0.46350  1.0000 0.1224302778
H   H39       1.0  0.77950  0.50170  0.83800  1.0000 0.1519386518
H   H40       1.0  0.77950  0.99830  0.33800  1.0000 0.1519386518
H   H41       1.0  0.19410  0.81640  0.09910  1.0000 0.1224302778
H   H42       1.0  0.19410  0.68360  0.59910  1.0000 0.1224302778
H   H43       1.0  0.15510  0.27410  0.87100  1.0000 0.1224302778
H   H44       1.0  0.15510  0.22590  0.37100  1.0000 0.1224302778
H   H45       1.0  0.42670  0.26380  0.62440  1.0000 0.1224302778
H   H46       1.0  0.42670  0.23620  0.12440  1.0000 0.1224302778
H   H47       1.0  0.79180  0.45440  0.75540  1.0000 0.1224302778
H   H48       1.0  0.79180  0.04560  0.25540  1.0000 0.1224302778
H   H49       1.0  0.14490  0.74940  0.79470  1.0000 0.1388674656
H   H50       1.0  0.14490  0.75060  0.29470  1.0000 0.1388674656
H   H51       1.0  0.26660  0.16900  0.89930  1.0000 0.1519386518
H   H52       1.0  0.26660  0.33100  0.39930  1.0000 0.1519386518
H   H53       1.0  0.06770  0.89100  0.08520  1.0000 0.1224302778
H   H54       1.0  0.06770  0.60900  0.58520  1.0000 0.1224302778
H   H55       1.0  0.48520  0.15250  0.60300  1.0000 0.1388674656
H   H56       1.0  0.48520  0.34750  0.10300  1.0000 0.1388674656
H   H57       1.0  0.75090  0.00550  0.64690  1.0000 0.1277655694
H   H58       1.0  0.75090  0.49450  0.14690  1.0000 0.1277655694
H   H59       1.0  0.61720  0.16530  0.06880  1.0000 0.1113834846
H   H60       1.0  0.61720  0.33470  0.56880  1.0000 0.1113834846
H   H61       1.0  0.87670  0.61330  0.90970  1.0000 0.1224302778
H   H62       1.0  0.87670  0.88670  0.40970  1.0000 0.1224302778
H   H63       1.0  0.63940  0.84600  0.27880  1.0000 0.1277655694
H   H64       1.0  0.63940  0.65400  0.77880  1.0000 0.1277655694
H   H65       1.0  0.49340  0.14040  0.42900  1.0000 0.1113834846
H   H66       1.0  0.49340  0.35960  0.92900  1.0000 0.1224302778
H   H67       1.0  0.28520  0.05480  0.22500  1.0000 0.1224302778
H   H68       1.0  0.28520  0.44520  0.72500  1.0000 0.1224302778
H   H69       1.0  0.11540  0.01170  0.15000  1.0000 0.1388674656
H   H70       1.0  0.11540  0.48830  0.65000  1.0000 0.1388674656
H   H71       1.0  0.70880  0.96540  0.53980  1.0000 0.1224302778
H   H72       1.0  0.70880  0.53460  0.03980  1.0000 0.1224302778
H   H73       1.0  0.83110  0.17250  0.52470  1.0000 0.1005139796
H   H74       1.0  0.83110  0.32750  0.02470  1.0000 0.1005139796
H   H75       1.0  0.75510  0.17880  0.53860  1.0000 0.1113834846
H   H76       1.0  0.75510  0.32120  0.03860  1.0000 0.1113834846
H   H77       1.0  0.85500  0.30110  0.61070  1.0000 0.1277655694
H   H78       1.0  0.85500  0.19890  0.11070  1.0000 0.1277655694
H   H79       1.0  0.93960  0.26880  0.61000  1.0000 0.1113834846
H   H80       1.0  0.93960  0.23120  0.11000  1.0000 0.1113834846
H   H81       1.0  0.45650  0.22850  0.30420  1.0000 0.1388674656
H   H82       1.0  0.45650  0.27150  0.80420  1.0000 0.1388674656
H   H83       1.0  0.64090  0.18100  0.39610  1.0000 0.1277655694
H   H84       1.0  0.64090  0.31900  0.89610  1.0000 0.1277655694
H   H85       1.0  0.72010  0.21730  0.39140  1.0000 0.1113834846
H   H86       1.0  0.72010  0.28270  0.89140  1.0000 0.1113834846
H   H87       1.0  0.01600  0.17640  0.60250  1.0000 0.1277655694
H   H88       1.0  0.01600  0.32360  0.10250  1.0000 0.1277655694
H   H89       1.0  0.73240  0.75130  0.75420  1.0000 0.1277655694
H   H90       1.0  0.73240  0.74870  0.25420  1.0000 0.1277655694
H   H91       1.0  0.39390  0.47810  0.53890  1.0000 0.1224302778
H   H92       1.0  0.39390  0.02190  0.03890  1.0000 0.1224302778
H   H93       1.0  0.77710  0.31320  0.47880  1.0000 0.1005139796
H   H94       1.0  0.77710  0.18680  0.97880  1.0000 0.1005139796
H   H95       1.0  0.68360  0.29630  0.47420  1.0000 0.1113834846
H   H96       1.0  0.68360  0.20370  0.97420  1.0000 0.1113834846
H   H97       1.0  0.93580  0.13690  0.79450  1.0000 0.1277655694
H   H98       1.0  0.93580  0.36310  0.29450  1.0000 0.1277655694
H   H99       1.0  0.84770  0.85260  0.78490  1.0000 0.1113834846
H   H100      1.0  0.84770  0.64740  0.28490  1.0000 0.1113834846
H   H101      1.0  0.56050  0.51570  0.64500  1.0000 0.1388674656
H   H102      1.0  0.56050  0.98430  0.14500  1.0000 0.1388674656
H   H103      1.0  0.27940  0.84320  0.72040  1.0000 0.1113834846
H   H104      1.0  0.27940  0.65680  0.22040  1.0000 0.1113834846
H   H105      1.0  0.22000  0.73600  0.74410  1.0000 0.1224302778
H   H106      1.0  0.22000  0.76400  0.24410  1.0000 0.1224302778
H   H107      1.0  0.46160  0.68260  0.96270  1.0000 0.1224302778
H   H108      1.0  0.46160  0.81740  0.46270  1.0000 0.1224302778
H   H109      1.0  0.54960  0.70380  0.53650  1.0000 0.1277655694
H   H110      1.0  0.54960  0.79620  0.03650  1.0000 0.1277655694
H   H111      1.0  0.22050  0.00170  0.66200  1.0000 0.1519386518
H   H112      1.0  0.22050  0.49830  0.16200  1.0000 0.1519386518
H   H113      1.0  0.80590  0.31640  0.40090  1.0000 0.1224302778
H   H114      1.0  0.80590  0.18360  0.90090  1.0000 0.1224302778
H   H115      1.0  0.84490  0.77410  0.62900  1.0000 0.1224302778
H   H116      1.0  0.84490  0.72590  0.12900  1.0000 0.1224302778
H   H117      1.0  0.57330  0.76380  0.87560  1.0000 0.1224302778
H   H118      1.0  0.57330  0.73620  0.37560  1.0000 0.1224302778
H   H119      1.0  0.20820  0.95440  0.74460  1.0000 0.1224302778
H   H120      1.0  0.20820  0.54560  0.24460  1.0000 0.1224302778
H   H121      1.0  0.85510  0.24940  0.70530  1.0000 0.1388674656
H   H122      1.0  0.85510  0.25060  0.20530  1.0000 0.1388674656
H   H123      1.0  0.73340  0.66900  0.60070  1.0000 0.1519386518
H   H124      1.0  0.73340  0.83100  0.10070  1.0000 0.1519386518
H   H125      1.0  0.93230  0.39100  0.41480  1.0000 0.1224302778
H   H126      1.0  0.93230  0.10900  0.91480  1.0000 0.1224302778
H   H127      1.0  0.51480  0.65250  0.89700  1.0000 0.1388674656
H   H128      1.0  0.51480  0.84750  0.39700  1.0000 0.1388674656
H   H129      1.0  0.24910  0.50550  0.85310  1.0000 0.1277655694
H   H130      1.0  0.24910  0.99450  0.35310  1.0000 0.1277655694
H   H131      1.0  0.38280  0.66530  0.43120  1.0000 0.1113834846
H   H132      1.0  0.38280  0.83470  0.93120  1.0000 0.1113834846
H   H133      1.0  0.12330  0.11330  0.59030  1.0000 0.1224302778
H   H134      1.0  0.12330  0.38670  0.09030  1.0000 0.1224302778
H   H135      1.0  0.36060  0.34600  0.22120  1.0000 0.1277655694
H   H136      1.0  0.36060  0.15400  0.72120  1.0000 0.1277655694
H   H137      1.0  0.50660  0.64040  0.07100  1.0000 0.1224302778
H   H138      1.0  0.50660  0.85960  0.57100  1.0000 0.1113834846
H   H139      1.0  0.71480  0.55480  0.27500  1.0000 0.1224302778
H   H140      1.0  0.71480  0.94520  0.77500  1.0000 0.1224302778
H   H141      1.0  0.88460  0.51170  0.35000  1.0000 0.1388674656
H   H142      1.0  0.88460  0.98830  0.85000  1.0000 0.1388674656
H   H143      1.0  0.29120  0.46540  0.96020  1.0000 0.1224302778
H   H144      1.0  0.29120  0.03460  0.46020  1.0000 0.1224302778
C   C1        1.0  0.40326  0.85510  0.18756  1.0000 0.1866991828
C   C2        1.0  0.40326  0.64490  0.68756  1.0000 0.1866991828
C   C3        1.0  0.73830  0.04700  0.09440  1.0000 0.540663696
C   C4        1.0  0.73830  0.45300  0.59440  1.0000 0.540663696
C   C5        1.0  0.20080  0.71000  0.96490  1.0000 -0.1919258785
C   C6        1.0  0.20080  0.79000  0.46490  1.0000 -0.1919258785
C   C7        1.0  0.11609  0.75230  0.89199  1.0000 -0.1122167547
C   C8        1.0  0.11609  0.74770  0.39199  1.0000 -0.1122167547
C   C9        1.0  0.00854  0.63450  0.80074  1.0000 0.1866991828
C   C10       1.0  0.00854  0.86550  0.30074  1.0000 0.1866991828
C   C11       1.0  0.51480  0.77240  0.20080  1.0000 -0.0830977095
C   C12       1.0  0.51480  0.72760  0.70080  1.0000 -0.0884981221
C   C13       1.0  0.32791  0.73110  0.10221  1.0000 -0.1122167547
C   C14       1.0  0.32791  0.76890  0.60221  1.0000 -0.1122167547
C   C15       1.0  0.94978  0.60080  0.81898  1.0000 0.1519386518
C   C16       1.0  0.94978  0.89920  0.31898  1.0000 0.1519386518
C   C17       1.0  0.06150  0.38750  0.76570  1.0000 0.5296671159
C   C18       1.0  0.06150  0.11250  0.26570  1.0000 0.5296671159
C   C19       1.0  0.14080  0.32410  0.78950  1.0000 -0.0400216162
C   C20       1.0  0.14080  0.17590  0.28950  1.0000 -0.0400216162
C   C21       1.0  0.56790  0.31500  0.70480  1.0000 -0.0400216162
C   C22       1.0  0.56790  0.18500  0.20480  1.0000 -0.0400216162
C   C23       1.0  0.64690  0.09730  0.60200  1.0000 0.248523879
C   C24       1.0  0.64690  0.40270  0.10200  1.0000 0.248523879
C   C25       1.0  0.57010  0.02640  0.40270  1.0000 0.5296671159
C   C26       1.0  0.57010  0.47360  0.90270  1.0000 0.5296671159
C   C27       1.0  0.27540  0.20000  0.82420  1.0000 0.2331888034
C   C28       1.0  0.27540  0.30000  0.32420  1.0000 0.2331888034
C   C29       1.0  0.42940  0.11410  0.89880  1.0000 0.248523879
C   C30       1.0  0.42940  0.38590  0.39880  1.0000 0.248523879
C   C31       1.0  0.94480  0.63110  0.86900  1.0000 -0.1764299505
C   C32       1.0  0.94480  0.86890  0.36900  1.0000 -0.1764299505
C   C33       1.0  0.24350  0.25520  0.77000  1.0000 -0.2196076176
C   C34       1.0  0.24350  0.24480  0.27000  1.0000 -0.2196076176
C   C35       1.0  0.57510  0.02400  0.96170  1.0000 -0.0830977095
C   C36       1.0  0.57510  0.47600  0.46170  1.0000 -0.0830977095
C   C37       1.0  0.26759  0.77090  0.02759  1.0000 -0.1919258785
C   C38       1.0  0.26759  0.72910  0.52759  1.0000 -0.1919258785
C   C39       1.0  0.63770  0.18480  0.67660  1.0000 0.2383467621
C   C40       1.0  0.63770  0.31520  0.17660  1.0000 0.2383467621
C   C41       1.0  0.31181  0.89500  0.16881  1.0000 0.1519386518
C   C42       1.0  0.31181  0.60500  0.66881  1.0000 0.1519386518
C   C43       1.0  0.05680  0.64680  0.73910  1.0000 -0.0178565782
C   C44       1.0  0.05680  0.85320  0.23910  1.0000 -0.0178565782
C   C45       1.0  0.59680  0.04930  0.47270  1.0000 -0.0400216162
C   C46       1.0  0.59680  0.45070  0.97270  1.0000 -0.0400216162
C   C47       1.0  0.17560  0.31610  0.75250  1.0000 -0.1122167547
C   C48       1.0  0.17560  0.18390  0.25250  1.0000 -0.1122167547
C   C49       1.0  0.47520  0.04630  0.89790  1.0000 -0.2072785952
C   C50       1.0  0.47520  0.45370  0.39790  1.0000 -0.2072785952
C   C51       1.0  0.67300  0.30540  0.74350  1.0000 -0.1122167547
C   C52       1.0  0.67300  0.19460  0.24350  1.0000 -0.1122167547
C   C53       1.0  0.70900  0.24130  0.72980  1.0000 -0.2196076176
C   C54       1.0  0.70900  0.25870  0.22980  1.0000 -0.2196076176
C   C55       1.0  0.57210  0.13820  0.53780  1.0000 -0.230399792
C   C56       1.0  0.57210  0.36180  0.03780  1.0000 -0.230399792
C   C57       1.0  0.48170  0.15850  0.96260  1.0000 -0.230399792
C   C58       1.0  0.48170  0.34150  0.46260  1.0000 -0.230399792
C   C59       1.0  0.82330  0.52740  0.83390  1.0000 -0.1442954772
C   C60       1.0  0.82330  0.97260  0.33390  1.0000 -0.1442954772
C   C61       1.0  0.21140  0.86550  0.12390  1.0000 -0.1764299505
C   C62       1.0  0.21140  0.63450  0.62390  1.0000 -0.1764299505
C   C63       1.0  0.62950  0.06860  0.02610  1.0000 -0.0400216162
C   C64       1.0  0.62950  0.43140  0.52610  1.0000 -0.0400216162
C   C65       1.0  0.17650  0.26890  0.84510  1.0000 -0.0830977095
C   C66       1.0  0.17650  0.23110  0.34510  1.0000 -0.0830977095
C   C67       1.0  0.49790  0.25770  0.65140  1.0000 -0.0830977095
C   C68       1.0  0.49790  0.24230  0.15140  1.0000 -0.0830977095
C   C69       1.0  0.83160  0.49910  0.78480  1.0000 0.1113834846
C   C70       1.0  0.83160  0.00090  0.28480  1.0000 0.1113834846
C   C71       1.0  0.10210  0.70900  0.78860  1.0000 -0.0884981221
C   C72       1.0  0.10210  0.79100  0.28860  1.0000 -0.0884981221
C   C73       1.0  0.24360  0.20620  0.86250  1.0000 -0.2072785952
C   C74       1.0  0.24360  0.29380  0.36250  1.0000 -0.2072785952
C   C75       1.0  0.13630  0.90960  0.11600  1.0000 -0.0400216162
C   C76       1.0  0.13630  0.59040  0.61600  1.0000 -0.0400216162
C   C77       1.0  0.53220  0.19160  0.63770  1.0000 -0.2196076176
C   C78       1.0  0.53220  0.30840  0.13770  1.0000 -0.2196076176
C   C79       1.0  0.69890  0.03280  0.60290  1.0000 -0.2072785952
C   C80       1.0  0.69890  0.46720  0.10290  1.0000 -0.2072785952
C   C81       1.0  0.58170  0.13510  0.02570  1.0000 -0.0884981221
C   C82       1.0  0.58170  0.36490  0.52570  1.0000 -0.0884981221
C   C83       1.0  0.88070  0.59350  0.87610  1.0000 -0.0400216162
C   C84       1.0  0.88070  0.90650  0.37610  1.0000 -0.0400216162
C   C85       1.0  0.56760  0.83760  0.24690  1.0000 -0.0094019467
C   C86       1.0  0.56760  0.66240  0.74690  1.0000 -0.0094019467
C   C87       1.0  0.54600  0.11330  0.47290  1.0000 -0.0884981221
C   C88       1.0  0.54600  0.38670  0.97290  1.0000 -0.0884981221
C   C89       1.0  0.26590  0.00680  0.19840  1.0000 0.1005139796
C   C90       1.0  0.26590  0.49320  0.69840  1.0000 0.1005139796
C   C91       1.0  0.16450  0.98120  0.15420  1.0000 -0.1523173087
C   C92       1.0  0.16450  0.51880  0.65420  1.0000 -0.1523173087
C   C93       1.0  0.67370  0.00910  0.53880  1.0000 -0.0884981221
C   C94       1.0  0.67370  0.49090  0.03880  1.0000 -0.0884981221
C   C95       1.0  0.53160  0.38380  0.72290  1.0000 0.5296671159
C   C96       1.0  0.53160  0.11620  0.22290  1.0000 0.5296671159
C   C97       1.0  0.59674  0.35510  0.31244  1.0000 0.1866991828
C   C98       1.0  0.59674  0.14490  0.81244  1.0000 0.1866991828
C   C99       1.0  0.26170  0.54700  0.40560  1.0000 0.540663696
C   C100      1.0  0.26170  0.95300  0.90560  1.0000 0.540663696
C   C101      1.0  0.79920  0.21000  0.53510  1.0000 -0.1919258785
C   C102      1.0  0.79920  0.29000  0.03510  1.0000 -0.1919258785
C   C103      1.0  0.88391  0.25230  0.60801  1.0000 -0.1122167547
C   C104      1.0  0.88391  0.24770  0.10801  1.0000 -0.1122167547
C   C105      1.0  0.99146  0.13450  0.69926  1.0000 0.1866991828
C   C106      1.0  0.99146  0.36550  0.19926  1.0000 0.1866991828
C   C107      1.0  0.48520  0.27240  0.29920  1.0000 -0.0830977095
C   C108      1.0  0.48520  0.22760  0.79920  1.0000 -0.0830977095
C   C109      1.0  0.67209  0.23110  0.39779  1.0000 -0.1122167547
C   C110      1.0  0.67209  0.26890  0.89779  1.0000 -0.1122167547
C   C111      1.0  0.05022  0.10080  0.68102  1.0000 0.1519386518
C   C112      1.0  0.05022  0.39920  0.18102  1.0000 0.1519386518
C   C113      1.0  0.93850  0.88750  0.73430  1.0000 0.5296671159
C   C114      1.0  0.93850  0.61250  0.23430  1.0000 0.5296671159
C   C115      1.0  0.85920  0.82410  0.71050  1.0000 -0.0400216162
C   C116      1.0  0.85920  0.67590  0.21050  1.0000 -0.0400216162
C   C117      1.0  0.43210  0.81500  0.79520  1.0000 -0.0400216162
C   C118      1.0  0.43210  0.68500  0.29520  1.0000 -0.0400216162
C   C119      1.0  0.35310  0.59730  0.89800  1.0000 0.248523879
C   C120      1.0  0.35310  0.90270  0.39800  1.0000 0.248523879
C   C121      1.0  0.42990  0.52640  0.09730  1.0000 0.5296671159
C   C122      1.0  0.42990  0.97360  0.59730  1.0000 0.5296671159
C   C123      1.0  0.72460  0.70000  0.67580  1.0000 0.2331888034
C   C124      1.0  0.72460  0.80000  0.17580  1.0000 0.2331888034
C   C125      1.0  0.57060  0.61410  0.60120  1.0000 0.248523879
C   C126      1.0  0.57060  0.88590  0.10120  1.0000 0.248523879
C   C127      1.0  0.05520  0.13110  0.63100  1.0000 -0.1764299505
C   C128      1.0  0.05520  0.36890  0.13100  1.0000 -0.1764299505
C   C129      1.0  0.75650  0.75520  0.73000  1.0000 -0.2196076176
C   C130      1.0  0.75650  0.74480  0.23000  1.0000 -0.2196076176
C   C131      1.0  0.42490  0.52400  0.53830  1.0000 -0.0830977095
C   C132      1.0  0.42490  0.97600  0.03830  1.0000 -0.0830977095
C   C133      1.0  0.73241  0.27090  0.47241  1.0000 -0.1919258785
C   C134      1.0  0.73241  0.22910  0.97241  1.0000 -0.1919258785
C   C135      1.0  0.36230  0.68480  0.82340  1.0000 0.2383467621
C   C136      1.0  0.36230  0.81520  0.32340  1.0000 0.2383467621
C   C137      1.0  0.68819  0.39500  0.33119  1.0000 0.1519386518
C   C138      1.0  0.68819  0.10500  0.83119  1.0000 0.1519386518
C   C139      1.0  0.94320  0.14680  0.76090  1.0000 -0.0178565782
C   C140      1.0  0.94320  0.35320  0.26090  1.0000 -0.0178565782
C   C141      1.0  0.40320  0.54930  0.02730  1.0000 -0.0400216162
C   C142      1.0  0.40320  0.95070  0.52730  1.0000 -0.0400216162
C   C143      1.0  0.82440  0.81610  0.74750  1.0000 -0.1122167547
C   C144      1.0  0.82440  0.68390  0.24750  1.0000 -0.1122167547
C   C145      1.0  0.52480  0.54630  0.60210  1.0000 -0.2072785952
C   C146      1.0  0.52480  0.95370  0.10210  1.0000 -0.2072785952
C   C147      1.0  0.32700  0.80540  0.75650  1.0000 -0.1122167547
C   C148      1.0  0.32700  0.69460  0.25650  1.0000 -0.1122167547
C   C149      1.0  0.29100  0.74130  0.77020  1.0000 -0.2196076176
C   C150      1.0  0.29100  0.75870  0.27020  1.0000 -0.2196076176
C   C151      1.0  0.42790  0.63820  0.96220  1.0000 -0.230399792
C   C152      1.0  0.42790  0.86180  0.46220  1.0000 -0.230399792
C   C153      1.0  0.51830  0.65850  0.53740  1.0000 -0.230399792
C   C154      1.0  0.51830  0.84150  0.03740  1.0000 -0.230399792
C   C155      1.0  0.17670  0.02740  0.66610  1.0000 -0.1442954772
C   C156      1.0  0.17670  0.47260  0.16610  1.0000 -0.1442954772
C   C157      1.0  0.78860  0.36550  0.37610  1.0000 -0.1764299505
C   C158      1.0  0.78860  0.13450  0.87610  1.0000 -0.1764299505
C   C159      1.0  0.37050  0.56860  0.47390  1.0000 -0.0400216162
C   C160      1.0  0.37050  0.93140  0.97390  1.0000 -0.0400216162
C   C161      1.0  0.82350  0.76890  0.65490  1.0000 -0.0830977095
C   C162      1.0  0.82350  0.73110  0.15490  1.0000 -0.0830977095
C   C163      1.0  0.50210  0.75770  0.84860  1.0000 -0.0830977095
C   C164      1.0  0.50210  0.74230  0.34860  1.0000 -0.0830977095
C   C165      1.0  0.16840  0.99910  0.71520  1.0000 0.1113834846
C   C166      1.0  0.16840  0.50090  0.21520  1.0000 0.1113834846
C   C167      1.0  0.89790  0.20900  0.71140  1.0000 -0.0884981221
C   C168      1.0  0.89790  0.29100  0.21140  1.0000 -0.0884981221
C   C169      1.0  0.75640  0.70620  0.63750  1.0000 -0.2072785952
C   C170      1.0  0.75640  0.79380  0.13750  1.0000 -0.2072785952
C   C171      1.0  0.86370  0.40960  0.38400  1.0000 -0.0400216162
C   C172      1.0  0.86370  0.09040  0.88400  1.0000 -0.0400216162
C   C173      1.0  0.46780  0.69160  0.86230  1.0000 -0.2196076176
C   C174      1.0  0.46780  0.80840  0.36230  1.0000 -0.2196076176
C   C175      1.0  0.30110  0.53280  0.89710  1.0000 -0.2072785952
C   C176      1.0  0.30110  0.96720  0.39710  1.0000 -0.2072785952
C   C177      1.0  0.41830  0.63510  0.47430  1.0000 -0.0884981221
C   C178      1.0  0.41830  0.86490  0.97430  1.0000 -0.0884981221
C   C179      1.0  0.11930  0.09350  0.62390  1.0000 -0.0400216162
C   C180      1.0  0.11930  0.40650  0.12390  1.0000 -0.0400216162
C   C181      1.0  0.43240  0.33760  0.25310  1.0000 -0.0094019467
C   C182      1.0  0.43240  0.16240  0.75310  1.0000 -0.0094019467
C   C183      1.0  0.45400  0.61330  0.02710  1.0000 -0.0884981221
C   C184      1.0  0.45400  0.88670  0.52710  1.0000 -0.0884981221
C   C185      1.0  0.73410  0.50680  0.30160  1.0000 0.1005139796
C   C186      1.0  0.73410  0.99320  0.80160  1.0000 0.1005139796
C   C187      1.0  0.83550  0.48120  0.34580  1.0000 -0.1523173087
C   C188      1.0  0.83550  0.01880  0.84580  1.0000 -0.1523173087
C   C189      1.0  0.32630  0.50910  0.96120  1.0000 -0.0884981221
C   C190      1.0  0.32630  0.99090  0.46120  1.0000 -0.0884981221
C   C191      1.0  0.46840  0.88380  0.77710  1.0000 0.5296671159
C   C192      1.0  0.46840  0.61620  0.27710  1.0000 0.5296671159
N   N1        1.0  0.07202  0.70018  0.82783  1.0000 0.0216573394
N   N2        1.0  0.07202  0.79982  0.32783  1.0000 0.0216573394
N   N3        1.0  0.41093  0.78462  0.16326  1.0000 0.0216573394
N   N4        1.0  0.41093  0.71538  0.66326  1.0000 0.0216573394
N   N5        1.0  0.89422  0.53364  0.77827  1.0000 -0.2403682498
N   N6        1.0  0.89422  0.96636  0.27827  1.0000 -0.2403682498
N   N7        1.0  0.33798  0.96630  0.20513  1.0000 -0.2403682498
N   N8        1.0  0.33798  0.53370  0.70513  1.0000 -0.2403682498
N   N9        1.0  0.49777  0.88830  0.23853  1.0000 -0.3032337659
N   N10       1.0  0.49777  0.61170  0.73853  1.0000 -0.3032337659
N   N11       1.0  0.99858  0.60131  0.74682  1.0000 -0.3032337659
N   N12       1.0  0.99858  0.89869  0.24682  1.0000 -0.3032337659
N   N13       1.0  0.92798  0.20018  0.67217  1.0000 0.0216573394
N   N14       1.0  0.92798  0.29982  0.17217  1.0000 0.0216573394
N   N15       1.0  0.58907  0.28462  0.33674  1.0000 0.0216573394
N   N16       1.0  0.58907  0.21538  0.83674  1.0000 0.0216573394
N   N17       1.0  0.10578  0.03364  0.72173  1.0000 -0.2403682498
N   N18       1.0  0.10578  0.46636  0.22173  1.0000 -0.2403682498
N   N19       1.0  0.66202  0.46630  0.29487  1.0000 -0.2403682498
N   N20       1.0  0.66202  0.03370  0.79487  1.0000 -0.2403682498
N   N21       1.0  0.50223  0.38830  0.26147  1.0000 -0.3032337659
N   N22       1.0  0.50223  0.11170  0.76147  1.0000 -0.3032337659
N   N23       1.0  0.00142  0.10131  0.75318  1.0000 -0.3032337659
N   N24       1.0  0.00142  0.39869  0.25318  1.0000 -0.3032337659
O   O1        1.0  0.78180  0.98370  0.09543  1.0000 -0.5412589047
O   O2        1.0  0.78180  0.51630  0.59543  1.0000 -0.5412589047
O   O3        1.0  0.33223  0.13356  0.83179  1.0000 -0.2196076176
O   O4        1.0  0.33223  0.36644  0.33179  1.0000 -0.2196076176
O   O5        1.0  0.78677  0.09139  0.15063  1.0000 -0.5412589047
O   O6        1.0  0.78677  0.40861  0.65063  1.0000 -0.5412589047
O   O7        1.0  0.01681  0.42603  0.70646  1.0000 -0.5412589047
O   O8        1.0  0.01681  0.07397  0.20646  1.0000 -0.5412589047
O   O9        1.0  0.67937  0.11755  0.66962  1.0000 -0.230399792
O   O10       1.0  0.67937  0.38245  0.16962  1.0000 -0.230399792
O   O11       1.0  0.03793  0.40090  0.80263  1.0000 -0.523055815
O   O12       1.0  0.03793  0.09910  0.30263  1.0000 -0.523055815
O   O13       1.0  0.61919  0.97280  0.40109  1.0000 -0.5302677982
O   O14       1.0  0.61919  0.52720  0.90109  1.0000 -0.5302677982
O   O15       1.0  0.49627  0.06500  0.34456  1.0000 -0.5465688788
O   O16       1.0  0.49627  0.43500  0.84456  1.0000 -0.5465688788
O   O17       1.0  0.59810  0.43173  0.77410  1.0000 -0.5302677982
O   O18       1.0  0.59810  0.06827  0.27410  1.0000 -0.5302677982
O   O19       1.0  0.43690  0.39300  0.68790  1.0000 -0.5302677982
O   O20       1.0  0.43690  0.10700  0.18790  1.0000 -0.5302677982
O   O21       1.0  0.21820  0.48370  0.40457  1.0000 -0.5412589047
O   O22       1.0  0.21820  0.01630  0.90457  1.0000 -0.5412589047
O   O23       1.0  0.66777  0.63356  0.66821  1.0000 -0.2196076176
O   O24       1.0  0.66777  0.86644  0.16821  1.0000 -0.2196076176
O   O25       1.0  0.21323  0.59139  0.34937  1.0000 -0.5412589047
O   O26       1.0  0.21323  0.90861  0.84937  1.0000 -0.5412589047
O   O27       1.0  0.98319  0.92603  0.79354  1.0000 -0.5412589047
O   O28       1.0  0.98319  0.57397  0.29354  1.0000 -0.5412589047
O   O29       1.0  0.32063  0.61755  0.83038  1.0000 -0.230399792
O   O30       1.0  0.32063  0.88245  0.33038  1.0000 -0.230399792
O   O31       1.0  0.96207  0.90090  0.69737  1.0000 -0.523055815
O   O32       1.0  0.96207  0.59910  0.19737  1.0000 -0.523055815
O   O33       1.0  0.38081  0.47280  0.09891  1.0000 -0.5302677982
O   O34       1.0  0.38081  0.02720  0.59891  1.0000 -0.5302677982
O   O35       1.0  0.50373  0.56500  0.15544  1.0000 -0.5465688788
O   O36       1.0  0.50373  0.93500  0.65544  1.0000 -0.5465688788
O   O37       1.0  0.40190  0.93173  0.72590  1.0000 -0.5302677982
O   O38       1.0  0.40190  0.56827  0.22590  1.0000 -0.5302677982
O   O39       1.0  0.56310  0.89300  0.81210  1.0000 -0.5302677982
O   O40       1.0  0.56310  0.60700  0.31210  1.0000 -0.5302677982
