# DDEC6 charges by PACMAN v1.1 (https://github.com/mtap-research/PACMAN-charge/)
data_2009[Cd][bcu]3[ASR]1
_chemical_formula_sum              "Cd4 H56 C112 N16 O32"
_cell_length_a       8.393
_cell_length_b       22.2351
_cell_length_c       18.7421
_cell_angle_alpha    90
_cell_angle_beta     94.031
_cell_angle_gamma    90

_symmetry_space_group_name_H-M    "P 1"
_symmetry_Int_Tables_number       1

loop_
  _symmetry_equiv_pos_as_xyz
  'x, y, z'

loop_
  _atom_site_type_symbol
  _atom_site_label
  _atom_site_symmetry_multiplicity
  _atom_site_fract_x
  _atom_site_fract_y
  _atom_site_fract_z
  _atom_site_occupancy
  _atom_site_charge
Cd  Cd1       1.0  0.68424  0.44304  0.01288  1.0000 0.8589038304
Cd  Cd2       1.0  0.31576  0.94304  0.48712  1.0000 0.8589038304
Cd  Cd3       1.0  0.31576  0.55696  0.98712  1.0000 0.8589038304
Cd  Cd4       1.0  0.68424  0.05696  0.51288  1.0000 0.8589038304
H   H1        1.0  0.05800  0.45330  0.16720  1.0000 0.1176415221
H   H2        1.0  0.94200  0.95330  0.33280  1.0000 0.1176415221
H   H3        1.0  0.94200  0.54670  0.83280  1.0000 0.1176415221
H   H4        1.0  0.05800  0.04670  0.66720  1.0000 0.1176415221
H   H5        1.0  0.99920  0.38020  0.25340  1.0000 0.1331359013
H   H6        1.0  0.00080  0.88020  0.24660  1.0000 0.1331359013
H   H7        1.0  0.00080  0.61980  0.74660  1.0000 0.1331359013
H   H8        1.0  0.99920  0.11980  0.75340  1.0000 0.1331359013
H   H9        1.0  0.48730  0.37420  0.14280  1.0000 0.1331359013
H   H10       1.0  0.51270  0.87420  0.35720  1.0000 0.1331359013
H   H11       1.0  0.51270  0.62580  0.85720  1.0000 0.1331359013
H   H12       1.0  0.48730  0.12580  0.64280  1.0000 0.1331359013
H   H13       1.0  0.41530  0.15890  0.50510  1.0000 0.1103059291
H   H14       1.0  0.58470  0.65890  0.99490  1.0000 0.1103059291
H   H15       1.0  0.58470  0.84110  0.49490  1.0000 0.1103059291
H   H16       1.0  0.41530  0.34110  0.00510  1.0000 0.1103059291
H   H17       1.0  0.30550  0.23600  0.43380  1.0000 0.1408660016
H   H18       1.0  0.69450  0.73600  0.06620  1.0000 0.1408660016
H   H19       1.0  0.69450  0.76400  0.56620  1.0000 0.1408660016
H   H20       1.0  0.30550  0.26400  0.93380  1.0000 0.1408660016
H   H21       1.0  0.54960  0.16780  0.27220  1.0000 0.1498412889
H   H22       1.0  0.45040  0.66780  0.22780  1.0000 0.1498412889
H   H23       1.0  0.45040  0.83220  0.72780  1.0000 0.1498412889
H   H24       1.0  0.54960  0.33220  0.77220  1.0000 0.1498412889
H   H25       1.0  0.65550  0.09640  0.35150  1.0000 0.1176415221
H   H26       1.0  0.34450  0.59640  0.14850  1.0000 0.1176415221
H   H27       1.0  0.34450  0.90360  0.64850  1.0000 0.1176415221
H   H28       1.0  0.65550  0.40360  0.85150  1.0000 0.1176415221
H   H29       1.0  0.13200  0.30580  0.02600  1.0000 0.1176415221
H   H30       1.0  0.86800  0.80580  0.47400  1.0000 0.1176415221
H   H31       1.0  0.86800  0.69420  0.97400  1.0000 0.1176415221
H   H32       1.0  0.13200  0.19420  0.52600  1.0000 0.1176415221
H   H33       1.0  0.29370  0.22420  0.06880  1.0000 0.1331359013
H   H34       1.0  0.70630  0.72420  0.43120  1.0000 0.1331359013
H   H35       1.0  0.70630  0.77580  0.93120  1.0000 0.1331359013
H   H36       1.0  0.29370  0.27580  0.56880  1.0000 0.1331359013
H   H37       1.0  0.79790  0.26490  0.16480  1.0000 0.1408660016
H   H38       1.0  0.20210  0.76490  0.33520  1.0000 0.1408660016
H   H39       1.0  0.20210  0.73510  0.83520  1.0000 0.1408660016
H   H40       1.0  0.79790  0.23510  0.66480  1.0000 0.1408660016
H   H41       1.0  0.31760  0.95990  0.31910  1.0000 0.1103059291
H   H42       1.0  0.68240  0.45990  0.18090  1.0000 0.1103059291
H   H43       1.0  0.68240  0.04010  0.68090  1.0000 0.1103059291
H   H44       1.0  0.31760  0.54010  0.81910  1.0000 0.1103059291
H   H45       1.0  0.25210  0.02670  0.22670  1.0000 0.1498412889
H   H46       1.0  0.74790  0.52670  0.27330  1.0000 0.1498412889
H   H47       1.0  0.74790  0.97330  0.77330  1.0000 0.1498412889
H   H48       1.0  0.25210  0.47330  0.72670  1.0000 0.1498412889
H   H49       1.0  0.03710  0.13140  0.36970  1.0000 0.1498412889
H   H50       1.0  0.96290  0.63140  0.13030  1.0000 0.1498412889
H   H51       1.0  0.96290  0.86860  0.63030  1.0000 0.1498412889
H   H52       1.0  0.03710  0.36860  0.86970  1.0000 0.1498412889
H   H53       1.0  0.10960  0.06140  0.45470  1.0000 0.1176415221
H   H54       1.0  0.89040  0.56140  0.04530  1.0000 0.1176415221
H   H55       1.0  0.89040  0.93860  0.54530  1.0000 0.1176415221
H   H56       1.0  0.10960  0.43860  0.95470  1.0000 0.1176415221
C   C1        1.0  0.30640  0.46580  0.09020  1.0000 0.5505528352
C   C2        1.0  0.69360  0.96580  0.40980  1.0000 0.5505528352
C   C3        1.0  0.69360  0.53420  0.90980  1.0000 0.5505528352
C   C4        1.0  0.30640  0.03420  0.59020  1.0000 0.5505528352
C   C5        1.0  0.27540  0.41990  0.14700  1.0000 -0.0054506154
C   C6        1.0  0.72460  0.91990  0.35300  1.0000 -0.0054506154
C   C7        1.0  0.72460  0.58010  0.85300  1.0000 -0.0054506154
C   C8        1.0  0.27540  0.08010  0.64700  1.0000 -0.0054506154
C   C9        1.0  0.13290  0.42240  0.17980  1.0000 -0.0872916826
C   C10       1.0  0.86710  0.92240  0.32020  1.0000 -0.0872916826
C   C11       1.0  0.86710  0.57760  0.82020  1.0000 -0.0872916826
C   C12       1.0  0.13290  0.07760  0.67980  1.0000 -0.0872916826
C   C13       1.0  0.09810  0.37960  0.23170  1.0000 -0.0872916826
C   C14       1.0  0.90190  0.87960  0.26830  1.0000 -0.0872916826
C   C15       1.0  0.90190  0.62040  0.76830  1.0000 -0.0872916826
C   C16       1.0  0.09810  0.12040  0.73170  1.0000 -0.0872916826
C   C17       1.0  0.21100  0.33730  0.24970  1.0000 -0.046697245
C   C18       1.0  0.78900  0.83730  0.25030  1.0000 -0.046697245
C   C19       1.0  0.78900  0.66270  0.75030  1.0000 -0.046697245
C   C20       1.0  0.21100  0.16270  0.74970  1.0000 -0.046697245
C   C21       1.0  0.35390  0.33600  0.21800  1.0000 -0.0638725632
C   C22       1.0  0.64610  0.83600  0.28200  1.0000 -0.0638725632
C   C23       1.0  0.64610  0.66400  0.78200  1.0000 -0.0638725632
C   C24       1.0  0.35390  0.16400  0.71800  1.0000 -0.0638725632
C   C25       1.0  0.38960  0.37620  0.16530  1.0000 -0.1062687882
C   C26       1.0  0.61040  0.87620  0.33470  1.0000 -0.1062687882
C   C27       1.0  0.61040  0.62380  0.83470  1.0000 -0.1062687882
C   C28       1.0  0.38960  0.12380  0.66530  1.0000 -0.1062687882
C   C29       1.0  0.45140  0.28570  0.24830  1.0000 0.4383718795
C   C30       1.0  0.54860  0.78570  0.25170  1.0000 0.4383718795
C   C31       1.0  0.54860  0.71430  0.75170  1.0000 0.4383718795
C   C32       1.0  0.45140  0.21430  0.74830  1.0000 0.4383718795
C   C33       1.0  0.20990  0.28650  0.30180  1.0000 0.4383718795
C   C34       1.0  0.79010  0.78650  0.19820  1.0000 0.4383718795
C   C35       1.0  0.79010  0.71350  0.69820  1.0000 0.4383718795
C   C36       1.0  0.20990  0.21350  0.80180  1.0000 0.4383718795
C   C37       1.0  0.44380  0.16160  0.45700  1.0000 0.0997402757
C   C38       1.0  0.55620  0.66160  0.04300  1.0000 0.0997402757
C   C39       1.0  0.55620  0.83840  0.54300  1.0000 0.0997402757
C   C40       1.0  0.44380  0.33840  0.95700  1.0000 0.0997402757
C   C41       1.0  0.37640  0.20760  0.41530  1.0000 -0.2289531049
C   C42       1.0  0.62360  0.70760  0.08470  1.0000 -0.2289531049
C   C43       1.0  0.62360  0.79240  0.58470  1.0000 -0.2289531049
C   C44       1.0  0.37640  0.29240  0.91530  1.0000 -0.2289531049
C   C45       1.0  0.41770  0.21010  0.34470  1.0000 0.2334751687
C   C46       1.0  0.58230  0.71010  0.15530  1.0000 0.2334751687
C   C47       1.0  0.58230  0.78990  0.65530  1.0000 0.2334751687
C   C48       1.0  0.41770  0.28990  0.84470  1.0000 0.2334751687
C   C49       1.0  0.52130  0.16760  0.32040  1.0000 -0.1922192522
C   C50       1.0  0.47870  0.66760  0.17960  1.0000 -0.1922192522
C   C51       1.0  0.47870  0.83240  0.67960  1.0000 -0.1922192522
C   C52       1.0  0.52130  0.33240  0.82040  1.0000 -0.1922192522
C   C53       1.0  0.58210  0.12490  0.36790  1.0000 0.0997402757
C   C54       1.0  0.41790  0.62490  0.13210  1.0000 0.0997402757
C   C55       1.0  0.41790  0.87510  0.63210  1.0000 0.0997402757
C   C56       1.0  0.58210  0.37510  0.86790  1.0000 0.0997402757
C   C57       1.0  0.85680  0.34670  0.06400  1.0000 0.5403651497
C   C58       1.0  0.14320  0.84670  0.43600  1.0000 0.5403651497
C   C59       1.0  0.14320  0.65330  0.93600  1.0000 0.5403651497
C   C60       1.0  0.85680  0.15330  0.56400  1.0000 0.5403651497
C   C61       1.0  0.95380  0.29340  0.09140  1.0000 0.0020181566
C   C62       1.0  0.04620  0.79340  0.40860  1.0000 0.0020181566
C   C63       1.0  0.04620  0.70660  0.90860  1.0000 0.0020181566
C   C64       1.0  0.95380  0.20660  0.59140  1.0000 0.0020181566
C   C65       1.0  0.09770  0.28110  0.06330  1.0000 -0.1027816921
C   C66       1.0  0.90230  0.78110  0.43670  1.0000 -0.1027816921
C   C67       1.0  0.90230  0.71890  0.93670  1.0000 -0.1027816921
C   C68       1.0  0.09770  0.21890  0.56330  1.0000 -0.1027816921
C   C69       1.0  0.19520  0.23310  0.08850  1.0000 -0.1027816921
C   C70       1.0  0.80480  0.73310  0.41150  1.0000 -0.1027816921
C   C71       1.0  0.80480  0.76690  0.91150  1.0000 -0.1027816921
C   C72       1.0  0.19520  0.26690  0.58850  1.0000 -0.1027816921
C   C73       1.0  0.13900  0.19930  0.14410  1.0000 -0.0669377842
C   C74       1.0  0.86100  0.69930  0.35590  1.0000 -0.0669377842
C   C75       1.0  0.86100  0.80070  0.85590  1.0000 -0.0669377842
C   C76       1.0  0.13900  0.30070  0.64410  1.0000 -0.0669377842
C   C77       1.0  0.99410  0.21180  0.17120  1.0000 -0.046697245
C   C78       1.0  0.00590  0.71180  0.32880  1.0000 -0.046697245
C   C79       1.0  0.00590  0.78820  0.82880  1.0000 -0.046697245
C   C80       1.0  0.99410  0.28820  0.67120  1.0000 -0.046697245
C   C81       1.0  0.89840  0.25750  0.14610  1.0000 -0.0823663701
C   C82       1.0  0.10160  0.75750  0.35390  1.0000 -0.0823663701
C   C83       1.0  0.10160  0.74250  0.85390  1.0000 -0.0823663701
C   C84       1.0  0.89840  0.24250  0.64610  1.0000 -0.0823663701
C   C85       1.0  0.21630  0.14820  0.18330  1.0000 0.4383718795
C   C86       1.0  0.78370  0.64820  0.31670  1.0000 0.4383718795
C   C87       1.0  0.78370  0.85180  0.81670  1.0000 0.4383718795
C   C88       1.0  0.21630  0.35180  0.68330  1.0000 0.4383718795
C   C89       1.0  0.97040  0.16750  0.22980  1.0000 0.4580503605
C   C90       1.0  0.02960  0.66750  0.27020  1.0000 0.4580503605
C   C91       1.0  0.02960  0.83250  0.77020  1.0000 0.4580503605
C   C92       1.0  0.97040  0.33250  0.72980  1.0000 0.4580503605
C   C93       1.0  0.26200  0.99570  0.32930  1.0000 0.0772209442
C   C94       1.0  0.73800  0.49570  0.17070  1.0000 0.0772209442
C   C95       1.0  0.73800  0.00430  0.67070  1.0000 0.0772209442
C   C96       1.0  0.26200  0.50430  0.82930  1.0000 0.0772209442
C   C97       1.0  0.22370  0.03520  0.27380  1.0000 -0.2194193438
C   C98       1.0  0.77630  0.53520  0.22620  1.0000 -0.2194193438
C   C99       1.0  0.77630  0.96480  0.72620  1.0000 -0.2194193438
C   C100      1.0  0.22370  0.46480  0.77380  1.0000 -0.2194193438
C   C101      1.0  0.14250  0.08790  0.28890  1.0000 0.2353163264
C   C102      1.0  0.85750  0.58790  0.21110  1.0000 0.2353163264
C   C103      1.0  0.85750  0.91210  0.71110  1.0000 0.2353163264
C   C104      1.0  0.14250  0.41210  0.78890  1.0000 0.2353163264
C   C105      1.0  0.09700  0.09700  0.35780  1.0000 -0.2129658856
C   C106      1.0  0.90300  0.59700  0.14220  1.0000 -0.2129658856
C   C107      1.0  0.90300  0.90300  0.64220  1.0000 -0.2129658856
C   C108      1.0  0.09700  0.40300  0.85780  1.0000 -0.2129658856
C   C109      1.0  0.14130  0.05480  0.40760  1.0000 0.0997402757
C   C110      1.0  0.85870  0.55480  0.09240  1.0000 0.0997402757
C   C111      1.0  0.85870  0.94520  0.59240  1.0000 0.0997402757
C   C112      1.0  0.14130  0.44520  0.90760  1.0000 0.0997402757
N   N1        1.0  0.54450  0.12130  0.43510  1.0000 -0.2289531049
N   N2        1.0  0.45550  0.62130  0.06490  1.0000 -0.2289531049
N   N3        1.0  0.45550  0.87870  0.56490  1.0000 -0.2289531049
N   N4        1.0  0.54450  0.37870  0.93510  1.0000 -0.2289531049
N   N5        1.0  0.35910  0.25720  0.29910  1.0000 -0.2478769706
N   N6        1.0  0.64090  0.75720  0.20090  1.0000 -0.2478769706
N   N7        1.0  0.64090  0.74280  0.70090  1.0000 -0.2478769706
N   N8        1.0  0.35910  0.24280  0.79910  1.0000 -0.2478769706
N   N9        1.0  0.11020  0.13180  0.23560  1.0000 -0.2376766601
N   N10       1.0  0.88980  0.63180  0.26440  1.0000 -0.2376766601
N   N11       1.0  0.88980  0.86820  0.76440  1.0000 -0.2376766601
N   N12       1.0  0.11020  0.36820  0.73560  1.0000 -0.2376766601
N   N13       1.0  0.22460  0.00530  0.39710  1.0000 -0.2478769706
N   N14       1.0  0.77540  0.50530  0.10290  1.0000 -0.2478769706
N   N15       1.0  0.77540  0.99470  0.60290  1.0000 -0.2478769706
N   N16       1.0  0.22460  0.49470  0.89710  1.0000 -0.2478769706
O   O1        1.0  0.42940  0.45985  0.05620  1.0000 -0.5805396983
O   O2        1.0  0.57060  0.95985  0.44380  1.0000 -0.5805396983
O   O3        1.0  0.57060  0.54015  0.94380  1.0000 -0.5805396983
O   O4        1.0  0.42940  0.04015  0.55620  1.0000 -0.5805396983
O   O5        1.0  0.20670  0.50670  0.07850  1.0000 -0.5171768316
O   O6        1.0  0.79330  0.00670  0.42150  1.0000 -0.5171768316
O   O7        1.0  0.79330  0.49330  0.92150  1.0000 -0.5171768316
O   O8        1.0  0.20670  0.99330  0.57850  1.0000 -0.5171768316
O   O9        1.0  0.10630  0.27020  0.33880  1.0000 -0.4008631692
O   O10       1.0  0.89370  0.77020  0.16120  1.0000 -0.4008631692
O   O11       1.0  0.89370  0.72980  0.66120  1.0000 -0.4008631692
O   O12       1.0  0.10630  0.22980  0.83880  1.0000 -0.4008631692
O   O13       1.0  0.58490  0.27130  0.23580  1.0000 -0.3870656961
O   O14       1.0  0.41510  0.77130  0.26420  1.0000 -0.3870656961
O   O15       1.0  0.41510  0.72870  0.76420  1.0000 -0.3870656961
O   O16       1.0  0.58490  0.22870  0.73580  1.0000 -0.3870656961
O   O17       1.0  0.72810  0.35922  0.09160  1.0000 -0.5567598441
O   O18       1.0  0.27190  0.85922  0.40840  1.0000 -0.5567598441
O   O19       1.0  0.27190  0.64078  0.90840  1.0000 -0.5567598441
O   O20       1.0  0.72810  0.14078  0.59160  1.0000 -0.5567598441
O   O21       1.0  0.90970  0.37690  0.01370  1.0000 -0.5525532463
O   O22       1.0  0.09030  0.87690  0.48630  1.0000 -0.5525532463
O   O23       1.0  0.09030  0.62310  0.98630  1.0000 -0.5525532463
O   O24       1.0  0.90970  0.12310  0.51370  1.0000 -0.5525532463
O   O25       1.0  0.85600  0.16050  0.26380  1.0000 -0.3818804496
O   O26       1.0  0.14400  0.66050  0.23620  1.0000 -0.3818804496
O   O27       1.0  0.14400  0.83950  0.73620  1.0000 -0.3818804496
O   O28       1.0  0.85600  0.33950  0.76380  1.0000 -0.3818804496
O   O29       1.0  0.34270  0.12400  0.17460  1.0000 -0.4008631692
O   O30       1.0  0.65730  0.62400  0.32540  1.0000 -0.4008631692
O   O31       1.0  0.65730  0.87600  0.82540  1.0000 -0.4008631692
O   O32       1.0  0.34270  0.37600  0.67460  1.0000 -0.4008631692
