# DDEC6 charges by PACMAN v1.1 (https://github.com/mtap-research/PACMAN-charge/)
data_2009[Cd][sqc]3[ASR]1
_chemical_formula_sum              "Cd2 H66 C66 N24"
_cell_length_a       13.3218
_cell_length_b       13.3218
_cell_length_c       13.3218
_cell_angle_alpha    106.132
_cell_angle_beta     106.132
_cell_angle_gamma    106.132

_symmetry_space_group_name_H-M    "P 1"
_symmetry_Int_Tables_number       1

loop_
  _symmetry_equiv_pos_as_xyz
  'x, y, z'

loop_
  _atom_site_type_symbol
  _atom_site_label
  _atom_site_symmetry_multiplicity
  _atom_site_fract_x
  _atom_site_fract_y
  _atom_site_fract_z
  _atom_site_occupancy
  _atom_site_charge
Cd  Cd1       1.0  0.00000  0.00000  0.00000  1.0000 0.6840059819
Cd  Cd2       1.0  0.50000  0.50000  0.50000  1.0000 0.6747250022
H   H1        1.0  0.85650  0.36380  0.01160  1.0000 0.1091553105
H   H2        1.0  0.36380  0.01160  0.85650  1.0000 0.1091553105
H   H3        1.0  0.01160  0.85650  0.36380  1.0000 0.1091553105
H   H4        1.0  0.14350  0.63620  0.98840  1.0000 0.1091553105
H   H5        1.0  0.63620  0.98840  0.14350  1.0000 0.1091553105
H   H6        1.0  0.98840  0.14350  0.63620  1.0000 0.1091553105
H   H7        1.0  0.97830  0.48410  0.24110  1.0000 0.1091553105
H   H8        1.0  0.48410  0.24110  0.97830  1.0000 0.1091553105
H   H9        1.0  0.24110  0.97830  0.48410  1.0000 0.1091553105
H   H10       1.0  0.02170  0.51590  0.75890  1.0000 0.1091553105
H   H11       1.0  0.51590  0.75890  0.02170  1.0000 0.1091553105
H   H12       1.0  0.75890  0.02170  0.51590  1.0000 0.1091553105
H   H13       1.0  0.10670  0.49770  0.26290  1.0000 0.1014243202
H   H14       1.0  0.49770  0.26290  0.10670  1.0000 0.1014243202
H   H15       1.0  0.26290  0.10670  0.49770  1.0000 0.1014243202
H   H16       1.0  0.89330  0.50230  0.73710  1.0000 0.1014243202
H   H17       1.0  0.50230  0.73710  0.89330  1.0000 0.1014243202
H   H18       1.0  0.73710  0.89330  0.50230  1.0000 0.1014243202
H   H19       1.0  0.08220  0.28280  0.08980  1.0000 0.1014243202
H   H20       1.0  0.28280  0.08980  0.08220  1.0000 0.1014243202
H   H21       1.0  0.08980  0.08220  0.28280  1.0000 0.1014243202
H   H22       1.0  0.91780  0.71720  0.91020  1.0000 0.1014243202
H   H23       1.0  0.71720  0.91020  0.91780  1.0000 0.1014243202
H   H24       1.0  0.91020  0.91780  0.71720  1.0000 0.1014243202
H   H25       1.0  0.87270  0.10360  0.19170  1.0000 0.1091553105
H   H26       1.0  0.10360  0.19170  0.87270  1.0000 0.1091553105
H   H27       1.0  0.19170  0.87270  0.10360  1.0000 0.1091553105
H   H28       1.0  0.12730  0.89640  0.80830  1.0000 0.1091553105
H   H29       1.0  0.89640  0.80830  0.12730  1.0000 0.1091553105
H   H30       1.0  0.80830  0.12730  0.89640  1.0000 0.1091553105
H   H31       1.0  0.88560  0.30060  0.26650  1.0000 0.1091553105
H   H32       1.0  0.30060  0.26650  0.88560  1.0000 0.1091553105
H   H33       1.0  0.26650  0.88560  0.30060  1.0000 0.1091553105
H   H34       1.0  0.11440  0.69940  0.73350  1.0000 0.1091553105
H   H35       1.0  0.69940  0.73350  0.11440  1.0000 0.1091553105
H   H36       1.0  0.73350  0.11440  0.69940  1.0000 0.1091553105
H   H37       1.0  0.20490  0.67600  0.25700  1.0000 0.1014243202
H   H38       1.0  0.67600  0.25700  0.20490  1.0000 0.1014243202
H   H39       1.0  0.25700  0.20490  0.67600  1.0000 0.1014243202
H   H40       1.0  0.79510  0.32400  0.74300  1.0000 0.1014243202
H   H41       1.0  0.32400  0.74300  0.79510  1.0000 0.1014243202
H   H42       1.0  0.74300  0.79510  0.32400  1.0000 0.1014243202
H   H43       1.0  0.26230  0.68990  0.16830  1.0000 0.1091553105
H   H44       1.0  0.68990  0.16830  0.26230  1.0000 0.1091553105
H   H45       1.0  0.16830  0.26230  0.68990  1.0000 0.1091553105
H   H46       1.0  0.73770  0.31010  0.83170  1.0000 0.1091553105
H   H47       1.0  0.31010  0.83170  0.73770  1.0000 0.1091553105
H   H48       1.0  0.83170  0.73770  0.31010  1.0000 0.1091553105
H   H49       1.0  0.34430  0.63670  0.39570  1.0000 0.1014243202
H   H50       1.0  0.63670  0.39570  0.34430  1.0000 0.1014243202
H   H51       1.0  0.39570  0.34430  0.63670  1.0000 0.1014243202
H   H52       1.0  0.65570  0.36330  0.60430  1.0000 0.1014243202
H   H53       1.0  0.36330  0.60430  0.65570  1.0000 0.1014243202
H   H54       1.0  0.60430  0.65570  0.36330  1.0000 0.1014243202
H   H55       1.0  0.38990  0.38730  0.19480  1.0000 0.1091553105
H   H56       1.0  0.38730  0.19480  0.38990  1.0000 0.1091553105
H   H57       1.0  0.19480  0.38990  0.38730  1.0000 0.1091553105
H   H58       1.0  0.61010  0.61270  0.80520  1.0000 0.1091553105
H   H59       1.0  0.61270  0.80520  0.61010  1.0000 0.1091553105
H   H60       1.0  0.80520  0.61010  0.61270  1.0000 0.1091553105
H   H61       1.0  0.26620  0.44970  0.07190  1.0000 0.1178509804
H   H62       1.0  0.44970  0.07190  0.26620  1.0000 0.1178509804
H   H63       1.0  0.07190  0.26620  0.44970  1.0000 0.1178509804
H   H64       1.0  0.73380  0.55030  0.92810  1.0000 0.1178509804
H   H65       1.0  0.55030  0.92810  0.73380  1.0000 0.1178509804
H   H66       1.0  0.92810  0.73380  0.55030  1.0000 0.1178509804
C   C1        1.0  0.01727  0.47943  0.10060  1.0000 0.0466793874
C   C2        1.0  0.47943  0.10060  0.01727  1.0000 0.0466793874
C   C3        1.0  0.10060  0.01727  0.47943  1.0000 0.0466793874
C   C4        1.0  0.98273  0.52057  0.89940  1.0000 0.0466793874
C   C5        1.0  0.52057  0.89940  0.98273  1.0000 0.0466793874
C   C6        1.0  0.89940  0.98273  0.52057  1.0000 0.0466793874
C   C7        1.0  0.10338  0.56202  0.09360  1.0000 0.0393070553
C   C8        1.0  0.56202  0.09360  0.10338  1.0000 0.0393070553
C   C9        1.0  0.09360  0.10338  0.56202  1.0000 0.0393070553
C   C10       1.0  0.89662  0.43798  0.90640  1.0000 0.0393070553
C   C11       1.0  0.43798  0.90640  0.89662  1.0000 0.0393070553
C   C12       1.0  0.90640  0.89662  0.43798  1.0000 0.0393070553
C   C13       1.0  0.91550  0.41960  0.00690  1.0000 -0.2496684182
C   C14       1.0  0.41960  0.00690  0.91550  1.0000 -0.2496684182
C   C15       1.0  0.00690  0.91550  0.41960  1.0000 -0.2496684182
C   C16       1.0  0.08450  0.58040  0.99310  1.0000 -0.2496684182
C   C17       1.0  0.58040  0.99310  0.08450  1.0000 -0.2496684182
C   C18       1.0  0.99310  0.08450  0.58040  1.0000 -0.2496684182
C   C19       1.0  0.02760  0.45600  0.20730  1.0000 -0.1824165223
C   C20       1.0  0.45600  0.20730  0.02760  1.0000 -0.1824165223
C   C21       1.0  0.20730  0.02760  0.45600  1.0000 -0.1824165223
C   C22       1.0  0.97240  0.54400  0.79270  1.0000 -0.1824165223
C   C23       1.0  0.54400  0.79270  0.97240  1.0000 -0.1824165223
C   C24       1.0  0.79270  0.97240  0.54400  1.0000 -0.1824165223
C   C25       1.0  0.03050  0.26170  0.12420  1.0000 0.0560912775
C   C26       1.0  0.26170  0.12420  0.03050  1.0000 0.0560912775
C   C27       1.0  0.12420  0.03050  0.26170  1.0000 0.0560912775
C   C28       1.0  0.96950  0.73830  0.87580  1.0000 0.0560912775
C   C29       1.0  0.73830  0.87580  0.96950  1.0000 0.0560912775
C   C30       1.0  0.87580  0.96950  0.73830  1.0000 0.0560912775
C   C31       1.0  0.91710  0.16530  0.18010  1.0000 -0.0743619887
C   C32       1.0  0.16530  0.18010  0.91710  1.0000 -0.0743619887
C   C33       1.0  0.18010  0.91710  0.16530  1.0000 -0.0756525662
C   C34       1.0  0.08290  0.83470  0.81990  1.0000 -0.0743619887
C   C35       1.0  0.83470  0.81990  0.08290  1.0000 -0.0756525662
C   C36       1.0  0.81990  0.08290  0.83470  1.0000 -0.0743619887
C   C37       1.0  0.92350  0.27310  0.22130  1.0000 -0.1514788655
C   C38       1.0  0.27310  0.22130  0.92350  1.0000 -0.1514788655
C   C39       1.0  0.22130  0.92350  0.27310  1.0000 -0.1514788655
C   C40       1.0  0.07650  0.72690  0.77870  1.0000 -0.1514788655
C   C41       1.0  0.72690  0.77870  0.07650  1.0000 -0.1514788655
C   C42       1.0  0.77870  0.07650  0.72690  1.0000 -0.1514788655
C   C43       1.0  0.21710  0.63380  0.19040  1.0000 -0.1907525994
C   C44       1.0  0.63380  0.19040  0.21710  1.0000 -0.1907525994
C   C45       1.0  0.19040  0.21710  0.63380  1.0000 -0.1907525994
C   C46       1.0  0.78290  0.36620  0.80960  1.0000 -0.1907525994
C   C47       1.0  0.36620  0.80960  0.78290  1.0000 -0.1907525994
C   C48       1.0  0.80960  0.78290  0.36620  1.0000 -0.1907525994
C   C49       1.0  0.34060  0.58160  0.33030  1.0000 0.0329866322
C   C50       1.0  0.58160  0.33030  0.34060  1.0000 0.0393070553
C   C51       1.0  0.33030  0.34060  0.58160  1.0000 0.0329866322
C   C52       1.0  0.65940  0.41840  0.66970  1.0000 0.0393070553
C   C53       1.0  0.41840  0.66970  0.65940  1.0000 0.0393070553
C   C54       1.0  0.66970  0.65940  0.41840  1.0000 0.0329866322
C   C55       1.0  0.36470  0.44630  0.22040  1.0000 -0.0756525662
C   C56       1.0  0.44630  0.22040  0.36470  1.0000 -0.0756525662
C   C57       1.0  0.22040  0.36470  0.44630  1.0000 -0.0756525662
C   C58       1.0  0.63530  0.55370  0.77960  1.0000 -0.0756525662
C   C59       1.0  0.55370  0.77960  0.63530  1.0000 -0.0756525662
C   C60       1.0  0.77960  0.63530  0.55370  1.0000 -0.0756525662
C   C61       1.0  0.29710  0.47990  0.15240  1.0000 -0.1329583986
C   C62       1.0  0.47990  0.15240  0.29710  1.0000 -0.1329583986
C   C63       1.0  0.15240  0.29710  0.47990  1.0000 -0.1329583986
C   C64       1.0  0.70290  0.52010  0.84760  1.0000 -0.1329583986
C   C65       1.0  0.52010  0.84760  0.70290  1.0000 -0.1329583986
C   C66       1.0  0.84760  0.70290  0.52010  1.0000 -0.1329583986
N   N1        1.0  0.99533  0.33422  0.18435  1.0000 0.0329866322
N   N2        1.0  0.33422  0.18435  0.99533  1.0000 0.0329866322
N   N3        1.0  0.18435  0.99533  0.33422  1.0000 0.0329866322
N   N4        1.0  0.00467  0.66578  0.81565  1.0000 0.0329866322
N   N5        1.0  0.66578  0.81565  0.00467  1.0000 0.0329866322
N   N6        1.0  0.81565  0.00467  0.66578  1.0000 0.0329866322
N   N7        1.0  0.98475  0.15867  0.11908  1.0000 -0.2945065139
N   N8        1.0  0.15867  0.11908  0.98475  1.0000 -0.2963069169
N   N9        1.0  0.11908  0.98475  0.15867  1.0000 -0.2945065139
N   N10       1.0  0.01525  0.84133  0.88092  1.0000 -0.2945065139
N   N11       1.0  0.84133  0.88092  0.01525  1.0000 -0.2945065139
N   N12       1.0  0.88092  0.01525  0.84133  1.0000 -0.2963069169
N   N13       1.0  0.28158  0.56614  0.22268  1.0000 0.0329866322
N   N14       1.0  0.56614  0.22268  0.28158  1.0000 0.0329866322
N   N15       1.0  0.22268  0.28158  0.56614  1.0000 0.0329866322
N   N16       1.0  0.71842  0.43386  0.77732  1.0000 0.0329866322
N   N17       1.0  0.43386  0.77732  0.71842  1.0000 0.0329866322
N   N18       1.0  0.77732  0.71842  0.43386  1.0000 0.0329866322
N   N19       1.0  0.39201  0.51069  0.33270  1.0000 -0.2963069169
N   N20       1.0  0.51069  0.33270  0.39201  1.0000 -0.2963069169
N   N21       1.0  0.33270  0.39201  0.51069  1.0000 -0.2963069169
N   N22       1.0  0.60799  0.48931  0.66730  1.0000 -0.2963069169
N   N23       1.0  0.48931  0.66730  0.60799  1.0000 -0.2963069169
N   N24       1.0  0.66730  0.60799  0.48931  1.0000 -0.2963069169
