# DDEC6 charges by PACMAN v1.1 (https://github.com/mtap-research/PACMAN-charge/)
data_2009[Fe][utp]3[ASR]1
_chemical_formula_sum              "Fe4 H20 C40 N12 O16"
_cell_length_a       7.785
_cell_length_b       10.238
_cell_length_c       15.851
_cell_angle_alpha    90
_cell_angle_beta     90
_cell_angle_gamma    90

_symmetry_space_group_name_H-M    "P 1"
_symmetry_Int_Tables_number       1

loop_
  _symmetry_equiv_pos_as_xyz
  'x, y, z'

loop_
  _atom_site_type_symbol
  _atom_site_label
  _atom_site_symmetry_multiplicity
  _atom_site_fract_x
  _atom_site_fract_y
  _atom_site_fract_z
  _atom_site_occupancy
  _atom_site_charge
Fe  Fe1       1.0  0.36188  0.47017  0.09834  1.0000 0.849895865
Fe  Fe2       1.0  0.63812  0.52983  0.59834  1.0000 0.849895865
Fe  Fe3       1.0  0.13812  0.97017  0.59834  1.0000 0.849895865
Fe  Fe4       1.0  0.86188  0.02983  0.09834  1.0000 0.849895865
H   H1        1.0  0.41400  0.05070  0.28930  1.0000 0.3148755434
H   H2        1.0  0.58600  0.94930  0.78930  1.0000 0.3148755434
H   H3        1.0  0.08600  0.55070  0.78930  1.0000 0.3148755434
H   H4        1.0  0.91400  0.44930  0.28930  1.0000 0.3148755434
H   H5        1.0  0.54920  0.58880  0.41360  1.0000 0.1211345171
H   H6        1.0  0.45080  0.41120  0.91360  1.0000 0.1211345171
H   H7        1.0  0.95080  0.08880  0.91360  1.0000 0.1211345171
H   H8        1.0  0.04920  0.91120  0.41360  1.0000 0.1211345171
H   H9        1.0  0.65760  0.24840  0.51460  1.0000 0.1211345171
H   H10       1.0  0.34240  0.75160  0.01460  1.0000 0.1211345171
H   H11       1.0  0.84240  0.74840  0.01460  1.0000 0.1211345171
H   H12       1.0  0.15760  0.25160  0.51460  1.0000 0.1211345171
H   H13       1.0  0.55570  0.14010  0.39730  1.0000 0.1430991221
H   H14       1.0  0.44430  0.85990  0.89730  1.0000 0.1430991221
H   H15       1.0  0.94430  0.64010  0.89730  1.0000 0.1430991221
H   H16       1.0  0.05570  0.35990  0.39730  1.0000 0.1430991221
H   H17       1.0  0.43660  0.49090  0.29550  1.0000 0.1430991221
H   H18       1.0  0.56340  0.50910  0.79550  1.0000 0.1430991221
H   H19       1.0  0.06340  0.99090  0.79550  1.0000 0.1430991221
H   H20       1.0  0.93660  0.00910  0.29550  1.0000 0.1430991221
C   C1        1.0  0.54700  0.49610  0.41087  1.0000 0.0915542806
C   C2        1.0  0.45300  0.50390  0.91087  1.0000 0.0915542806
C   C3        1.0  0.95300  0.99610  0.91087  1.0000 0.0915542806
C   C4        1.0  0.04700  0.00390  0.41087  1.0000 0.0915542806
C   C5        1.0  0.61110  0.29810  0.46944  1.0000 0.0915542806
C   C6        1.0  0.38890  0.70190  0.96944  1.0000 0.0915542806
C   C7        1.0  0.88890  0.79810  0.96944  1.0000 0.0915542806
C   C8        1.0  0.11110  0.20190  0.46944  1.0000 0.0915542806
C   C9        1.0  0.54960  0.23260  0.40004  1.0000 -0.2035488781
C   C10       1.0  0.45040  0.76740  0.90004  1.0000 -0.2035488781
C   C11       1.0  0.95040  0.73260  0.90004  1.0000 -0.2035488781
C   C12       1.0  0.04960  0.26740  0.40004  1.0000 -0.2035488781
C   C13       1.0  0.48070  0.43870  0.34009  1.0000 -0.1753671166
C   C14       1.0  0.51930  0.56130  0.84009  1.0000 -0.1753671166
C   C15       1.0  0.01930  0.93870  0.84009  1.0000 -0.1753671166
C   C16       1.0  0.98070  0.06130  0.34009  1.0000 -0.1753671166
C   C17       1.0  0.47850  0.30330  0.33400  1.0000 0.0565501398
C   C18       1.0  0.52150  0.69670  0.83400  1.0000 0.0565501398
C   C19       1.0  0.02150  0.80330  0.83400  1.0000 0.0565501398
C   C20       1.0  0.97850  0.19670  0.33400  1.0000 0.0565501398
C   C21       1.0  0.39460  0.24090  0.26185  1.0000 0.2875465381
C   C22       1.0  0.60540  0.75910  0.76185  1.0000 0.2875465381
C   C23       1.0  0.10540  0.74090  0.76185  1.0000 0.2875465381
C   C24       1.0  0.89460  0.25910  0.26185  1.0000 0.2875465381
C   C25       1.0  0.26760  0.08700  0.18747  1.0000 0.027123146
C   C26       1.0  0.73240  0.91300  0.68747  1.0000 0.027123146
C   C27       1.0  0.23240  0.58700  0.68747  1.0000 0.027123146
C   C28       1.0  0.76760  0.41300  0.18747  1.0000 0.027123146
C   C29       1.0  0.23500  0.20880  0.15302  1.0000 -0.0163912314
C   C30       1.0  0.76500  0.79120  0.65302  1.0000 -0.0163912314
C   C31       1.0  0.26500  0.70880  0.65302  1.0000 -0.0163912314
C   C32       1.0  0.73500  0.29120  0.15302  1.0000 -0.0163912314
C   C33       1.0  0.21920  0.94980  0.16453  1.0000 0.5490028861
C   C34       1.0  0.78080  0.05020  0.66453  1.0000 0.5490028861
C   C35       1.0  0.28080  0.44980  0.66453  1.0000 0.5490028861
C   C36       1.0  0.71920  0.55020  0.16453  1.0000 0.5490028861
C   C37       1.0  0.13320  0.24890  0.07836  1.0000 0.5770909193
C   C38       1.0  0.86680  0.75110  0.57836  1.0000 0.5770909193
C   C39       1.0  0.36680  0.74890  0.57836  1.0000 0.5770909193
C   C40       1.0  0.63320  0.25110  0.07836  1.0000 0.5770909193
N   N1        1.0  0.60900  0.42820  0.47672  1.0000 -0.2415126447
N   N2        1.0  0.39100  0.57180  0.97672  1.0000 -0.2415126447
N   N3        1.0  0.89100  0.92820  0.97672  1.0000 -0.2415126447
N   N4        1.0  0.10900  0.07180  0.47672  1.0000 -0.2415126447
N   N5        1.0  0.37060  0.11032  0.25545  1.0000 -0.260095596
N   N6        1.0  0.62940  0.88968  0.75545  1.0000 -0.260095596
N   N7        1.0  0.12940  0.61032  0.75545  1.0000 -0.260095596
N   N8        1.0  0.87060  0.38968  0.25545  1.0000 -0.260095596
N   N9        1.0  0.31780  0.30396  0.19950  1.0000 -0.3849082884
N   N10       1.0  0.68220  0.69604  0.69950  1.0000 -0.3849082884
N   N11       1.0  0.18220  0.80396  0.69950  1.0000 -0.3849082884
N   N12       1.0  0.81780  0.19604  0.19950  1.0000 -0.3849082884
O   O1        1.0  0.33480  0.86668  0.17102  1.0000 -0.52267535
O   O2        1.0  0.66520  0.13332  0.67102  1.0000 -0.52267535
O   O3        1.0  0.16520  0.36668  0.67102  1.0000 -0.52267535
O   O4        1.0  0.83480  0.63332  0.17102  1.0000 -0.52267535
O   O5        1.0  0.06780  0.92543  0.14327  1.0000 -0.5330072788
O   O6        1.0  0.93220  0.07457  0.64327  1.0000 -0.5330072788
O   O7        1.0  0.43220  0.42543  0.64327  1.0000 -0.5330072788
O   O8        1.0  0.56780  0.57457  0.14327  1.0000 -0.5330072788
O   O9        1.0  0.02950  0.17129  0.04588  1.0000 -0.52267535
O   O10       1.0  0.97050  0.82871  0.54588  1.0000 -0.52267535
O   O11       1.0  0.47050  0.67129  0.54588  1.0000 -0.52267535
O   O12       1.0  0.52950  0.32871  0.04588  1.0000 -0.52267535
O   O13       1.0  0.15520  0.36482  0.05235  1.0000 -0.5134791431
O   O14       1.0  0.84480  0.63518  0.55235  1.0000 -0.5134791431
O   O15       1.0  0.34480  0.86482  0.55235  1.0000 -0.5134791431
O   O16       1.0  0.65520  0.13518  0.05235  1.0000 -0.5134791431
