# DDEC6 charges by PACMAN v1.1 (https://github.com/mtap-research/PACMAN-charge/)
data_2009[Cd][gpu]3[ASR]1
_chemical_formula_sum              "Cd10 H56 C96 N24 O32"
_cell_length_a       13.7995
_cell_length_b       13.7995
_cell_length_c       17.669
_cell_angle_alpha    81.8866
_cell_angle_beta     98.1134
_cell_angle_gamma    83.3405

_symmetry_space_group_name_H-M    "P 1"
_symmetry_Int_Tables_number       1

loop_
  _symmetry_equiv_pos_as_xyz
  'x, y, z'

loop_
  _atom_site_type_symbol
  _atom_site_label
  _atom_site_symmetry_multiplicity
  _atom_site_fract_x
  _atom_site_fract_y
  _atom_site_fract_z
  _atom_site_occupancy
  _atom_site_charge
Cd  Cd1       1.0  0.45711  0.45711  0.75000  1.0000 0.8154275656
Cd  Cd2       1.0  0.54289  0.54289  0.25000  1.0000 0.8154275656
Cd  Cd3       1.0  0.22496  0.59518  0.79913  1.0000 0.8558255673
Cd  Cd4       1.0  0.59518  0.22496  0.70087  1.0000 0.8558255673
Cd  Cd5       1.0  0.77504  0.40482  0.20087  1.0000 0.8558255673
Cd  Cd6       1.0  0.40482  0.77504  0.29913  1.0000 0.8558255673
Cd  Cd7       1.0  0.26592  0.77146  0.92750  1.0000 0.8807228893
Cd  Cd8       1.0  0.77146  0.26592  0.57250  1.0000 0.8807228893
Cd  Cd9       1.0  0.73408  0.22854  0.07250  1.0000 0.8807228893
Cd  Cd10      1.0  0.22854  0.73408  0.42750  1.0000 0.8807228893
H   H1        1.0  0.41270  0.08550  0.88710  1.0000 0.1292146841
H   H2        1.0  0.08550  0.41270  0.61290  1.0000 0.1292146841
H   H3        1.0  0.58730  0.91450  0.11290  1.0000 0.1292146841
H   H4        1.0  0.91450  0.58730  0.38710  1.0000 0.1292146841
H   H5        1.0  0.39990  0.25570  0.85920  1.0000 0.1131510284
H   H6        1.0  0.25570  0.39990  0.64080  1.0000 0.1131510284
H   H7        1.0  0.60010  0.74430  0.14080  1.0000 0.1131510284
H   H8        1.0  0.74430  0.60010  0.35920  1.0000 0.1131510284
H   H9        1.0  0.10530  0.27670  0.83400  1.0000 0.1292146841
H   H10       1.0  0.27670  0.10530  0.66600  1.0000 0.1292146841
H   H11       1.0  0.89470  0.72330  0.16600  1.0000 0.1292146841
H   H12       1.0  0.72330  0.89470  0.33400  1.0000 0.1292146841
H   H13       1.0  0.11890  0.10710  0.87310  1.0000 0.1292146841
H   H14       1.0  0.10710  0.11890  0.62690  1.0000 0.1292146841
H   H15       1.0  0.88110  0.89290  0.12690  1.0000 0.1292146841
H   H16       1.0  0.89290  0.88110  0.37310  1.0000 0.1292146841
H   H17       1.0  0.90230  0.77290  0.75880  1.0000 0.1219115335
H   H18       1.0  0.77290  0.90230  0.74120  1.0000 0.1219115335
H   H19       1.0  0.09770  0.22710  0.24120  1.0000 0.1219115335
H   H20       1.0  0.22710  0.09770  0.25880  1.0000 0.1219115335
H   H21       1.0  0.09540  0.96660  0.76420  1.0000 0.1292146841
H   H22       1.0  0.96660  0.09540  0.73580  1.0000 0.1292146841
H   H23       1.0  0.90460  0.03340  0.23580  1.0000 0.1292146841
H   H24       1.0  0.03340  0.90460  0.26420  1.0000 0.1292146841
H   H25       1.0  0.14480  0.44220  0.96110  1.0000 0.1292146841
H   H26       1.0  0.44220  0.14480  0.53890  1.0000 0.1292146841
H   H27       1.0  0.85520  0.55780  0.03890  1.0000 0.1292146841
H   H28       1.0  0.55780  0.85520  0.46110  1.0000 0.1292146841
H   H29       1.0  0.96240  0.66540  0.00500  1.0000 0.1292146841
H   H30       1.0  0.66540  0.96240  0.49500  1.0000 0.1292146841
H   H31       1.0  0.03760  0.33460  0.99500  1.0000 0.1292146841
H   H32       1.0  0.33460  0.03760  0.50500  1.0000 0.1292146841
H   H33       1.0  0.15280  0.70340  0.60540  1.0000 0.1406997458
H   H34       1.0  0.70340  0.15280  0.89460  1.0000 0.1406997458
H   H35       1.0  0.84720  0.29660  0.39460  1.0000 0.1406997458
H   H36       1.0  0.29660  0.84720  0.10540  1.0000 0.1406997458
H   H37       1.0  0.39410  0.57110  0.55930  1.0000 0.1292146841
H   H38       1.0  0.57110  0.39410  0.94070  1.0000 0.1292146841
H   H39       1.0  0.60590  0.42890  0.44070  1.0000 0.1292146841
H   H40       1.0  0.42890  0.60590  0.05930  1.0000 0.1292146841
H   H41       1.0  0.52920  0.79960  0.96650  1.0000 0.1406997458
H   H42       1.0  0.79960  0.52920  0.53350  1.0000 0.1406997458
H   H43       1.0  0.47080  0.20040  0.03350  1.0000 0.1406997458
H   H44       1.0  0.20040  0.47080  0.46650  1.0000 0.1406997458
H   H45       1.0  0.69650  0.77810  0.96440  1.0000 0.1219115335
H   H46       1.0  0.77810  0.69650  0.53560  1.0000 0.1219115335
H   H47       1.0  0.30350  0.22190  0.03560  1.0000 0.1219115335
H   H48       1.0  0.22190  0.30350  0.46440  1.0000 0.1219115335
H   H49       1.0  0.76700  0.66840  0.89580  1.0000 0.1219115335
H   H50       1.0  0.66840  0.76700  0.60420  1.0000 0.1219115335
H   H51       1.0  0.23300  0.33160  0.10420  1.0000 0.1219115335
H   H52       1.0  0.33160  0.23300  0.39580  1.0000 0.1219115335
H   H53       1.0  0.67520  0.56720  0.82820  1.0000 0.1292146841
H   H54       1.0  0.56720  0.67520  0.67180  1.0000 0.1292146841
H   H55       1.0  0.32480  0.43280  0.17180  1.0000 0.1292146841
H   H56       1.0  0.43280  0.32480  0.32820  1.0000 0.1292146841
C   C1        1.0  0.26780  0.08000  0.88380  1.0000 -0.0044561592
C   C2        1.0  0.08000  0.26780  0.61620  1.0000 -0.0044561592
C   C3        1.0  0.73220  0.92000  0.11620  1.0000 -0.0044561592
C   C4        1.0  0.92000  0.73220  0.38380  1.0000 -0.0044561592
C   C5        1.0  0.35110  0.12390  0.87850  1.0000 -0.0989284236
C   C6        1.0  0.12390  0.35110  0.62150  1.0000 -0.0989284236
C   C7        1.0  0.64890  0.87610  0.12150  1.0000 -0.0989284236
C   C8        1.0  0.87610  0.64890  0.37850  1.0000 -0.0989284236
C   C9        1.0  0.34310  0.22570  0.86030  1.0000 -0.0989284236
C   C10       1.0  0.22570  0.34310  0.63970  1.0000 -0.0989284236
C   C11       1.0  0.65690  0.77430  0.13970  1.0000 -0.0989284236
C   C12       1.0  0.77430  0.65690  0.36030  1.0000 -0.0989284236
C   C13       1.0  0.25090  0.28350  0.84370  1.0000 -0.0263442072
C   C14       1.0  0.28350  0.25090  0.65630  1.0000 -0.0263442072
C   C15       1.0  0.74910  0.71650  0.15630  1.0000 -0.0263442072
C   C16       1.0  0.71650  0.74910  0.34370  1.0000 -0.0263442072
C   C17       1.0  0.16730  0.23890  0.84670  1.0000 -0.0989284236
C   C18       1.0  0.23890  0.16730  0.65330  1.0000 -0.0989284236
C   C19       1.0  0.83270  0.76110  0.15330  1.0000 -0.0989284236
C   C20       1.0  0.76110  0.83270  0.34670  1.0000 -0.0989284236
C   C21       1.0  0.17530  0.13690  0.86860  1.0000 -0.0989284236
C   C22       1.0  0.13690  0.17530  0.63140  1.0000 -0.0989284236
C   C23       1.0  0.82470  0.86310  0.13140  1.0000 -0.0989284236
C   C24       1.0  0.86310  0.82470  0.36860  1.0000 -0.0989284236
C   C25       1.0  0.27380  0.96960  0.90270  1.0000 0.5493768991
C   C26       1.0  0.96960  0.27380  0.59730  1.0000 0.5493768991
C   C27       1.0  0.72620  0.03040  0.09730  1.0000 0.5493768991
C   C28       1.0  0.03040  0.72620  0.40270  1.0000 0.5493768991
C   C29       1.0  0.24420  0.39320  0.82080  1.0000 0.5729352475
C   C30       1.0  0.39320  0.24420  0.67920  1.0000 0.5729352475
C   C31       1.0  0.75580  0.60680  0.17920  1.0000 0.5729352475
C   C32       1.0  0.60680  0.75580  0.32080  1.0000 0.5729352475
C   C33       1.0  0.91570  0.83770  0.75600  1.0000 -0.0989284236
C   C34       1.0  0.83770  0.91570  0.74400  1.0000 -0.0989284236
C   C35       1.0  0.08430  0.16230  0.24400  1.0000 -0.0989284236
C   C36       1.0  0.16230  0.08430  0.25600  1.0000 -0.0989284236
C   C37       1.0  0.01230  0.85690  0.76380  1.0000 -0.0074963516
C   C38       1.0  0.85690  0.01230  0.73620  1.0000 -0.0074963516
C   C39       1.0  0.98770  0.14310  0.23620  1.0000 -0.0074963516
C   C40       1.0  0.14310  0.98770  0.26380  1.0000 -0.0074963516
C   C41       1.0  0.03050  0.95310  0.75780  1.0000 -0.0919560234
C   C42       1.0  0.95310  0.03050  0.74220  1.0000 -0.0919560234
C   C43       1.0  0.96950  0.04690  0.24220  1.0000 -0.0919560234
C   C44       1.0  0.04690  0.96950  0.25780  1.0000 -0.0919560234
C   C45       1.0  0.09490  0.77130  0.77800  1.0000 0.5803070903
C   C46       1.0  0.77130  0.09490  0.72200  1.0000 0.5803070903
C   C47       1.0  0.90510  0.22870  0.22200  1.0000 0.5803070903
C   C48       1.0  0.22870  0.90510  0.27800  1.0000 0.5803070903
C   C49       1.0  0.06440  0.56540  0.97810  1.0000 -0.0044561592
C   C50       1.0  0.56540  0.06440  0.52190  1.0000 -0.0044561592
C   C51       1.0  0.93560  0.43460  0.02190  1.0000 -0.0044561592
C   C52       1.0  0.43460  0.93560  0.47810  1.0000 -0.0044561592
C   C53       1.0  0.08610  0.46610  0.97650  1.0000 -0.0989284236
C   C54       1.0  0.46610  0.08610  0.52350  1.0000 -0.0989284236
C   C55       1.0  0.91390  0.53390  0.02350  1.0000 -0.0989284236
C   C56       1.0  0.53390  0.91390  0.47650  1.0000 -0.0989284236
C   C57       1.0  0.97780  0.59860  0.00260  1.0000 -0.0989284236
C   C58       1.0  0.59860  0.97780  0.49740  1.0000 -0.0989284236
C   C59       1.0  0.02220  0.40140  0.99740  1.0000 -0.0989284236
C   C60       1.0  0.40140  0.02220  0.50260  1.0000 -0.0989284236
C   C61       1.0  0.13570  0.63530  0.95600  1.0000 0.5803070903
C   C62       1.0  0.63530  0.13570  0.54400  1.0000 0.5803070903
C   C63       1.0  0.86430  0.36470  0.04400  1.0000 0.5803070903
C   C64       1.0  0.36470  0.86430  0.45600  1.0000 0.5803070903
C   C65       1.0  0.21310  0.66350  0.61040  1.0000 0.1611616404
C   C66       1.0  0.66350  0.21310  0.88960  1.0000 0.1611616404
C   C67       1.0  0.78690  0.33650  0.38960  1.0000 0.1611616404
C   C68       1.0  0.33650  0.78690  0.11040  1.0000 0.1611616404
C   C69       1.0  0.34340  0.59180  0.58540  1.0000 0.1524815761
C   C70       1.0  0.59180  0.34340  0.91460  1.0000 0.1524815761
C   C71       1.0  0.65660  0.40820  0.41460  1.0000 0.1524815761
C   C72       1.0  0.40820  0.65660  0.08540  1.0000 0.1524815761
C   C73       1.0  0.54270  0.62730  0.85690  1.0000 0.1292146841
C   C74       1.0  0.62730  0.54270  0.64310  1.0000 0.1292146841
C   C75       1.0  0.45730  0.37270  0.14310  1.0000 0.1292146841
C   C76       1.0  0.37270  0.45730  0.35690  1.0000 0.1292146841
C   C77       1.0  0.50000  0.69740  0.89700  1.0000 0.1131510284
C   C78       1.0  0.69740  0.50000  0.60300  1.0000 0.1131510284
C   C79       1.0  0.50000  0.30260  0.10300  1.0000 0.1131510284
C   C80       1.0  0.30260  0.50000  0.39700  1.0000 0.1131510284
C   C81       1.0  0.55710  0.75430  0.93870  1.0000 -0.140537551
C   C82       1.0  0.75430  0.55710  0.56130  1.0000 -0.140537551
C   C83       1.0  0.44290  0.24570  0.06130  1.0000 -0.140537551
C   C84       1.0  0.24570  0.44290  0.43870  1.0000 -0.140537551
C   C85       1.0  0.65630  0.74090  0.93700  1.0000 -0.0919560234
C   C86       1.0  0.74090  0.65630  0.56300  1.0000 -0.0919560234
C   C87       1.0  0.34370  0.25910  0.06300  1.0000 -0.0919560234
C   C88       1.0  0.25910  0.34370  0.43700  1.0000 -0.0919560234
C   C89       1.0  0.69930  0.67330  0.89580  1.0000 -0.0821781813
C   C90       1.0  0.67330  0.69930  0.60420  1.0000 -0.0821781813
C   C91       1.0  0.30070  0.32670  0.10420  1.0000 -0.0821781813
C   C92       1.0  0.32670  0.30070  0.39580  1.0000 -0.0821781813
C   C93       1.0  0.64600  0.61320  0.85490  1.0000 -0.1784960985
C   C94       1.0  0.61320  0.64600  0.64510  1.0000 -0.1784960985
C   C95       1.0  0.35400  0.38680  0.14510  1.0000 -0.1784960985
C   C96       1.0  0.38680  0.35400  0.35490  1.0000 -0.1784960985
N   N1        1.0  0.34360  0.56120  0.65900  1.0000 -0.1979114025
N   N2        1.0  0.56120  0.34360  0.84100  1.0000 -0.1979114025
N   N3        1.0  0.65640  0.43880  0.34100  1.0000 -0.1979114025
N   N4        1.0  0.43880  0.65640  0.15900  1.0000 -0.1979114025
N   N5        1.0  0.25780  0.60900  0.67600  1.0000 -0.1979114025
N   N6        1.0  0.60900  0.25780  0.82400  1.0000 -0.1979114025
N   N7        1.0  0.74220  0.39100  0.32400  1.0000 -0.1979114025
N   N8        1.0  0.39100  0.74220  0.17600  1.0000 -0.1979114025
N   N9        1.0  0.26370  0.65570  0.55110  1.0000 -0.3316893935
N   N10       1.0  0.65570  0.26370  0.94890  1.0000 -0.3316893935
N   N11       1.0  0.73630  0.34430  0.44890  1.0000 -0.3316893935
N   N12       1.0  0.34430  0.73630  0.05110  1.0000 -0.3316893935
N   N13       1.0  0.47010  0.58410  0.82280  1.0000 -0.2603416055
N   N14       1.0  0.58410  0.47010  0.67720  1.0000 -0.2603416055
N   N15       1.0  0.52990  0.41590  0.17720  1.0000 -0.2603416055
N   N16       1.0  0.41590  0.52990  0.32280  1.0000 -0.2603416055
N   N17       1.0  0.38480  0.62720  0.84140  1.0000 -0.0263442072
N   N18       1.0  0.62720  0.38480  0.65860  1.0000 -0.0263442072
N   N19       1.0  0.61520  0.37280  0.15860  1.0000 -0.0263442072
N   N20       1.0  0.37280  0.61520  0.34140  1.0000 -0.0263442072
N   N21       1.0  0.40090  0.69390  0.88580  1.0000 -0.1892823338
N   N22       1.0  0.69390  0.40090  0.61420  1.0000 -0.1892823338
N   N23       1.0  0.59910  0.30610  0.11420  1.0000 -0.1892823338
N   N24       1.0  0.30610  0.59910  0.38580  1.0000 -0.1892823338
O   O1        1.0  0.93360  0.20520  0.57080  1.0000 -0.5072462916
O   O2        1.0  0.20520  0.93360  0.92920  1.0000 -0.5072462916
O   O3        1.0  0.06640  0.79480  0.42920  1.0000 -0.5072462916
O   O4        1.0  0.79480  0.06640  0.07080  1.0000 -0.5072462916
O   O5        1.0  0.91820  0.34700  0.61140  1.0000 -0.5276741668
O   O6        1.0  0.34700  0.91820  0.88860  1.0000 -0.5276741668
O   O7        1.0  0.08180  0.65300  0.38860  1.0000 -0.5276741668
O   O8        1.0  0.65300  0.08180  0.11140  1.0000 -0.5276741668
O   O9        1.0  0.15960  0.44380  0.80800  1.0000 -0.4993206843
O   O10       1.0  0.44380  0.15960  0.69200  1.0000 -0.4993206843
O   O11       1.0  0.84040  0.55620  0.19200  1.0000 -0.4993206843
O   O12       1.0  0.55620  0.84040  0.30800  1.0000 -0.4993206843
O   O13       1.0  0.32220  0.43060  0.81700  1.0000 -0.5488657563
O   O14       1.0  0.43060  0.32220  0.68300  1.0000 -0.5488657563
O   O15       1.0  0.67780  0.56940  0.18300  1.0000 -0.5488657563
O   O16       1.0  0.56940  0.67780  0.31700  1.0000 -0.5488657563
O   O17       1.0  0.18300  0.78660  0.79680  1.0000 -0.5676583334
O   O18       1.0  0.78660  0.18300  0.70320  1.0000 -0.5676583334
O   O19       1.0  0.81700  0.21340  0.20320  1.0000 -0.5676583334
O   O20       1.0  0.21340  0.81700  0.29680  1.0000 -0.5676583334
O   O21       1.0  0.07270  0.68690  0.76730  1.0000 -0.5276741668
O   O22       1.0  0.68690  0.07270  0.73270  1.0000 -0.5276741668
O   O23       1.0  0.92730  0.31310  0.23270  1.0000 -0.5276741668
O   O24       1.0  0.31310  0.92730  0.26730  1.0000 -0.5276741668
O   O25       1.0  0.11870  0.72350  0.96560  1.0000 -0.5072462916
O   O26       1.0  0.72350  0.11870  0.53440  1.0000 -0.5072462916
O   O27       1.0  0.88130  0.27650  0.03440  1.0000 -0.5072462916
O   O28       1.0  0.27650  0.88130  0.46560  1.0000 -0.5072462916
O   O29       1.0  0.21077  0.60297  0.92880  1.0000 -0.5676583334
O   O30       1.0  0.60297  0.21077  0.57120  1.0000 -0.5676583334
O   O31       1.0  0.78923  0.39703  0.07120  1.0000 -0.5676583334
O   O32       1.0  0.39703  0.78923  0.42880  1.0000 -0.5676583334
