# DDEC6 charges by PACMAN v1.1 (https://github.com/mtap-research/PACMAN-charge/)
data_2009[Fe][cds]3[ASR]1
_chemical_formula_sum              "Fe2 H18 C22 N4 O4"
_cell_length_a       11.3817
_cell_length_b       11.3817
_cell_length_c       8.1256
_cell_angle_alpha    84.3293
_cell_angle_beta     95.6707
_cell_angle_gamma    54.9499

_symmetry_space_group_name_H-M    "P 1"
_symmetry_Int_Tables_number       1

loop_
  _symmetry_equiv_pos_as_xyz
  'x, y, z'

loop_
  _atom_site_type_symbol
  _atom_site_label
  _atom_site_symmetry_multiplicity
  _atom_site_fract_x
  _atom_site_fract_y
  _atom_site_fract_z
  _atom_site_occupancy
  _atom_site_charge
Fe  Fe1       1.0  0.24779  0.24441  0.35798  1.0000 0.5216295225
Fe  Fe2       1.0  0.75559  0.75221  0.85798  1.0000 0.5254845721
H   H1        1.0  0.50750  0.94990  0.57270  1.0000 0.0890019653
H   H2        1.0  0.05010  0.49250  0.07270  1.0000 0.0890019653
H   H3        1.0  0.43150  0.93690  0.27550  1.0000 0.0890019653
H   H4        1.0  0.06310  0.56850  0.77550  1.0000 0.0890019653
H   H5        1.0  0.43640  0.73380  0.26940  1.0000 0.1228467253
H   H6        1.0  0.26620  0.56360  0.76940  1.0000 0.1228467253
H   H7        1.0  0.06720  0.93140  0.45250  1.0000 0.1228467253
H   H8        1.0  0.06860  0.93280  0.95250  1.0000 0.1228467253
H   H9        1.0  0.07420  0.12800  0.45550  1.0000 0.104033391
H   H10       1.0  0.87200  0.92580  0.95550  1.0000 0.104033391
H   H11       1.0  0.44520  0.54380  0.29100  1.0000 0.1228467253
H   H12       1.0  0.45620  0.55480  0.79100  1.0000 0.1228467253
H   H13       1.0  0.43690  0.34790  0.29040  1.0000 0.104033391
H   H14       1.0  0.65210  0.56310  0.79040  1.0000 0.104033391
H   H15       1.0  0.04590  0.76770  0.40680  1.0000 0.1228467253
H   H16       1.0  0.23230  0.95410  0.90680  1.0000 0.1228467253
H   H17       1.0  0.05180  0.56360  0.40620  1.0000 0.0890019653
H   H18       1.0  0.43640  0.94820  0.90620  1.0000 0.0890019653
C   C1        1.0  0.53256  0.01216  0.59510  1.0000 0.4086295468
C   C2        1.0  0.98784  0.46744  0.09510  1.0000 0.4086295468
C   C3        1.0  0.35687  0.93607  0.31130  1.0000 0.0344689181
C   C4        1.0  0.06393  0.64313  0.81130  1.0000 0.0344689181
C   C5        1.0  0.36035  0.81315  0.30670  1.0000 -0.2136742445
C   C6        1.0  0.18685  0.63965  0.80670  1.0000 -0.2136742445
C   C7        1.0  0.25046  0.80826  0.35760  1.0000 0.0890019653
C   C8        1.0  0.19174  0.74954  0.85760  1.0000 0.0890019653
C   C9        1.0  0.14267  0.92967  0.41500  1.0000 -0.2136742445
C   C10       1.0  0.07033  0.85733  0.91500  1.0000 -0.2136742445
C   C11       1.0  0.14756  0.04796  0.41630  1.0000 0.0689586056
C   C12       1.0  0.95204  0.85244  0.91630  1.0000 0.0689586056
C   C13       1.0  0.24711  0.68011  0.35210  1.0000 0.0890019653
C   C14       1.0  0.31989  0.75289  0.85210  1.0000 0.0890019653
C   C15       1.0  0.36343  0.55083  0.31540  1.0000 -0.2136742445
C   C16       1.0  0.44917  0.63657  0.81540  1.0000 -0.2136742445
C   C17       1.0  0.35773  0.43313  0.31530  1.0000 0.0689586056
C   C18       1.0  0.56687  0.64227  0.81530  1.0000 0.0689586056
C   C19       1.0  0.12780  0.68320  0.38430  1.0000 -0.2136742445
C   C20       1.0  0.31680  0.87220  0.88430  1.0000 -0.2136742445
C   C21       1.0  0.13218  0.55978  0.38260  1.0000 0.0436931149
C   C22       1.0  0.44022  0.86782  0.88260  1.0000 0.0436931149
N   N1        1.0  0.24416  0.43536  0.34910  1.0000 -0.2585487226
N   N2        1.0  0.56464  0.75584  0.84910  1.0000 -0.2585487226
N   N3        1.0  0.25247  0.05347  0.36400  1.0000 -0.2585487226
N   N4        1.0  0.94653  0.74753  0.86400  1.0000 -0.2585487226
O   O1        1.0  0.45679  0.13779  0.50770  1.0000 -0.4604674625
O   O2        1.0  0.86221  0.54321  0.00770  1.0000 -0.4604674625
O   O3        1.0  0.63902  0.96322  0.70980  1.0000 -0.4604674625
O   O4        1.0  0.03678  0.36098  0.20980  1.0000 -0.4604674625
