# DDEC6 charges by PACMAN v1.1 (https://github.com/mtap-research/PACMAN-charge/)
data_2009[Eu][sxb]3[ASR]1
_chemical_formula_sum              "Eu8 H72 C168 S12 O72"
_cell_length_a       18.9219
_cell_length_b       18.9219
_cell_length_c       29.774
_cell_angle_alpha    81.9109
_cell_angle_beta     98.0891
_cell_angle_gamma    133.758

_symmetry_space_group_name_H-M    "P 1"
_symmetry_Int_Tables_number       1

loop_
  _symmetry_equiv_pos_as_xyz
  'x, y, z'

loop_
  _atom_site_type_symbol
  _atom_site_label
  _atom_site_symmetry_multiplicity
  _atom_site_fract_x
  _atom_site_fract_y
  _atom_site_fract_z
  _atom_site_occupancy
  _atom_site_charge
Eu  Eu1       1.0  0.61275  0.19345  0.85895  1.0000 2.0970008044
Eu  Eu2       1.0  0.80655  0.38725  0.35895  1.0000 2.0935561328
Eu  Eu3       1.0  0.53363  0.35953  0.84379  1.0000 2.0705785422
Eu  Eu4       1.0  0.64047  0.46637  0.34379  1.0000 2.0705785422
Eu  Eu5       1.0  0.19345  0.61275  0.64105  1.0000 2.0970008044
Eu  Eu6       1.0  0.38725  0.80655  0.14105  1.0000 2.0970008044
Eu  Eu7       1.0  0.35953  0.53363  0.65621  1.0000 2.0705785422
Eu  Eu8       1.0  0.46637  0.64047  0.15621  1.0000 2.0705785422
H   H1        1.0  0.57680  0.38680  0.69030  1.0000 0.1393301545
H   H2        1.0  0.61320  0.42320  0.19030  1.0000 0.1393301545
H   H3        1.0  0.53120  0.14180  0.71530  1.0000 0.1290342516
H   H4        1.0  0.85820  0.46880  0.21530  1.0000 0.1290342516
H   H5        1.0  0.53710  0.13670  0.63920  1.0000 0.119820481
H   H6        1.0  0.86330  0.46290  0.13920  1.0000 0.119820481
H   H7        1.0  0.57380  0.16760  0.55730  1.0000 0.119820481
H   H8        1.0  0.83240  0.42620  0.05730  1.0000 0.119820481
H   H9        1.0  0.66060  0.46020  0.49520  1.0000 0.1461719169
H   H10       1.0  0.53980  0.33940  0.99520  1.0000 0.1461719169
H   H11       1.0  0.62830  0.22810  0.48430  1.0000 0.119820481
H   H12       1.0  0.77190  0.37170  0.98430  1.0000 0.119820481
H   H13       1.0  0.21290  0.06470  0.84460  1.0000 0.1393301545
H   H14       1.0  0.93530  0.78710  0.34460  1.0000 0.1393301545
H   H15       1.0  0.32950  0.94710  0.85520  1.0000 0.1290342516
H   H16       1.0  0.05290  0.67050  0.35520  1.0000 0.1290342516
H   H17       1.0  0.05370  0.90810  0.84830  1.0000 0.119820481
H   H18       1.0  0.09190  0.94630  0.34830  1.0000 0.119820481
H   H19       1.0  0.89850  0.73370  0.85050  1.0000 0.119820481
H   H20       1.0  0.26630  0.10150  0.35050  1.0000 0.119820481
H   H21       1.0  0.76830  0.56570  0.84930  1.0000 0.119820481
H   H22       1.0  0.43430  0.23170  0.34930  1.0000 0.119820481
H   H23       1.0  0.95400  0.52420  0.85870  1.0000 0.1393301545
H   H24       1.0  0.47580  0.04600  0.35870  1.0000 0.1393301545
H   H25       1.0  0.89340  0.22400  0.90160  1.0000 0.1393301545
H   H26       1.0  0.77600  0.10660  0.40160  1.0000 0.1393301545
H   H27       1.0  0.84650  0.24830  0.76550  1.0000 0.1290342516
H   H28       1.0  0.75170  0.15350  0.26550  1.0000 0.1290342516
H   H29       1.0  0.98870  0.28670  0.75240  1.0000 0.1134681223
H   H30       1.0  0.71330  0.01130  0.25240  1.0000 0.1134681223
H   H31       1.0  0.14540  0.32600  0.75220  1.0000 0.119820481
H   H32       1.0  0.67400  0.85460  0.25220  1.0000 0.119820481
H   H33       1.0  0.26180  0.31060  0.90040  1.0000 0.1393301545
H   H34       1.0  0.68940  0.73820  0.40040  1.0000 0.1393301545
H   H35       1.0  0.28650  0.35290  0.76370  1.0000 0.1290342516
H   H36       1.0  0.64710  0.71350  0.26370  1.0000 0.1290342516
H   H37       1.0  0.38680  0.57680  0.80970  1.0000 0.1393301545
H   H38       1.0  0.42320  0.61320  0.30970  1.0000 0.1393301545
H   H39       1.0  0.14180  0.53120  0.78470  1.0000 0.1290342516
H   H40       1.0  0.46880  0.85820  0.28470  1.0000 0.1290342516
H   H41       1.0  0.13670  0.53710  0.86080  1.0000 0.119820481
H   H42       1.0  0.46290  0.86330  0.36080  1.0000 0.119820481
H   H43       1.0  0.16760  0.57380  0.94270  1.0000 0.119820481
H   H44       1.0  0.42620  0.83240  0.44270  1.0000 0.119820481
H   H45       1.0  0.46020  0.66060  0.00480  1.0000 0.1461719169
H   H46       1.0  0.33940  0.53980  0.50480  1.0000 0.1461719169
H   H47       1.0  0.22810  0.62830  0.01570  1.0000 0.119820481
H   H48       1.0  0.37170  0.77190  0.51570  1.0000 0.119820481
H   H49       1.0  0.06470  0.21290  0.65540  1.0000 0.1393301545
H   H50       1.0  0.78710  0.93530  0.15540  1.0000 0.1393301545
H   H51       1.0  0.94710  0.32950  0.64480  1.0000 0.1290342516
H   H52       1.0  0.67050  0.05290  0.14480  1.0000 0.1290342516
H   H53       1.0  0.90810  0.05370  0.65170  1.0000 0.119820481
H   H54       1.0  0.94630  0.09190  0.15170  1.0000 0.119820481
H   H55       1.0  0.73370  0.89850  0.64950  1.0000 0.119820481
H   H56       1.0  0.10150  0.26630  0.14950  1.0000 0.119820481
H   H57       1.0  0.56570  0.76830  0.65070  1.0000 0.119820481
H   H58       1.0  0.23170  0.43430  0.15070  1.0000 0.119820481
H   H59       1.0  0.52420  0.95400  0.64130  1.0000 0.1393301545
H   H60       1.0  0.04600  0.47580  0.14130  1.0000 0.1393301545
H   H61       1.0  0.22400  0.89340  0.59840  1.0000 0.1393301545
H   H62       1.0  0.10660  0.77600  0.09840  1.0000 0.1393301545
H   H63       1.0  0.24830  0.84650  0.73450  1.0000 0.1290342516
H   H64       1.0  0.15350  0.75170  0.23450  1.0000 0.1290342516
H   H65       1.0  0.28670  0.98870  0.74760  1.0000 0.1134681223
H   H66       1.0  0.01130  0.71330  0.24760  1.0000 0.1134681223
H   H67       1.0  0.32600  0.14540  0.74780  1.0000 0.119820481
H   H68       1.0  0.85460  0.67400  0.24780  1.0000 0.119820481
H   H69       1.0  0.31060  0.26180  0.59960  1.0000 0.1393301545
H   H70       1.0  0.73820  0.68940  0.09960  1.0000 0.1393301545
H   H71       1.0  0.35290  0.28650  0.73630  1.0000 0.1290342516
H   H72       1.0  0.71350  0.64710  0.23630  1.0000 0.1290342516
C   C1        1.0  0.55145  0.26755  0.76090  1.0000 0.6442210941
C   C2        1.0  0.73245  0.44855  0.26090  1.0000 0.6442210941
C   C3        1.0  0.55427  0.26533  0.71100  1.0000 -0.0203928469
C   C4        1.0  0.73467  0.44573  0.21100  1.0000 -0.0203928469
C   C5        1.0  0.57104  0.33716  0.68050  1.0000 -0.1005260723
C   C6        1.0  0.66284  0.42896  0.18050  1.0000 -0.1005260723
C   C7        1.0  0.54292  0.19148  0.69450  1.0000 -0.0822494718
C   C8        1.0  0.80852  0.45708  0.19450  1.0000 -0.0822494718
C   C9        1.0  0.57922  0.33498  0.63530  1.0000 -0.0927385607
C   C10       1.0  0.66502  0.42078  0.13530  1.0000 -0.0927385607
C   C11       1.0  0.54814  0.18906  0.64970  1.0000 -0.1116177629
C   C12       1.0  0.81094  0.45186  0.14970  1.0000 -0.1116177629
C   C13       1.0  0.56988  0.26432  0.61940  1.0000 0.0596445023
C   C14       1.0  0.73568  0.43012  0.11940  1.0000 0.0596445023
C   C15       1.0  0.59045  0.28195  0.57100  1.0000 0.0596445023
C   C16       1.0  0.71805  0.40955  0.07100  1.0000 0.0596445023
C   C17       1.0  0.61659  0.36841  0.55180  1.0000 -0.0822494718
C   C18       1.0  0.63159  0.38341  0.05180  1.0000 -0.0822494718
C   C19       1.0  0.59338  0.22782  0.54520  1.0000 -0.1116177629
C   C20       1.0  0.77218  0.40662  0.04520  1.0000 -0.1116177629
C   C21       1.0  0.64601  0.40279  0.50820  1.0000 -0.1005260723
C   C22       1.0  0.59721  0.35399  0.00820  1.0000 -0.1005260723
C   C23       1.0  0.62540  0.26400  0.50210  1.0000 -0.0822494718
C   C24       1.0  0.73600  0.37460  0.00210  1.0000 -0.0822494718
C   C25       1.0  0.65384  0.35196  0.48348  1.0000 -0.0203928469
C   C26       1.0  0.64804  0.34616  0.98348  1.0000 -0.0203928469
C   C27       1.0  0.69844  0.39336  0.43832  1.0000 0.6497793912
C   C28       1.0  0.60664  0.30156  0.93832  1.0000 0.6497793912
C   C29       1.0  0.38439  0.12241  0.85215  1.0000 0.6497793912
C   C30       1.0  0.87759  0.61561  0.35215  1.0000 0.6497793912
C   C31       1.0  0.28486  0.01974  0.85110  1.0000 -0.030812695
C   C32       1.0  0.98026  0.71514  0.35110  1.0000 -0.030812695
C   C33       1.0  0.20380  0.00820  0.84770  1.0000 -0.0822494718
C   C34       1.0  0.99180  0.79620  0.34770  1.0000 -0.0822494718
C   C35       1.0  0.27447  0.94033  0.85330  1.0000 -0.1116177629
C   C36       1.0  0.05967  0.72553  0.35330  1.0000 -0.1116177629
C   C37       1.0  0.10880  0.91540  0.84870  1.0000 -0.1426559531
C   C38       1.0  0.08460  0.89120  0.34870  1.0000 -0.1426559531
C   C39       1.0  0.17692  0.84708  0.85260  1.0000 -0.1005260723
C   C40       1.0  0.15292  0.82308  0.35260  1.0000 -0.1005260723
C   C41       1.0  0.09720  0.83540  0.85040  1.0000 0.0303093159
C   C42       1.0  0.16460  0.90280  0.35040  1.0000 0.0303093159
C   C43       1.0  0.00165  0.72915  0.85120  1.0000 0.0303093159
C   C44       1.0  0.27085  0.99835  0.35120  1.0000 0.0303093159
C   C45       1.0  0.90970  0.69190  0.85080  1.0000 -0.127065684
C   C46       1.0  0.30810  0.09030  0.35080  1.0000 -0.127065684
C   C47       1.0  0.01878  0.66862  0.85400  1.0000 -0.1005260723
C   C48       1.0  0.33138  0.98122  0.35400  1.0000 -0.1005260723
C   C49       1.0  0.83350  0.59270  0.85080  1.0000 -0.1116177629
C   C50       1.0  0.40730  0.16650  0.35080  1.0000 -0.1116177629
C   C51       1.0  0.94210  0.56590  0.85570  1.0000 -0.1005260723
C   C52       1.0  0.43410  0.05790  0.35570  1.0000 -0.1005260723
C   C53       1.0  0.84846  0.52954  0.85290  1.0000 0.002855885
C   C54       1.0  0.47046  0.15154  0.35290  1.0000 0.002855885
C   C55       1.0  0.76010  0.42030  0.85179  1.0000 0.6323484449
C   C56       1.0  0.57970  0.23990  0.35179  1.0000 0.6323484449
C   C57       1.0  0.76457  0.20823  0.84170  1.0000 0.5697119949
C   C58       1.0  0.79177  0.23543  0.34170  1.0000 0.5697119949
C   C59       1.0  0.85693  0.23207  0.83430  1.0000 0.0171444068
C   C60       1.0  0.76793  0.14307  0.33430  1.0000 0.0171444068
C   C61       1.0  0.91262  0.23658  0.87160  1.0000 -0.1005260723
C   C62       1.0  0.76342  0.08738  0.37160  1.0000 -0.1005260723
C   C63       1.0  0.88544  0.25096  0.79050  1.0000 -0.0822494718
C   C64       1.0  0.74904  0.11456  0.29050  1.0000 -0.0822494718
C   C65       1.0  0.99770  0.26030  0.86320  1.0000 -0.1005260723
C   C66       1.0  0.73970  0.00230  0.36320  1.0000 -0.1005260723
C   C67       1.0  0.96983  0.27377  0.78260  1.0000 -0.1426559531
C   C68       1.0  0.72623  0.03017  0.28260  1.0000 -0.1426559531
C   C69       1.0  0.02653  0.27747  0.81920  1.0000 0.048108895
C   C70       1.0  0.72253  0.97347  0.31920  1.0000 0.048108895
C   C71       1.0  0.11811  0.29869  0.81950  1.0000 0.0425956441
C   C72       1.0  0.70131  0.88189  0.31950  1.0000 0.0425956441
C   C73       1.0  0.15328  0.29572  0.86234  1.0000 -0.1005260723
C   C74       1.0  0.70428  0.84672  0.36234  1.0000 -0.1005260723
C   C75       1.0  0.16828  0.32172  0.78206  1.0000 -0.1228836433
C   C76       1.0  0.67828  0.83172  0.28206  1.0000 -0.1228836433
C   C77       1.0  0.23846  0.31314  0.87040  1.0000 -0.0822494718
C   C78       1.0  0.68686  0.76154  0.37040  1.0000 -0.0822494718
C   C79       1.0  0.25223  0.33837  0.78910  1.0000 -0.0822494718
C   C80       1.0  0.66163  0.74777  0.28910  1.0000 -0.0822494718
C   C81       1.0  0.28781  0.33419  0.83290  1.0000 0.002855885
C   C82       1.0  0.66581  0.71219  0.33290  1.0000 0.002855885
C   C83       1.0  0.37695  0.34945  0.83924  1.0000 0.5697119949
C   C84       1.0  0.65055  0.62305  0.33924  1.0000 0.5697119949
C   C85       1.0  0.26755  0.55145  0.73910  1.0000 0.6442210941
C   C86       1.0  0.44855  0.73245  0.23910  1.0000 0.6442210941
C   C87       1.0  0.26533  0.55427  0.78900  1.0000 -0.0203928469
C   C88       1.0  0.44573  0.73467  0.28900  1.0000 -0.0203928469
C   C89       1.0  0.33716  0.57104  0.81950  1.0000 -0.1005260723
C   C90       1.0  0.42896  0.66284  0.31950  1.0000 -0.1005260723
C   C91       1.0  0.19148  0.54292  0.80550  1.0000 -0.0822494718
C   C92       1.0  0.45708  0.80852  0.30550  1.0000 -0.0822494718
C   C93       1.0  0.33498  0.57922  0.86470  1.0000 -0.0927385607
C   C94       1.0  0.42078  0.66502  0.36470  1.0000 -0.0927385607
C   C95       1.0  0.18906  0.54814  0.85030  1.0000 -0.1116177629
C   C96       1.0  0.45186  0.81094  0.35030  1.0000 -0.1116177629
C   C97       1.0  0.26432  0.56988  0.88060  1.0000 0.0596445023
C   C98       1.0  0.43012  0.73568  0.38060  1.0000 0.0596445023
C   C99       1.0  0.28195  0.59045  0.92900  1.0000 0.0596445023
C   C100      1.0  0.40955  0.71805  0.42900  1.0000 0.0596445023
C   C101      1.0  0.36841  0.61659  0.94820  1.0000 -0.0822494718
C   C102      1.0  0.38341  0.63159  0.44820  1.0000 -0.0822494718
C   C103      1.0  0.22782  0.59338  0.95480  1.0000 -0.1116177629
C   C104      1.0  0.40662  0.77218  0.45480  1.0000 -0.1116177629
C   C105      1.0  0.40279  0.64601  0.99180  1.0000 -0.1005260723
C   C106      1.0  0.35399  0.59721  0.49180  1.0000 -0.1005260723
C   C107      1.0  0.26400  0.62540  0.99790  1.0000 -0.0822494718
C   C108      1.0  0.37460  0.73600  0.49790  1.0000 -0.0822494718
C   C109      1.0  0.35196  0.65384  0.01652  1.0000 -0.0203928469
C   C110      1.0  0.34616  0.64804  0.51652  1.0000 -0.0203928469
C   C111      1.0  0.39336  0.69844  0.06168  1.0000 0.6497793912
C   C112      1.0  0.30156  0.60664  0.56168  1.0000 0.6497793912
C   C113      1.0  0.12241  0.38439  0.64785  1.0000 0.6497793912
C   C114      1.0  0.61561  0.87759  0.14785  1.0000 0.6497793912
C   C115      1.0  0.01974  0.28486  0.64890  1.0000 -0.030812695
C   C116      1.0  0.71514  0.98026  0.14890  1.0000 -0.030812695
C   C117      1.0  0.00820  0.20380  0.65230  1.0000 -0.0822494718
C   C118      1.0  0.79620  0.99180  0.15230  1.0000 -0.0927385607
C   C119      1.0  0.94033  0.27447  0.64670  1.0000 -0.1116177629
C   C120      1.0  0.72553  0.05967  0.14670  1.0000 -0.1116177629
C   C121      1.0  0.91540  0.10880  0.65130  1.0000 -0.1426559531
C   C122      1.0  0.89120  0.08460  0.15130  1.0000 -0.1426559531
C   C123      1.0  0.84708  0.17692  0.64740  1.0000 -0.1005260723
C   C124      1.0  0.82308  0.15292  0.14740  1.0000 -0.1005260723
C   C125      1.0  0.83540  0.09720  0.64960  1.0000 0.0303093159
C   C126      1.0  0.90280  0.16460  0.14960  1.0000 0.0303093159
C   C127      1.0  0.72915  0.00165  0.64880  1.0000 0.0303093159
C   C128      1.0  0.99835  0.27085  0.14880  1.0000 0.0303093159
C   C129      1.0  0.69190  0.90970  0.64920  1.0000 -0.127065684
C   C130      1.0  0.09030  0.30810  0.14920  1.0000 -0.127065684
C   C131      1.0  0.66862  0.01878  0.64600  1.0000 -0.0927385607
C   C132      1.0  0.98122  0.33138  0.14600  1.0000 -0.1005260723
C   C133      1.0  0.59270  0.83350  0.64920  1.0000 -0.1116177629
C   C134      1.0  0.16650  0.40730  0.14920  1.0000 -0.1116177629
C   C135      1.0  0.56590  0.94210  0.64430  1.0000 -0.1005260723
C   C136      1.0  0.05790  0.43410  0.14430  1.0000 -0.1005260723
C   C137      1.0  0.52954  0.84846  0.64710  1.0000 -0.000211134
C   C138      1.0  0.15154  0.47046  0.14710  1.0000 -0.000211134
C   C139      1.0  0.42030  0.76010  0.64821  1.0000 0.6323484449
C   C140      1.0  0.23990  0.57970  0.14821  1.0000 0.6323484449
C   C141      1.0  0.20823  0.76457  0.65830  1.0000 0.5697119949
C   C142      1.0  0.23543  0.79177  0.15830  1.0000 0.5697119949
C   C143      1.0  0.23207  0.85693  0.66570  1.0000 0.0171444068
C   C144      1.0  0.14307  0.76793  0.16570  1.0000 0.0171444068
C   C145      1.0  0.23658  0.91262  0.62840  1.0000 -0.1005260723
C   C146      1.0  0.08738  0.76342  0.12840  1.0000 -0.1005260723
C   C147      1.0  0.25096  0.88544  0.70950  1.0000 -0.0822494718
C   C148      1.0  0.11456  0.74904  0.20950  1.0000 -0.0822494718
C   C149      1.0  0.26030  0.99770  0.63680  1.0000 -0.1005260723
C   C150      1.0  0.00230  0.73970  0.13680  1.0000 -0.1005260723
C   C151      1.0  0.27377  0.96983  0.71740  1.0000 -0.1426559531
C   C152      1.0  0.03017  0.72623  0.21740  1.0000 -0.1426559531
C   C153      1.0  0.27747  0.02653  0.68080  1.0000 0.048108895
C   C154      1.0  0.97347  0.72253  0.18080  1.0000 0.048108895
C   C155      1.0  0.29869  0.11811  0.68050  1.0000 0.0425956441
C   C156      1.0  0.88189  0.70131  0.18050  1.0000 0.0425956441
C   C157      1.0  0.29572  0.15328  0.63766  1.0000 -0.1005260723
C   C158      1.0  0.84672  0.70428  0.13766  1.0000 -0.1005260723
C   C159      1.0  0.32172  0.16828  0.71794  1.0000 -0.1228836433
C   C160      1.0  0.83172  0.67828  0.21794  1.0000 -0.1228836433
C   C161      1.0  0.31314  0.23846  0.62960  1.0000 -0.0822494718
C   C162      1.0  0.76154  0.68686  0.12960  1.0000 -0.0822494718
C   C163      1.0  0.33837  0.25223  0.71090  1.0000 -0.0822494718
C   C164      1.0  0.74777  0.66163  0.21090  1.0000 -0.0822494718
C   C165      1.0  0.33419  0.28781  0.66710  1.0000 0.002855885
C   C166      1.0  0.71219  0.66581  0.16710  1.0000 0.0050584307
C   C167      1.0  0.34945  0.37695  0.66076  1.0000 0.5697119949
C   C168      1.0  0.62305  0.65055  0.16076  1.0000 0.5697119949
S   S1        1.0  0.61330  0.42584  0.59196  1.0000 0.9716547398
S   S2        1.0  0.57416  0.38670  0.09196  1.0000 0.9716547398
S   S3        1.0  0.14313  0.73355  0.85285  1.0000 0.9813158853
S   S4        1.0  0.26645  0.85687  0.35285  1.0000 0.9813158853
S   S5        1.0  0.07866  0.26772  0.90418  1.0000 0.9813158853
S   S6        1.0  0.73228  0.92134  0.40418  1.0000 0.9813158853
S   S7        1.0  0.42584  0.61330  0.90804  1.0000 0.9716547398
S   S8        1.0  0.38670  0.57416  0.40804  1.0000 0.9716547398
S   S9        1.0  0.73355  0.14313  0.64715  1.0000 0.9813158853
S   S10       1.0  0.85687  0.26645  0.14715  1.0000 0.9813158853
S   S11       1.0  0.26772  0.07866  0.59582  1.0000 0.9813158853
S   S12       1.0  0.92134  0.73228  0.09582  1.0000 0.9813158853
O   O1        1.0  0.53373  0.31467  0.77232  1.0000 -0.6495873214
O   O2        1.0  0.68533  0.46627  0.27232  1.0000 -0.6495873214
O   O3        1.0  0.56783  0.22137  0.78671  1.0000 -0.6900154532
O   O4        1.0  0.77863  0.43217  0.28671  1.0000 -0.6900154532
O   O5        1.0  0.53627  0.42493  0.58043  1.0000 -0.4993775071
O   O6        1.0  0.57507  0.46373  0.08043  1.0000 -0.4993775071
O   O7        1.0  0.70960  0.51760  0.60184  1.0000 -0.4730577351
O   O8        1.0  0.48240  0.29040  0.10184  1.0000 -0.4730577351
O   O9        1.0  0.69787  0.45593  0.41749  1.0000 -0.6703750001
O   O10       1.0  0.54407  0.30213  0.91749  1.0000 -0.6703750001
O   O11       1.0  0.73301  0.36299  0.42506  1.0000 -0.6703750001
O   O12       1.0  0.63701  0.26699  0.92506  1.0000 -0.6703750001
O   O13       1.0  0.38920  0.19180  0.84068  1.0000 -0.6360080273
O   O14       1.0  0.80820  0.61080  0.34068  1.0000 -0.6360080273
O   O15       1.0  0.45570  0.13010  0.86403  1.0000 -0.7084294887
O   O16       1.0  0.86990  0.54430  0.36403  1.0000 -0.7084294887
O   O17       1.0  0.16075  0.72125  0.80960  1.0000 -0.5242468448
O   O18       1.0  0.27875  0.83925  0.30960  1.0000 -0.5242468448
O   O19       1.0  0.17880  0.71500  0.89350  1.0000 -0.512106079
O   O20       1.0  0.28500  0.82120  0.39350  1.0000 -0.512106079
O   O21       1.0  0.67640  0.39080  0.84766  1.0000 -0.7644759746
O   O22       1.0  0.60920  0.32360  0.34766  1.0000 -0.7644759746
O   O23       1.0  0.77328  0.36392  0.85428  1.0000 -0.5739227267
O   O24       1.0  0.63608  0.22672  0.35428  1.0000 -0.5739227267
O   O25       1.0  0.74026  0.19114  0.88216  1.0000 -0.660309437
O   O26       1.0  0.80886  0.25974  0.38216  1.0000 -0.660309437
O   O27       1.0  0.71634  0.20686  0.80809  1.0000 -0.606193039
O   O28       1.0  0.79314  0.28366  0.30809  1.0000 -0.606193039
O   O29       1.0  0.03123  0.17277  0.92671  1.0000 -0.4778875293
O   O30       1.0  0.82723  0.96877  0.42671  1.0000 -0.4778875293
O   O31       1.0  0.12917  0.34843  0.93257  1.0000 -0.4993775071
O   O32       1.0  0.65157  0.87083  0.43257  1.0000 -0.4993775071
O   O33       1.0  0.40593  0.33987  0.87809  1.0000 -0.6174600454
O   O34       1.0  0.66013  0.59407  0.37809  1.0000 -0.6174600454
O   O35       1.0  0.42268  0.37352  0.80441  1.0000 -0.660309437
O   O36       1.0  0.62648  0.57732  0.30441  1.0000 -0.660309437
O   O37       1.0  0.31467  0.53373  0.72768  1.0000 -0.6495873214
O   O38       1.0  0.46627  0.68533  0.22768  1.0000 -0.6495873214
O   O39       1.0  0.22137  0.56783  0.71329  1.0000 -0.6900154532
O   O40       1.0  0.43217  0.77863  0.21329  1.0000 -0.6900154532
O   O41       1.0  0.42493  0.53627  0.91957  1.0000 -0.4993775071
O   O42       1.0  0.46373  0.57507  0.41957  1.0000 -0.4993775071
O   O43       1.0  0.51760  0.70960  0.89816  1.0000 -0.4730577351
O   O44       1.0  0.29040  0.48240  0.39816  1.0000 -0.4730577351
O   O45       1.0  0.45593  0.69787  0.08251  1.0000 -0.6703750001
O   O46       1.0  0.30213  0.54407  0.58251  1.0000 -0.6703750001
O   O47       1.0  0.36299  0.73301  0.07494  1.0000 -0.6703750001
O   O48       1.0  0.26699  0.63701  0.57494  1.0000 -0.6703750001
O   O49       1.0  0.19180  0.38920  0.65932  1.0000 -0.6360080273
O   O50       1.0  0.61080  0.80820  0.15932  1.0000 -0.6360080273
O   O51       1.0  0.13010  0.45570  0.63597  1.0000 -0.7084294887
O   O52       1.0  0.54430  0.86990  0.13597  1.0000 -0.7084294887
O   O53       1.0  0.72125  0.16075  0.69040  1.0000 -0.5242468448
O   O54       1.0  0.83925  0.27875  0.19040  1.0000 -0.5242468448
O   O55       1.0  0.71500  0.17880  0.60650  1.0000 -0.512106079
O   O56       1.0  0.82120  0.28500  0.10650  1.0000 -0.512106079
O   O57       1.0  0.39080  0.67640  0.65234  1.0000 -0.7644759746
O   O58       1.0  0.32360  0.60920  0.15234  1.0000 -0.7644759746
O   O59       1.0  0.36392  0.77328  0.64572  1.0000 -0.5739227267
O   O60       1.0  0.22672  0.63608  0.14572  1.0000 -0.5739227267
O   O61       1.0  0.19114  0.74026  0.61784  1.0000 -0.660309437
O   O62       1.0  0.25974  0.80886  0.11784  1.0000 -0.660309437
O   O63       1.0  0.20686  0.71634  0.69191  1.0000 -0.606193039
O   O64       1.0  0.28366  0.79314  0.19191  1.0000 -0.606193039
O   O65       1.0  0.17277  0.03123  0.57329  1.0000 -0.4778875293
O   O66       1.0  0.96877  0.82723  0.07329  1.0000 -0.4778875293
O   O67       1.0  0.34843  0.12917  0.56743  1.0000 -0.4993775071
O   O68       1.0  0.87083  0.65157  0.06743  1.0000 -0.4993775071
O   O69       1.0  0.33987  0.40593  0.62191  1.0000 -0.6174600454
O   O70       1.0  0.59407  0.66013  0.12191  1.0000 -0.6174600454
O   O71       1.0  0.37352  0.42268  0.69559  1.0000 -0.660309437
O   O72       1.0  0.57732  0.62648  0.19559  1.0000 -0.660309437
