# DDEC6 charges by PACMAN v1.1 (https://github.com/mtap-research/PACMAN-charge/)
data_2009[Eu][pts]3[ASR]1
_chemical_formula_sum              "Eu4 H24 C30 N12 O24"
_cell_length_a       10.5751
_cell_length_b       10.5751
_cell_length_c       14.8013
_cell_angle_alpha    89.393
_cell_angle_beta     90.607
_cell_angle_gamma    74.2274

_symmetry_space_group_name_H-M    "P 1"
_symmetry_Int_Tables_number       1

loop_
  _symmetry_equiv_pos_as_xyz
  'x, y, z'

loop_
  _atom_site_type_symbol
  _atom_site_label
  _atom_site_symmetry_multiplicity
  _atom_site_fract_x
  _atom_site_fract_y
  _atom_site_fract_z
  _atom_site_occupancy
  _atom_site_charge
Eu  Eu1       1.0  0.57287  0.82429  0.55728  1.0000 2.05569613
Eu  Eu2       1.0  0.82429  0.57287  0.94272  1.0000 2.05569613
Eu  Eu3       1.0  0.42713  0.17571  0.44272  1.0000 2.05569613
Eu  Eu4       1.0  0.17571  0.42713  0.05728  1.0000 2.05569613
H   H1        1.0  0.32650  0.53950  0.34010  1.0000 0.1439101921
H   H2        1.0  0.53950  0.32650  0.15990  1.0000 0.1439101921
H   H3        1.0  0.67350  0.46050  0.65990  1.0000 0.1439101921
H   H4        1.0  0.46050  0.67350  0.84010  1.0000 0.1439101921
H   H5        1.0  0.19900  0.65620  0.33130  1.0000 0.1329949351
H   H6        1.0  0.65620  0.19900  0.16870  1.0000 0.1329949351
H   H7        1.0  0.80100  0.34380  0.66870  1.0000 0.1329949351
H   H8        1.0  0.34380  0.80100  0.83130  1.0000 0.1329949351
H   H9        1.0  0.32280  0.88720  0.24850  1.0000 0.1483302068
H   H10       1.0  0.88720  0.32280  0.25150  1.0000 0.1483302068
H   H11       1.0  0.67720  0.11280  0.75150  1.0000 0.1483302068
H   H12       1.0  0.11280  0.67720  0.74850  1.0000 0.1483302068
H   H13       1.0  0.20670  0.85910  0.30230  1.0000 0.1329949351
H   H14       1.0  0.85910  0.20670  0.19770  1.0000 0.1329949351
H   H15       1.0  0.79330  0.14090  0.69770  1.0000 0.1329949351
H   H16       1.0  0.14090  0.79330  0.80230  1.0000 0.1329949351
H   H17       1.0  0.78590  0.94190  0.28700  1.0000 0.1483302068
H   H18       1.0  0.94190  0.78590  0.21300  1.0000 0.1483302068
H   H19       1.0  0.21410  0.05810  0.71300  1.0000 0.1483302068
H   H20       1.0  0.05810  0.21410  0.78700  1.0000 0.1483302068
H   H21       1.0  0.64250  0.94610  0.25600  1.0000 0.1483302068
H   H22       1.0  0.94610  0.64250  0.24400  1.0000 0.1483302068
H   H23       1.0  0.35750  0.05390  0.74400  1.0000 0.1483302068
H   H24       1.0  0.05390  0.35750  0.75600  1.0000 0.1483302068
C   C1        1.0  0.48620  0.65560  0.26910  1.0000 0.4714732271
C   C2        1.0  0.65560  0.48620  0.23090  1.0000 0.4714732271
C   C3        1.0  0.51380  0.34440  0.73090  1.0000 0.4714732271
C   C4        1.0  0.34440  0.51380  0.76910  1.0000 0.4714732271
C   C5        1.0  0.68570  0.68570  0.25000  1.0000 0.4714732271
C   C6        1.0  0.31430  0.31430  0.75000  1.0000 0.4714732271
C   C7        1.0  0.27920  0.61140  0.30090  1.0000 -0.2409954368
C   C8        1.0  0.61140  0.27920  0.19910  1.0000 -0.2409954368
C   C9        1.0  0.72080  0.38860  0.69910  1.0000 -0.2409954368
C   C10       1.0  0.38860  0.72080  0.80090  1.0000 -0.2409954368
C   C11       1.0  0.24270  0.55410  0.21380  1.0000 0.6176176669
C   C12       1.0  0.55410  0.24270  0.28620  1.0000 0.6176176669
C   C13       1.0  0.75730  0.44590  0.78620  1.0000 0.6176176669
C   C14       1.0  0.44590  0.75730  0.71380  1.0000 0.6176176669
C   C15       1.0  0.30150  0.84170  0.30100  1.0000 -0.2518909982
C   C16       1.0  0.84170  0.30150  0.19900  1.0000 -0.2518909982
C   C17       1.0  0.69850  0.15830  0.69900  1.0000 -0.2518909982
C   C18       1.0  0.15830  0.69850  0.80100  1.0000 -0.2518909982
C   C19       1.0  0.34630  0.90010  0.38560  1.0000 0.6869229527
C   C20       1.0  0.90010  0.34630  0.11440  1.0000 0.6869229527
C   C21       1.0  0.65370  0.09990  0.61440  1.0000 0.6869229527
C   C22       1.0  0.09990  0.65370  0.88560  1.0000 0.6869229527
C   C23       1.0  0.71850  0.89550  0.29030  1.0000 -0.2409954368
C   C24       1.0  0.89550  0.71850  0.20970  1.0000 -0.2409954368
C   C25       1.0  0.28150  0.10450  0.70970  1.0000 -0.2409954368
C   C26       1.0  0.10450  0.28150  0.79030  1.0000 -0.2409954368
C   C27       1.0  0.68050  0.88550  0.38870  1.0000 0.6765769722
C   C28       1.0  0.88550  0.68050  0.11130  1.0000 0.6765769722
C   C29       1.0  0.31950  0.11450  0.61130  1.0000 0.6765769722
C   C30       1.0  0.11450  0.31950  0.88870  1.0000 0.6765769722
N   N1        1.0  0.52790  0.52790  0.25000  1.0000 -0.5164348482
N   N2        1.0  0.47210  0.47210  0.75000  1.0000 -0.5164348482
N   N3        1.0  0.55880  0.74040  0.26920  1.0000 -0.510073453
N   N4        1.0  0.74040  0.55880  0.23080  1.0000 -0.510073453
N   N5        1.0  0.44120  0.25960  0.73080  1.0000 -0.510073453
N   N6        1.0  0.25960  0.44120  0.76920  1.0000 -0.510073453
N   N7        1.0  0.35800  0.70160  0.28970  1.0000 -0.0612660148
N   N8        1.0  0.70160  0.35800  0.21030  1.0000 -0.0612660148
N   N9        1.0  0.64200  0.29840  0.71030  1.0000 -0.0612660148
N   N10       1.0  0.29840  0.64200  0.78970  1.0000 -0.0612660148
N   N11       1.0  0.76710  0.76710  0.25000  1.0000 -0.0612660148
N   N12       1.0  0.23290  0.23290  0.75000  1.0000 -0.0612660148
O   O1        1.0  0.20500  0.44920  0.21990  1.0000 -0.6703448592
O   O2        1.0  0.44920  0.20500  0.28010  1.0000 -0.6703448592
O   O3        1.0  0.79500  0.55080  0.78010  1.0000 -0.6703448592
O   O4        1.0  0.55080  0.79500  0.71990  1.0000 -0.6703448592
O   O5        1.0  0.25050  0.60550  0.13770  1.0000 -0.6355527042
O   O6        1.0  0.60550  0.25050  0.36230  1.0000 -0.6355527042
O   O7        1.0  0.74950  0.39450  0.86230  1.0000 -0.6355527042
O   O8        1.0  0.39450  0.74950  0.63770  1.0000 -0.6355527042
O   O9        1.0  0.31730  0.02450  0.38470  1.0000 -0.6767612098
O   O10       1.0  0.02450  0.31730  0.11530  1.0000 -0.6767612098
O   O11       1.0  0.68270  0.97550  0.61530  1.0000 -0.6767612098
O   O12       1.0  0.97550  0.68270  0.88470  1.0000 -0.6767612098
O   O13       1.0  0.40700  0.82360  0.44580  1.0000 -0.655936092
O   O14       1.0  0.82360  0.40700  0.05420  1.0000 -0.655936092
O   O15       1.0  0.59300  0.17640  0.55420  1.0000 -0.655936092
O   O16       1.0  0.17640  0.59300  0.94580  1.0000 -0.655936092
O   O17       1.0  0.59010  0.97710  0.42100  1.0000 -0.7427836506
O   O18       1.0  0.97710  0.59010  0.07900  1.0000 -0.7427836506
O   O19       1.0  0.40990  0.02290  0.57900  1.0000 -0.7427836506
O   O20       1.0  0.02290  0.40990  0.92100  1.0000 -0.7427836506
O   O21       1.0  0.73780  0.78660  0.43530  1.0000 -0.6234639584
O   O22       1.0  0.78660  0.73780  0.06470  1.0000 -0.6234639584
O   O23       1.0  0.26220  0.21340  0.56470  1.0000 -0.6234639584
O   O24       1.0  0.21340  0.26220  0.93530  1.0000 -0.6234639584
