# DDEC6 charges by PACMAN v1.1 (https://github.com/mtap-research/PACMAN-charge/)
data_2009[Zn][pcu]3[ASR]1
_chemical_formula_sum              "Zn12 H36 C24 S4 N48"
_cell_length_a       14.1006
_cell_length_b       14.1006
_cell_length_c       14.1006
_cell_angle_alpha    109.471
_cell_angle_beta     109.471
_cell_angle_gamma    109.471

_symmetry_space_group_name_H-M    "P 1"
_symmetry_Int_Tables_number       1

loop_
  _symmetry_equiv_pos_as_xyz
  'x, y, z'

loop_
  _atom_site_type_symbol
  _atom_site_label
  _atom_site_symmetry_multiplicity
  _atom_site_fract_x
  _atom_site_fract_y
  _atom_site_fract_z
  _atom_site_occupancy
  _atom_site_charge
Zn  Zn1       1.0  0.45848  0.59611  0.60469  1.0000 0.6174807708
Zn  Zn2       1.0  0.99142  0.85379  0.39531  1.0000 0.6174807708
Zn  Zn3       1.0  0.00858  0.40389  0.86237  1.0000 0.6174807708
Zn  Zn4       1.0  0.54152  0.14621  0.13763  1.0000 0.6174807708
Zn  Zn5       1.0  0.60469  0.45848  0.59611  1.0000 0.6174807708
Zn  Zn6       1.0  0.39531  0.99142  0.85379  1.0000 0.6174807708
Zn  Zn7       1.0  0.86237  0.00858  0.40389  1.0000 0.6174807708
Zn  Zn8       1.0  0.13763  0.54152  0.14621  1.0000 0.6174807708
Zn  Zn9       1.0  0.59611  0.60469  0.45848  1.0000 0.6174807708
Zn  Zn10      1.0  0.85379  0.39531  0.99142  1.0000 0.6174807708
Zn  Zn11      1.0  0.40389  0.86237  0.00858  1.0000 0.6174807708
Zn  Zn12      1.0  0.14621  0.13763  0.54152  1.0000 0.6174807708
H   H1        1.0  0.38900  0.58010  0.23570  1.0000 0.0987500658
H   H2        1.0  0.34440  0.15330  0.76430  1.0000 0.0987500658
H   H3        1.0  0.65560  0.41990  0.80890  1.0000 0.0987500658
H   H4        1.0  0.61100  0.84670  0.19110  1.0000 0.0987500658
H   H5        1.0  0.23570  0.38900  0.58010  1.0000 0.0987500658
H   H6        1.0  0.76430  0.34440  0.15330  1.0000 0.0987500658
H   H7        1.0  0.80890  0.65560  0.41990  1.0000 0.0987500658
H   H8        1.0  0.19110  0.61100  0.84670  1.0000 0.0987500658
H   H9        1.0  0.58010  0.23570  0.38900  1.0000 0.0987500658
H   H10       1.0  0.15330  0.76430  0.34440  1.0000 0.0987500658
H   H11       1.0  0.41990  0.80890  0.65560  1.0000 0.0987500658
H   H12       1.0  0.84670  0.19110  0.61100  1.0000 0.0987500658
H   H13       1.0  0.20170  0.56440  0.47530  1.0000 0.2728777364
H   H14       1.0  0.08910  0.72640  0.52470  1.0000 0.2728777364
H   H15       1.0  0.91090  0.43560  0.63730  1.0000 0.2728777364
H   H16       1.0  0.79830  0.27360  0.36270  1.0000 0.2728777364
H   H17       1.0  0.47530  0.20170  0.56440  1.0000 0.2728777364
H   H18       1.0  0.52470  0.08910  0.72640  1.0000 0.2728777364
H   H19       1.0  0.63730  0.91090  0.43560  1.0000 0.2728777364
H   H20       1.0  0.36270  0.79830  0.27360  1.0000 0.2728777364
H   H21       1.0  0.56440  0.47530  0.20170  1.0000 0.2728777364
H   H22       1.0  0.72640  0.52470  0.08910  1.0000 0.2728777364
H   H23       1.0  0.43560  0.63730  0.91090  1.0000 0.2728777364
H   H24       1.0  0.27360  0.36270  0.79830  1.0000 0.2728777364
H   H25       1.0  0.12740  0.55110  0.36250  1.0000 0.2769040277
H   H26       1.0  0.18860  0.76490  0.63750  1.0000 0.2769040277
H   H27       1.0  0.81140  0.44890  0.57630  1.0000 0.2769040277
H   H28       1.0  0.87260  0.23510  0.42370  1.0000 0.2769040277
H   H29       1.0  0.36250  0.12740  0.55110  1.0000 0.2769040277
H   H30       1.0  0.63750  0.18860  0.76490  1.0000 0.2769040277
H   H31       1.0  0.57630  0.81140  0.44890  1.0000 0.2769040277
H   H32       1.0  0.42370  0.87260  0.23510  1.0000 0.2769040277
H   H33       1.0  0.55110  0.36250  0.12740  1.0000 0.2769040277
H   H34       1.0  0.76490  0.63750  0.18860  1.0000 0.2769040277
H   H35       1.0  0.44890  0.57630  0.81140  1.0000 0.2769040277
H   H36       1.0  0.23510  0.42370  0.87260  1.0000 0.2769040277
C   C1        1.0  0.27470  0.56910  0.38300  1.0000 0.490875126
C   C2        1.0  0.18610  0.89170  0.61700  1.0000 0.490875126
C   C3        1.0  0.81390  0.43090  0.70560  1.0000 0.490875126
C   C4        1.0  0.72530  0.10830  0.29440  1.0000 0.490875126
C   C5        1.0  0.38300  0.27470  0.56910  1.0000 0.490875126
C   C6        1.0  0.61700  0.18610  0.89170  1.0000 0.490875126
C   C7        1.0  0.70560  0.81390  0.43090  1.0000 0.490875126
C   C8        1.0  0.29440  0.72530  0.10830  1.0000 0.490875126
C   C9        1.0  0.56910  0.38300  0.27470  1.0000 0.490875126
C   C10       1.0  0.89170  0.61700  0.18610  1.0000 0.490875126
C   C11       1.0  0.43090  0.70560  0.81390  1.0000 0.490875126
C   C12       1.0  0.10830  0.29440  0.72530  1.0000 0.490875126
C   C13       1.0  0.36880  0.57880  0.29180  1.0000 0.117538858
C   C14       1.0  0.28700  0.07700  0.70820  1.0000 0.117538858
C   C15       1.0  0.71300  0.42120  0.79000  1.0000 0.117538858
C   C16       1.0  0.63120  0.92300  0.21000  1.0000 0.117538858
C   C17       1.0  0.29180  0.36880  0.57880  1.0000 0.117538858
C   C18       1.0  0.70820  0.28700  0.07700  1.0000 0.117538858
C   C19       1.0  0.79000  0.71300  0.42120  1.0000 0.117538858
C   C20       1.0  0.21000  0.63120  0.92300  1.0000 0.117538858
C   C21       1.0  0.57880  0.29180  0.36880  1.0000 0.117538858
C   C22       1.0  0.07700  0.70820  0.28700  1.0000 0.117538858
C   C23       1.0  0.42120  0.79000  0.71300  1.0000 0.117538858
C   C24       1.0  0.92300  0.21000  0.63120  1.0000 0.117538858
S   S1        1.0  0.64692  0.64692  0.64692  1.0000 -0.7410907735
S   S2        1.0  0.00000  0.00000  0.35308  1.0000 -0.7349657207
S   S3        1.0  0.00000  0.35308  0.00000  1.0000 -0.7410907735
S   S4        1.0  0.35308  0.00000  0.00000  1.0000 -0.7410907735
N   N1        1.0  0.37700  0.58370  0.44910  1.0000 -0.3324953754
N   N2        1.0  0.13460  0.92790  0.55090  1.0000 -0.3324953754
N   N3        1.0  0.86540  0.41630  0.79330  1.0000 -0.3324953754
N   N4        1.0  0.62300  0.07210  0.20670  1.0000 -0.3324953754
N   N5        1.0  0.44910  0.37700  0.58370  1.0000 -0.3324953754
N   N6        1.0  0.55090  0.13460  0.92790  1.0000 -0.3324953754
N   N7        1.0  0.79330  0.86540  0.41630  1.0000 -0.3324953754
N   N8        1.0  0.20670  0.62300  0.07210  1.0000 -0.3324953754
N   N9        1.0  0.58370  0.44910  0.37700  1.0000 -0.3324953754
N   N10       1.0  0.92790  0.55090  0.13460  1.0000 -0.3324953754
N   N11       1.0  0.41630  0.79330  0.86540  1.0000 -0.3324953754
N   N12       1.0  0.07210  0.20670  0.62300  1.0000 -0.3324953754
N   N13       1.0  0.43730  0.59020  0.38890  1.0000 -0.223162809
N   N14       1.0  0.20130  0.04840  0.61110  1.0000 -0.223162809
N   N15       1.0  0.79870  0.40980  0.84710  1.0000 -0.223162809
N   N16       1.0  0.56270  0.95160  0.15290  1.0000 -0.223162809
N   N17       1.0  0.38890  0.43730  0.59020  1.0000 -0.223162809
N   N18       1.0  0.61110  0.20130  0.04840  1.0000 -0.223162809
N   N19       1.0  0.84710  0.79870  0.40980  1.0000 -0.223162809
N   N20       1.0  0.15290  0.56270  0.95160  1.0000 -0.223162809
N   N21       1.0  0.59020  0.38890  0.43730  1.0000 -0.223162809
N   N22       1.0  0.04840  0.61110  0.20130  1.0000 -0.223162809
N   N23       1.0  0.40980  0.84710  0.79870  1.0000 -0.223162809
N   N24       1.0  0.95160  0.15290  0.56270  1.0000 -0.223162809
N   N25       1.0  0.26570  0.56510  0.28120  1.0000 -0.4420682057
N   N26       1.0  0.28390  0.98450  0.71880  1.0000 -0.4420682057
N   N27       1.0  0.71610  0.43490  0.70060  1.0000 -0.4420682057
N   N28       1.0  0.73430  0.01550  0.29940  1.0000 -0.4420682057
N   N29       1.0  0.28120  0.26570  0.56510  1.0000 -0.4420682057
N   N30       1.0  0.71880  0.28390  0.98450  1.0000 -0.4420682057
N   N31       1.0  0.70060  0.71610  0.43490  1.0000 -0.4420682057
N   N32       1.0  0.29940  0.73430  0.01550  1.0000 -0.4420682057
N   N33       1.0  0.56510  0.28120  0.26570  1.0000 -0.4420682057
N   N34       1.0  0.98450  0.71880  0.28390  1.0000 -0.4420682057
N   N35       1.0  0.43490  0.70060  0.71610  1.0000 -0.4420682057
N   N36       1.0  0.01550  0.29940  0.73430  1.0000 -0.4420682057
N   N37       1.0  0.19140  0.56050  0.41010  1.0000 -0.6301803578
N   N38       1.0  0.15040  0.78130  0.58990  1.0000 -0.6301803578
N   N39       1.0  0.84960  0.43950  0.63090  1.0000 -0.6301803578
N   N40       1.0  0.80860  0.21870  0.36910  1.0000 -0.6301803578
N   N41       1.0  0.41010  0.19140  0.56050  1.0000 -0.6301803578
N   N42       1.0  0.58990  0.15040  0.78130  1.0000 -0.6301803578
N   N43       1.0  0.63090  0.84960  0.43950  1.0000 -0.6301803578
N   N44       1.0  0.36910  0.80860  0.21870  1.0000 -0.6301803578
N   N45       1.0  0.56050  0.41010  0.19140  1.0000 -0.6301803578
N   N46       1.0  0.78130  0.58990  0.15040  1.0000 -0.6301803578
N   N47       1.0  0.43950  0.63090  0.84960  1.0000 -0.6301803578
N   N48       1.0  0.21870  0.36910  0.80860  1.0000 -0.6301803578
