# DDEC6 charges by PACMAN v1.1 (https://github.com/mtap-research/PACMAN-charge/)
data_2009[Zn][nan]3[ASR]8
_chemical_formula_sum              "Zn16 H56 C48 N72 O32"
_cell_length_a       12.784
_cell_length_b       13.838
_cell_length_c       16.885
_cell_angle_alpha    90
_cell_angle_beta     90
_cell_angle_gamma    90

_symmetry_space_group_name_H-M    "P 1"
_symmetry_Int_Tables_number       1

loop_
  _symmetry_equiv_pos_as_xyz
  'x, y, z'

loop_
  _atom_site_type_symbol
  _atom_site_label
  _atom_site_symmetry_multiplicity
  _atom_site_fract_x
  _atom_site_fract_y
  _atom_site_fract_z
  _atom_site_occupancy
  _atom_site_charge
Zn  Zn1       1.0  0.02398  0.40646  0.92413  1.0000 0.7202787973
Zn  Zn2       1.0  0.97602  0.09354  0.42413  1.0000 0.7202787973
Zn  Zn3       1.0  0.52398  0.59354  0.57587  1.0000 0.7202787973
Zn  Zn4       1.0  0.47602  0.90646  0.07587  1.0000 0.7202787973
Zn  Zn5       1.0  0.97602  0.59354  0.07587  1.0000 0.7202787973
Zn  Zn6       1.0  0.02398  0.90646  0.57587  1.0000 0.7202787973
Zn  Zn7       1.0  0.47602  0.40646  0.42413  1.0000 0.7202787973
Zn  Zn8       1.0  0.52398  0.09354  0.92413  1.0000 0.7202787973
Zn  Zn9       1.0  0.56802  0.52247  0.90213  1.0000 0.7202787973
Zn  Zn10      1.0  0.43198  0.97753  0.40213  1.0000 0.7202787973
Zn  Zn11      1.0  0.06802  0.47753  0.59787  1.0000 0.7202787973
Zn  Zn12      1.0  0.93198  0.02247  0.09787  1.0000 0.7202787973
Zn  Zn13      1.0  0.43198  0.47753  0.09787  1.0000 0.7202787973
Zn  Zn14      1.0  0.56802  0.02247  0.59787  1.0000 0.7202787973
Zn  Zn15      1.0  0.93198  0.52247  0.40213  1.0000 0.7202787973
Zn  Zn16      1.0  0.06802  0.97753  0.90213  1.0000 0.7202787973
H   H1        1.0  0.04480  0.19480  0.85280  1.0000 0.1238482945
H   H2        1.0  0.95520  0.30520  0.35280  1.0000 0.1238482945
H   H3        1.0  0.54480  0.80520  0.64720  1.0000 0.1238482945
H   H4        1.0  0.45520  0.69480  0.14720  1.0000 0.1238482945
H   H5        1.0  0.95520  0.80520  0.14720  1.0000 0.1238482945
H   H6        1.0  0.04480  0.69480  0.64720  1.0000 0.1238482945
H   H7        1.0  0.45520  0.19480  0.35280  1.0000 0.1238482945
H   H8        1.0  0.54480  0.30520  0.85280  1.0000 0.1238482945
H   H9        1.0  0.82260  0.32900  0.85880  1.0000 0.3099708982
H   H10       1.0  0.17740  0.17100  0.35880  1.0000 0.3099708982
H   H11       1.0  0.32260  0.67100  0.64120  1.0000 0.3099708982
H   H12       1.0  0.67740  0.82900  0.14120  1.0000 0.3099708982
H   H13       1.0  0.17740  0.67100  0.14120  1.0000 0.3099708982
H   H14       1.0  0.82260  0.82900  0.64120  1.0000 0.3099708982
H   H15       1.0  0.67740  0.32900  0.35880  1.0000 0.3099708982
H   H16       1.0  0.32260  0.17100  0.85880  1.0000 0.3099708982
H   H17       1.0  0.71510  0.36570  0.84290  1.0000 0.3099708982
H   H18       1.0  0.28490  0.13430  0.34290  1.0000 0.3099708982
H   H19       1.0  0.21510  0.63430  0.65710  1.0000 0.3099708982
H   H20       1.0  0.78490  0.86570  0.15710  1.0000 0.3099708982
H   H21       1.0  0.28490  0.63430  0.15710  1.0000 0.3099708982
H   H22       1.0  0.71510  0.86570  0.65710  1.0000 0.3099708982
H   H23       1.0  0.78490  0.36570  0.34290  1.0000 0.3099708982
H   H24       1.0  0.21510  0.13430  0.84290  1.0000 0.3099708982
H   H25       1.0  0.92940  0.23980  0.12940  1.0000 0.3220308308
H   H26       1.0  0.07060  0.26020  0.62940  1.0000 0.3220308308
H   H27       1.0  0.42940  0.76020  0.37060  1.0000 0.3220308308
H   H28       1.0  0.57060  0.73980  0.87060  1.0000 0.3220308308
H   H29       1.0  0.07060  0.76020  0.87060  1.0000 0.3220308308
H   H30       1.0  0.92940  0.73980  0.37060  1.0000 0.3220308308
H   H31       1.0  0.57060  0.23980  0.62940  1.0000 0.3220308308
H   H32       1.0  0.42940  0.26020  0.12940  1.0000 0.3220308308
H   H33       1.0  0.94780  0.33230  0.08650  1.0000 0.3220308308
H   H34       1.0  0.05220  0.16770  0.58650  1.0000 0.3220308308
H   H35       1.0  0.44780  0.66770  0.41350  1.0000 0.3220308308
H   H36       1.0  0.55220  0.83230  0.91350  1.0000 0.3220308308
H   H37       1.0  0.05220  0.66770  0.91350  1.0000 0.3220308308
H   H38       1.0  0.94780  0.83230  0.41350  1.0000 0.3220308308
H   H39       1.0  0.55220  0.33230  0.58650  1.0000 0.3220308308
H   H40       1.0  0.44780  0.16770  0.08650  1.0000 0.3220308308
H   H41       1.0  0.79030  0.70780  0.02970  1.0000 0.2938717023
H   H42       1.0  0.20970  0.79220  0.52970  1.0000 0.2938717023
H   H43       1.0  0.29030  0.29220  0.47030  1.0000 0.2938717023
H   H44       1.0  0.70970  0.20780  0.97030  1.0000 0.2938717023
H   H45       1.0  0.20970  0.29220  0.97030  1.0000 0.2938717023
H   H46       1.0  0.79030  0.20780  0.47030  1.0000 0.2938717023
H   H47       1.0  0.70970  0.70780  0.52970  1.0000 0.2938717023
H   H48       1.0  0.29030  0.79220  0.02970  1.0000 0.2938717023
H   H49       1.0  0.68370  0.69370  0.99600  1.0000 0.274067273
H   H50       1.0  0.31630  0.80630  0.49600  1.0000 0.274067273
H   H51       1.0  0.18370  0.30630  0.50400  1.0000 0.274067273
H   H52       1.0  0.81630  0.19370  0.00400  1.0000 0.274067273
H   H53       1.0  0.31630  0.30630  0.00400  1.0000 0.274067273
H   H54       1.0  0.68370  0.19370  0.50400  1.0000 0.274067273
H   H55       1.0  0.81630  0.69370  0.49600  1.0000 0.274067273
H   H56       1.0  0.18370  0.80630  0.99600  1.0000 0.274067273
C   C1        1.0  0.02180  0.41040  0.75460  1.0000 0.4661424213
C   C2        1.0  0.97820  0.08960  0.25460  1.0000 0.4648762887
C   C3        1.0  0.52180  0.58960  0.74540  1.0000 0.4648762887
C   C4        1.0  0.47820  0.91040  0.24540  1.0000 0.4648762887
C   C5        1.0  0.97820  0.58960  0.24540  1.0000 0.4648762887
C   C6        1.0  0.02180  0.91040  0.74540  1.0000 0.4648762887
C   C7        1.0  0.47820  0.41040  0.25460  1.0000 0.4648762887
C   C8        1.0  0.52180  0.08960  0.75460  1.0000 0.4661424213
C   C9        1.0  0.07420  0.50620  0.77790  1.0000 0.4648762887
C   C10       1.0  0.92580  0.99380  0.27790  1.0000 0.4648762887
C   C11       1.0  0.57420  0.49380  0.72210  1.0000 0.4648762887
C   C12       1.0  0.42580  0.00620  0.22210  1.0000 0.4648762887
C   C13       1.0  0.92580  0.49380  0.22210  1.0000 0.4648762887
C   C14       1.0  0.07420  0.00620  0.72210  1.0000 0.4648762887
C   C15       1.0  0.42580  0.50620  0.27790  1.0000 0.4648762887
C   C16       1.0  0.57420  0.99380  0.77790  1.0000 0.4648762887
C   C17       1.0  0.79470  0.45190  0.91240  1.0000 0.5122292169
C   C18       1.0  0.20530  0.04810  0.41240  1.0000 0.5122292169
C   C19       1.0  0.29470  0.54810  0.58760  1.0000 0.5122292169
C   C20       1.0  0.70530  0.95190  0.08760  1.0000 0.5122292169
C   C21       1.0  0.20530  0.54810  0.08760  1.0000 0.5122292169
C   C22       1.0  0.79470  0.95190  0.58760  1.0000 0.5122292169
C   C23       1.0  0.70530  0.45190  0.41240  1.0000 0.5122292169
C   C24       1.0  0.29470  0.04810  0.91240  1.0000 0.5122292169
C   C25       1.0  0.77530  0.58220  0.97660  1.0000 0.5122292169
C   C26       1.0  0.22470  0.91780  0.47660  1.0000 0.5122292169
C   C27       1.0  0.27530  0.41780  0.52340  1.0000 0.5122292169
C   C28       1.0  0.72470  0.08220  0.02340  1.0000 0.5122292169
C   C29       1.0  0.22470  0.41780  0.02340  1.0000 0.5122292169
C   C30       1.0  0.77530  0.08220  0.52340  1.0000 0.5122292169
C   C31       1.0  0.72470  0.58220  0.47660  1.0000 0.5122292169
C   C32       1.0  0.27530  0.91780  0.97660  1.0000 0.5122292169
C   C33       1.0  0.97860  0.22010  0.02220  1.0000 0.4938375257
C   C34       1.0  0.02140  0.27990  0.52220  1.0000 0.4938375257
C   C35       1.0  0.47860  0.77990  0.47780  1.0000 0.4938375257
C   C36       1.0  0.52140  0.72010  0.97780  1.0000 0.4938375257
C   C37       1.0  0.02140  0.77990  0.97780  1.0000 0.4938375257
C   C38       1.0  0.97860  0.72010  0.47780  1.0000 0.4938375257
C   C39       1.0  0.52140  0.22010  0.52220  1.0000 0.4938375257
C   C40       1.0  0.47860  0.27990  0.02220  1.0000 0.4938375257
C   C41       1.0  0.02430  0.18800  0.90540  1.0000 0.1514890005
C   C42       1.0  0.97570  0.31200  0.40540  1.0000 0.1514890005
C   C43       1.0  0.52430  0.81200  0.59460  1.0000 0.1514890005
C   C44       1.0  0.47570  0.68800  0.09460  1.0000 0.1514890005
C   C45       1.0  0.97570  0.81200  0.09460  1.0000 0.1514890005
C   C46       1.0  0.02430  0.68800  0.59460  1.0000 0.1514890005
C   C47       1.0  0.47570  0.18800  0.40540  1.0000 0.1514890005
C   C48       1.0  0.52430  0.31200  0.90540  1.0000 0.1514890005
N   N1        1.0  0.72290  0.52110  0.92740  1.0000 -0.4987276852
N   N2        1.0  0.27710  0.97890  0.42740  1.0000 -0.4987276852
N   N3        1.0  0.22290  0.47890  0.57260  1.0000 -0.4987276852
N   N4        1.0  0.77710  0.02110  0.07260  1.0000 -0.4987276852
N   N5        1.0  0.27710  0.47890  0.07260  1.0000 -0.4987276852
N   N6        1.0  0.72290  0.02110  0.57260  1.0000 -0.4987276852
N   N7        1.0  0.77710  0.52110  0.42740  1.0000 -0.4987276852
N   N8        1.0  0.22290  0.97890  0.92740  1.0000 -0.4987276852
N   N9        1.0  0.88440  0.46740  0.94910  1.0000 -0.3128265351
N   N10       1.0  0.11560  0.03260  0.44910  1.0000 -0.3128265351
N   N11       1.0  0.38440  0.53260  0.55090  1.0000 -0.3128265351
N   N12       1.0  0.61560  0.96740  0.05090  1.0000 -0.3128265351
N   N13       1.0  0.11560  0.53260  0.05090  1.0000 -0.3128265351
N   N14       1.0  0.88440  0.96740  0.55090  1.0000 -0.3128265351
N   N15       1.0  0.61560  0.46740  0.44910  1.0000 -0.3128265351
N   N16       1.0  0.38440  0.03260  0.94910  1.0000 -0.3128265351
N   N17       1.0  0.87180  0.55270  0.99060  1.0000 -0.3196799039
N   N18       1.0  0.12820  0.94730  0.49060  1.0000 -0.3196799039
N   N19       1.0  0.37180  0.44730  0.50940  1.0000 -0.3196799039
N   N20       1.0  0.62820  0.05270  0.00940  1.0000 -0.3196799039
N   N21       1.0  0.12820  0.44730  0.00940  1.0000 -0.3196799039
N   N22       1.0  0.87180  0.05270  0.50940  1.0000 -0.3196799039
N   N23       1.0  0.62820  0.55270  0.49060  1.0000 -0.3196799039
N   N24       1.0  0.37180  0.94730  0.99060  1.0000 -0.3196799039
N   N25       1.0  0.77500  0.37220  0.86550  1.0000 -0.6402135327
N   N26       1.0  0.22500  0.12780  0.36550  1.0000 -0.6402135327
N   N27       1.0  0.27500  0.62780  0.63450  1.0000 -0.6402135327
N   N28       1.0  0.72500  0.87220  0.13450  1.0000 -0.6402135327
N   N29       1.0  0.22500  0.62780  0.13450  1.0000 -0.6402135327
N   N30       1.0  0.77500  0.87220  0.63450  1.0000 -0.6402135327
N   N31       1.0  0.72500  0.37220  0.36550  1.0000 -0.6402135327
N   N32       1.0  0.27500  0.12780  0.86550  1.0000 -0.6402135327
N   N33       1.0  0.01130  0.10410  0.93980  1.0000 -0.2171876378
N   N34       1.0  0.98870  0.39590  0.43980  1.0000 -0.2171876378
N   N35       1.0  0.51130  0.89590  0.56020  1.0000 -0.2171876378
N   N36       1.0  0.48870  0.60410  0.06020  1.0000 -0.2171876378
N   N37       1.0  0.98870  0.89590  0.06020  1.0000 -0.2171876378
N   N38       1.0  0.01130  0.60410  0.56020  1.0000 -0.2171876378
N   N39       1.0  0.48870  0.10410  0.43980  1.0000 -0.2171876378
N   N40       1.0  0.51130  0.39590  0.93980  1.0000 -0.2171876378
N   N41       1.0  0.98200  0.12440  0.01760  1.0000 -0.3196799039
N   N42       1.0  0.01800  0.37560  0.51760  1.0000 -0.3251920439
N   N43       1.0  0.48200  0.87560  0.48240  1.0000 -0.3196799039
N   N44       1.0  0.51800  0.62440  0.98240  1.0000 -0.3251920439
N   N45       1.0  0.01800  0.87560  0.98240  1.0000 -0.3196799039
N   N46       1.0  0.98200  0.62440  0.48240  1.0000 -0.3251920439
N   N47       1.0  0.51800  0.12440  0.51760  1.0000 -0.3251920439
N   N48       1.0  0.48200  0.37560  0.01760  1.0000 -0.3251920439
N   N49       1.0  0.00530  0.26300  0.95340  1.0000 -0.4461911119
N   N50       1.0  0.99470  0.23700  0.45340  1.0000 -0.4461911119
N   N51       1.0  0.50530  0.73700  0.54660  1.0000 -0.4461911119
N   N52       1.0  0.49470  0.76300  0.04660  1.0000 -0.4461911119
N   N53       1.0  0.99470  0.73700  0.04660  1.0000 -0.4461911119
N   N54       1.0  0.00530  0.76300  0.54660  1.0000 -0.4461911119
N   N55       1.0  0.49470  0.26300  0.45340  1.0000 -0.4461911119
N   N56       1.0  0.50530  0.23700  0.95340  1.0000 -0.4461911119
N   N57       1.0  0.94830  0.27020  0.08730  1.0000 -0.6221449099
N   N58       1.0  0.05170  0.22980  0.58730  1.0000 -0.6221449099
N   N59       1.0  0.44830  0.72980  0.41270  1.0000 -0.6221449099
N   N60       1.0  0.55170  0.77020  0.91270  1.0000 -0.6221449099
N   N61       1.0  0.05170  0.72980  0.91270  1.0000 -0.6221449099
N   N62       1.0  0.94830  0.77020  0.41270  1.0000 -0.6221449099
N   N63       1.0  0.55170  0.27020  0.58730  1.0000 -0.6221449099
N   N64       1.0  0.44830  0.22980  0.08730  1.0000 -0.6221449099
N   N65       1.0  0.74600  0.67300  0.00400  1.0000 -0.6402135327
N   N66       1.0  0.25400  0.82700  0.50400  1.0000 -0.6402135327
N   N67       1.0  0.24600  0.32700  0.49600  1.0000 -0.6402135327
N   N68       1.0  0.75400  0.17300  0.99600  1.0000 -0.6402135327
N   N69       1.0  0.25400  0.32700  0.99600  1.0000 -0.6402135327
N   N70       1.0  0.74600  0.17300  0.49600  1.0000 -0.6402135327
N   N71       1.0  0.75400  0.67300  0.50400  1.0000 -0.6402135327
N   N72       1.0  0.24600  0.82700  0.00400  1.0000 -0.6402135327
O   O1        1.0  0.99290  0.35620  0.80940  1.0000 -0.4891171217
O   O2        1.0  0.00710  0.14380  0.30940  1.0000 -0.4891171217
O   O3        1.0  0.49290  0.64380  0.69060  1.0000 -0.4891171217
O   O4        1.0  0.50710  0.85620  0.19060  1.0000 -0.4891171217
O   O5        1.0  0.00710  0.64380  0.19060  1.0000 -0.4891171217
O   O6        1.0  0.99290  0.85620  0.69060  1.0000 -0.4891171217
O   O7        1.0  0.50710  0.35620  0.30940  1.0000 -0.4891171217
O   O8        1.0  0.49290  0.14380  0.80940  1.0000 -0.4891171217
O   O9        1.0  0.08380  0.52160  0.85030  1.0000 -0.4891171217
O   O10       1.0  0.91620  0.97840  0.35030  1.0000 -0.4891171217
O   O11       1.0  0.58380  0.47840  0.64970  1.0000 -0.4891171217
O   O12       1.0  0.41620  0.02160  0.14970  1.0000 -0.4891171217
O   O13       1.0  0.91620  0.47840  0.14970  1.0000 -0.4891171217
O   O14       1.0  0.08380  0.02160  0.64970  1.0000 -0.4891171217
O   O15       1.0  0.41620  0.52160  0.35030  1.0000 -0.4891171217
O   O16       1.0  0.58380  0.97840  0.85030  1.0000 -0.4891171217
O   O17       1.0  0.00800  0.39370  0.68230  1.0000 -0.4789273388
O   O18       1.0  0.99200  0.10630  0.18230  1.0000 -0.4789273388
O   O19       1.0  0.50800  0.60630  0.81770  1.0000 -0.4789273388
O   O20       1.0  0.49200  0.89370  0.31770  1.0000 -0.4789273388
O   O21       1.0  0.99200  0.60630  0.31770  1.0000 -0.4789273388
O   O22       1.0  0.00800  0.89370  0.81770  1.0000 -0.4789273388
O   O23       1.0  0.49200  0.39370  0.18230  1.0000 -0.4789273388
O   O24       1.0  0.50800  0.10630  0.68230  1.0000 -0.4789273388
O   O25       1.0  0.10270  0.55840  0.72090  1.0000 -0.5187309704
O   O26       1.0  0.89730  0.94160  0.22090  1.0000 -0.5187309704
O   O27       1.0  0.60270  0.44160  0.77910  1.0000 -0.5187309704
O   O28       1.0  0.39730  0.05840  0.27910  1.0000 -0.5187309704
O   O29       1.0  0.89730  0.44160  0.27910  1.0000 -0.5187309704
O   O30       1.0  0.10270  0.05840  0.77910  1.0000 -0.5187309704
O   O31       1.0  0.39730  0.55840  0.22090  1.0000 -0.5187309704
O   O32       1.0  0.60270  0.94160  0.72090  1.0000 -0.5187309704
