# DDEC6 charges by PACMAN v1.1 (https://github.com/mtap-research/PACMAN-charge/)
data_2009[Mn][nan]3[ASR]7
_chemical_formula_sum              "Mn8 H80 C112 N16 O32"
_cell_length_a       14.918
_cell_length_b       15.596
_cell_length_c       18.9977
_cell_angle_alpha    90
_cell_angle_beta     123.533
_cell_angle_gamma    90

_symmetry_space_group_name_H-M    "P 1"
_symmetry_Int_Tables_number       1

loop_
  _symmetry_equiv_pos_as_xyz
  'x, y, z'

loop_
  _atom_site_type_symbol
  _atom_site_label
  _atom_site_symmetry_multiplicity
  _atom_site_fract_x
  _atom_site_fract_y
  _atom_site_fract_z
  _atom_site_occupancy
  _atom_site_charge
Mn  Mn1       1.0  0.29100  0.06840  0.03709  1.0000 0.937365604
Mn  Mn2       1.0  0.70900  0.56840  0.46291  1.0000 0.937365604
Mn  Mn3       1.0  0.70900  0.93160  0.96291  1.0000 0.937365604
Mn  Mn4       1.0  0.29100  0.43160  0.53709  1.0000 0.937365604
Mn  Mn5       1.0  0.22989  0.35406  0.95401  1.0000 0.937365604
Mn  Mn6       1.0  0.77011  0.85406  0.54599  1.0000 0.937365604
Mn  Mn7       1.0  0.77011  0.64594  0.04599  1.0000 0.937365604
Mn  Mn8       1.0  0.22989  0.14594  0.45401  1.0000 0.937365604
H   H1        1.0  0.04140  0.03450  0.76490  1.0000 0.1113084474
H   H2        1.0  0.95860  0.53450  0.73510  1.0000 0.1113084474
H   H3        1.0  0.95860  0.96550  0.23510  1.0000 0.1113084474
H   H4        1.0  0.04140  0.46550  0.26490  1.0000 0.1113084474
H   H5        1.0  0.72370  0.09480  0.40810  1.0000 0.265724895
H   H6        1.0  0.27630  0.59480  0.09190  1.0000 0.265724895
H   H7        1.0  0.27630  0.90520  0.59190  1.0000 0.265724895
H   H8        1.0  0.72370  0.40520  0.90810  1.0000 0.265724895
H   H9        1.0  0.49050  0.38840  0.22560  1.0000 0.1113084474
H   H10       1.0  0.50950  0.88840  0.27440  1.0000 0.1113084474
H   H11       1.0  0.50950  0.61160  0.77440  1.0000 0.1113084474
H   H12       1.0  0.49050  0.11160  0.72560  1.0000 0.1113084474
H   H13       1.0  0.80870  0.31800  0.57030  1.0000 0.2608890285
H   H14       1.0  0.19130  0.81800  0.92970  1.0000 0.2608890285
H   H15       1.0  0.19130  0.68200  0.42970  1.0000 0.2608890285
H   H16       1.0  0.80870  0.18200  0.07030  1.0000 0.2608890285
H   H17       1.0  0.97310  0.40420  0.69600  1.0000 0.1182237907
H   H18       1.0  0.02690  0.90420  0.80400  1.0000 0.1182237907
H   H19       1.0  0.02690  0.59580  0.30400  1.0000 0.1182237907
H   H20       1.0  0.97310  0.09580  0.19600  1.0000 0.1182237907
H   H21       1.0  0.88200  0.44480  0.61050  1.0000 0.1288197072
H   H22       1.0  0.11800  0.94480  0.88950  1.0000 0.1288197072
H   H23       1.0  0.11800  0.55520  0.38950  1.0000 0.1288197072
H   H24       1.0  0.88200  0.05520  0.11050  1.0000 0.1288197072
H   H25       1.0  0.49270  0.13160  0.22000  1.0000 0.1288197072
H   H26       1.0  0.50730  0.63160  0.28000  1.0000 0.1288197072
H   H27       1.0  0.50730  0.86840  0.78000  1.0000 0.1288197072
H   H28       1.0  0.49270  0.36840  0.72000  1.0000 0.1288197072
H   H29       1.0  0.81250  0.16400  0.56070  1.0000 0.1182237907
H   H30       1.0  0.18750  0.66400  0.93930  1.0000 0.1182237907
H   H31       1.0  0.18750  0.83600  0.43930  1.0000 0.1182237907
H   H32       1.0  0.81250  0.33600  0.06070  1.0000 0.1182237907
H   H33       1.0  0.53900  0.01900  0.29970  1.0000 0.1113084474
H   H34       1.0  0.46100  0.51900  0.20030  1.0000 0.1113084474
H   H35       1.0  0.46100  0.98100  0.70030  1.0000 0.1113084474
H   H36       1.0  0.53900  0.48100  0.79970  1.0000 0.1113084474
H   H37       1.0  0.61810  0.98430  0.39140  1.0000 0.1288197072
H   H38       1.0  0.38190  0.48430  0.10860  1.0000 0.1288197072
H   H39       1.0  0.38190  0.01570  0.60860  1.0000 0.1288197072
H   H40       1.0  0.61810  0.51570  0.89140  1.0000 0.1288197072
H   H41       1.0  0.04770  0.29170  0.76020  1.0000 0.1288197072
H   H42       1.0  0.95230  0.79170  0.73980  1.0000 0.1288197072
H   H43       1.0  0.95230  0.70830  0.23980  1.0000 0.1288197072
H   H44       1.0  0.04770  0.20830  0.26020  1.0000 0.1288197072
H   H45       1.0  0.05750  0.52770  0.65070  1.0000 0.1415917663
H   H46       1.0  0.94250  0.02770  0.84930  1.0000 0.1415917663
H   H47       1.0  0.94250  0.47230  0.34930  1.0000 0.1415917663
H   H48       1.0  0.05750  0.97230  0.15070  1.0000 0.1415917663
H   H49       1.0  0.71030  0.25910  0.43320  1.0000 0.1182237907
H   H50       1.0  0.28970  0.75910  0.06680  1.0000 0.1182237907
H   H51       1.0  0.28970  0.74090  0.56680  1.0000 0.1182237907
H   H52       1.0  0.71030  0.24090  0.93320  1.0000 0.1182237907
H   H53       1.0  0.60640  0.09970  0.50080  1.0000 0.1415917663
H   H54       1.0  0.39360  0.59970  0.99920  1.0000 0.1415917663
H   H55       1.0  0.39360  0.90030  0.49920  1.0000 0.1415917663
H   H56       1.0  0.60640  0.40030  0.00080  1.0000 0.1415917663
H   H57       1.0  0.48600  0.13500  0.53160  1.0000 0.1113084474
H   H58       1.0  0.51400  0.63500  0.96840  1.0000 0.1113084474
H   H59       1.0  0.51400  0.86500  0.46840  1.0000 0.1113084474
H   H60       1.0  0.48600  0.36500  0.03160  1.0000 0.1113084474
H   H61       1.0  0.36440  0.03160  0.26990  1.0000 0.1415917663
H   H62       1.0  0.63560  0.53160  0.23010  1.0000 0.1415917663
H   H63       1.0  0.63560  0.96840  0.73010  1.0000 0.1415917663
H   H64       1.0  0.36440  0.46840  0.76990  1.0000 0.1415917663
H   H65       1.0  0.11730  0.31160  0.52090  1.0000 0.1113084474
H   H66       1.0  0.88270  0.81160  0.97910  1.0000 0.1113084474
H   H67       1.0  0.88270  0.68840  0.47910  1.0000 0.1113084474
H   H68       1.0  0.11730  0.18840  0.02090  1.0000 0.1113084474
H   H69       1.0  0.24780  0.07090  0.30540  1.0000 0.1113084474
H   H70       1.0  0.75220  0.57090  0.19460  1.0000 0.1113084474
H   H71       1.0  0.75220  0.92910  0.69460  1.0000 0.1113084474
H   H72       1.0  0.24780  0.42910  0.80540  1.0000 0.1113084474
H   H73       1.0  0.17230  0.54430  0.60960  1.0000 0.1113084474
H   H74       1.0  0.82770  0.04430  0.89040  1.0000 0.1113084474
H   H75       1.0  0.82770  0.45570  0.39040  1.0000 0.1113084474
H   H76       1.0  0.17230  0.95570  0.10960  1.0000 0.1113084474
H   H77       1.0  0.99320  0.29310  0.55380  1.0000 0.1415917663
H   H78       1.0  0.00680  0.79310  0.94620  1.0000 0.1415917663
H   H79       1.0  0.00680  0.70690  0.44620  1.0000 0.1415917663
H   H80       1.0  0.99320  0.20690  0.05380  1.0000 0.1415917663
C   C1        1.0  0.05740  0.16350  0.77670  1.0000 -0.0123929737
C   C2        1.0  0.94260  0.66350  0.72330  1.0000 -0.0123929737
C   C3        1.0  0.94260  0.83650  0.22330  1.0000 -0.0123929737
C   C4        1.0  0.05740  0.33650  0.27670  1.0000 -0.0123929737
C   C5        1.0  0.91680  0.08590  0.65540  1.0000 -0.0034938693
C   C6        1.0  0.08320  0.58590  0.84460  1.0000 -0.0034938693
C   C7        1.0  0.08320  0.91410  0.34460  1.0000 -0.0034938693
C   C8        1.0  0.91680  0.41410  0.15540  1.0000 -0.0034938693
C   C9        1.0  0.15560  0.16580  0.86670  1.0000 0.5868985181
C   C10       1.0  0.84440  0.66580  0.63330  1.0000 0.5868985181
C   C11       1.0  0.84440  0.83420  0.13330  1.0000 0.5868985181
C   C12       1.0  0.15560  0.33420  0.36670  1.0000 0.5868985181
C   C13       1.0  0.86310  0.00310  0.61250  1.0000 0.5408995723
C   C14       1.0  0.13690  0.50310  0.88750  1.0000 0.5408995723
C   C15       1.0  0.13690  0.99690  0.38750  1.0000 0.5408995723
C   C16       1.0  0.86310  0.49690  0.11250  1.0000 0.5408995723
C   C17       1.0  0.60660  0.33560  0.33690  1.0000 0.0002379906
C   C18       1.0  0.39340  0.83560  0.16310  1.0000 0.0002379906
C   C19       1.0  0.39340  0.66440  0.66310  1.0000 0.0002379906
C   C20       1.0  0.60660  0.16440  0.83690  1.0000 0.0002379906
C   C21       1.0  0.01070  0.08600  0.73730  1.0000 -0.1661599601
C   C22       1.0  0.98930  0.58600  0.76270  1.0000 -0.1661599601
C   C23       1.0  0.98930  0.91400  0.26270  1.0000 -0.1661599601
C   C24       1.0  0.01070  0.41400  0.23730  1.0000 -0.1661599601
C   C25       1.0  0.64760  0.41880  0.38530  1.0000 0.5408995723
C   C26       1.0  0.35240  0.91880  0.11470  1.0000 0.5408995723
C   C27       1.0  0.35240  0.58120  0.61470  1.0000 0.5408995723
C   C28       1.0  0.64760  0.08120  0.88530  1.0000 0.5408995723
C   C29       1.0  0.52030  0.33640  0.25260  1.0000 -0.1559716077
C   C30       1.0  0.47970  0.83640  0.24740  1.0000 -0.1559716077
C   C31       1.0  0.47970  0.66360  0.74740  1.0000 -0.1559716077
C   C32       1.0  0.52030  0.16360  0.75260  1.0000 -0.1559716077
C   C33       1.0  0.93330  0.39800  0.63510  1.0000 -0.1368295258
C   C34       1.0  0.06670  0.89800  0.86490  1.0000 -0.1368295258
C   C35       1.0  0.06670  0.60200  0.36490  1.0000 -0.1368295258
C   C36       1.0  0.93330  0.10200  0.13510  1.0000 -0.1368295258
C   C37       1.0  0.47890  0.26040  0.20900  1.0000 -0.0123929737
C   C38       1.0  0.52110  0.76040  0.29100  1.0000 -0.0123929737
C   C39       1.0  0.52110  0.73960  0.79100  1.0000 -0.0123929737
C   C40       1.0  0.47890  0.23960  0.70900  1.0000 -0.0123929737
C   C41       1.0  0.61270  0.18020  0.33380  1.0000 0.2344509078
C   C42       1.0  0.38730  0.68020  0.16620  1.0000 0.2344509078
C   C43       1.0  0.38730  0.81980  0.66620  1.0000 0.2344509078
C   C44       1.0  0.61270  0.31980  0.83380  1.0000 0.2344509078
C   C45       1.0  0.52270  0.18260  0.24910  1.0000 -0.1992952818
C   C46       1.0  0.47730  0.68260  0.25090  1.0000 -0.1992952818
C   C47       1.0  0.47730  0.81740  0.75090  1.0000 -0.1992952818
C   C48       1.0  0.52270  0.31740  0.74910  1.0000 -0.1992952818
C   C49       1.0  0.87430  0.16400  0.61500  1.0000 -0.2217787901
C   C50       1.0  0.12570  0.66400  0.88500  1.0000 -0.2217787901
C   C51       1.0  0.12570  0.83600  0.38500  1.0000 -0.2217787901
C   C52       1.0  0.87430  0.33600  0.11500  1.0000 -0.2217787901
C   C53       1.0  0.57870  0.03460  0.35890  1.0000 -0.1368295258
C   C54       1.0  0.42130  0.53460  0.14110  1.0000 -0.1368295258
C   C55       1.0  0.42130  0.96540  0.64110  1.0000 -0.1368295258
C   C56       1.0  0.57870  0.46540  0.85890  1.0000 -0.1368295258
C   C57       1.0  0.01400  0.24030  0.73410  1.0000 -0.1992952818
C   C58       1.0  0.98600  0.74030  0.76590  1.0000 -0.1992952818
C   C59       1.0  0.98600  0.75970  0.26590  1.0000 -0.1992952818
C   C60       1.0  0.01400  0.25970  0.23410  1.0000 -0.1992952818
C   C61       1.0  0.92120  0.24180  0.65310  1.0000 0.2172643816
C   C62       1.0  0.07880  0.74180  0.84690  1.0000 0.2172643816
C   C63       1.0  0.07880  0.75820  0.34690  1.0000 0.2172643816
C   C64       1.0  0.92120  0.25820  0.15310  1.0000 0.2172643816
C   C65       1.0  0.06760  0.48270  0.62360  1.0000 -0.2066013725
C   C66       1.0  0.93240  0.98270  0.87640  1.0000 -0.2066013725
C   C67       1.0  0.93240  0.51730  0.37640  1.0000 -0.2066013725
C   C68       1.0  0.06760  0.01730  0.12360  1.0000 -0.2066013725
C   C69       1.0  0.38260  0.26020  0.11880  1.0000 0.5816082334
C   C70       1.0  0.61740  0.76020  0.38120  1.0000 0.5816082334
C   C71       1.0  0.61740  0.73980  0.88120  1.0000 0.5816082334
C   C72       1.0  0.38260  0.23980  0.61880  1.0000 0.5816082334
C   C73       1.0  0.01100  0.40670  0.60800  1.0000 0.1522239869
C   C74       1.0  0.98900  0.90670  0.89200  1.0000 0.1522239869
C   C75       1.0  0.98900  0.59330  0.39200  1.0000 0.1522239869
C   C76       1.0  0.01100  0.09330  0.10800  1.0000 0.1522239869
C   C77       1.0  0.65250  0.25900  0.37710  1.0000 -0.227995711
C   C78       1.0  0.34750  0.75900  0.12290  1.0000 -0.227995711
C   C79       1.0  0.34750  0.74100  0.62290  1.0000 -0.227995711
C   C80       1.0  0.65250  0.24100  0.87710  1.0000 -0.227995711
C   C81       1.0  0.50010  0.05950  0.38140  1.0000 0.1415917663
C   C82       1.0  0.49990  0.55950  0.11860  1.0000 0.1415917663
C   C83       1.0  0.49990  0.94050  0.61860  1.0000 0.1415917663
C   C84       1.0  0.50010  0.44050  0.88140  1.0000 0.1415917663
C   C85       1.0  0.53350  0.09250  0.46010  1.0000 -0.1992952818
C   C86       1.0  0.46650  0.59250  0.03990  1.0000 -0.1992952818
C   C87       1.0  0.46650  0.90750  0.53990  1.0000 -0.1992952818
C   C88       1.0  0.53350  0.40750  0.96010  1.0000 -0.1992952818
C   C89       1.0  0.46000  0.11430  0.47770  1.0000 0.0722073516
C   C90       1.0  0.54000  0.61430  0.02230  1.0000 0.0722073516
C   C91       1.0  0.54000  0.88570  0.52230  1.0000 0.0722073516
C   C92       1.0  0.46000  0.38570  0.97770  1.0000 0.0722073516
C   C93       1.0  0.39090  0.05260  0.32380  1.0000 -0.1992952818
C   C94       1.0  0.60910  0.55260  0.17620  1.0000 -0.1992952818
C   C95       1.0  0.60910  0.94740  0.67620  1.0000 -0.1992952818
C   C96       1.0  0.39090  0.44740  0.82380  1.0000 -0.1992952818
C   C97       1.0  0.10480  0.35640  0.54670  1.0000 0.0813202554
C   C98       1.0  0.89520  0.85640  0.95330  1.0000 0.0813202554
C   C99       1.0  0.89520  0.64360  0.45330  1.0000 0.0813202554
C   C100      1.0  0.10480  0.14360  0.04670  1.0000 0.0813202554
C   C101      1.0  0.32100  0.07650  0.34570  1.0000 0.0589667008
C   C102      1.0  0.67900  0.57650  0.15430  1.0000 0.0589667008
C   C103      1.0  0.67900  0.92350  0.65430  1.0000 0.0589667008
C   C104      1.0  0.32100  0.42350  0.84570  1.0000 0.0589667008
C   C105      1.0  0.13740  0.49190  0.59950  1.0000 0.0589667008
C   C106      1.0  0.86260  0.99190  0.90050  1.0000 0.0589667008
C   C107      1.0  0.86260  0.50810  0.40050  1.0000 0.0589667008
C   C108      1.0  0.13740  0.00810  0.09950  1.0000 0.0589667008
C   C109      1.0  0.03060  0.34460  0.56750  1.0000 -0.1992952818
C   C110      1.0  0.96940  0.84460  0.93250  1.0000 -0.1992952818
C   C111      1.0  0.96940  0.65540  0.43250  1.0000 -0.1992952818
C   C112      1.0  0.03060  0.15540  0.06750  1.0000 -0.1992952818
N   N1        1.0  0.35240  0.10840  0.42360  1.0000 -0.2662163699
N   N2        1.0  0.64760  0.60840  0.07640  1.0000 -0.2662163699
N   N3        1.0  0.64760  0.89160  0.57640  1.0000 -0.2662163699
N   N4        1.0  0.35240  0.39160  0.92360  1.0000 -0.2662163699
N   N5        1.0  0.65680  0.10300  0.37450  1.0000 -0.301018166
N   N6        1.0  0.34320  0.60300  0.12550  1.0000 -0.301018166
N   N7        1.0  0.34320  0.89700  0.62550  1.0000 -0.301018166
N   N8        1.0  0.65680  0.39700  0.87450  1.0000 -0.301018166
N   N9        1.0  0.87470  0.31800  0.61190  1.0000 -0.3128923724
N   N10       1.0  0.12530  0.81800  0.88810  1.0000 -0.3128923724
N   N11       1.0  0.12530  0.68200  0.38810  1.0000 -0.3128923724
N   N12       1.0  0.87470  0.18200  0.11190  1.0000 -0.3128923724
N   N13       1.0  0.15960  0.42960  0.56200  1.0000 -0.2556070486
N   N14       1.0  0.84040  0.92960  0.93800  1.0000 -0.2556070486
N   N15       1.0  0.84040  0.57040  0.43800  1.0000 -0.2556070486
N   N16       1.0  0.15960  0.07040  0.06200  1.0000 -0.2556070486
O   O1        1.0  0.89140  0.93490  0.65430  1.0000 -0.5493539149
O   O2        1.0  0.10860  0.43490  0.84570  1.0000 -0.5493539149
O   O3        1.0  0.10860  0.06510  0.34570  1.0000 -0.5493539149
O   O4        1.0  0.89140  0.56510  0.15430  1.0000 -0.5493539149
O   O5        1.0  0.60850  0.48900  0.34640  1.0000 -0.5611709381
O   O6        1.0  0.39150  0.98900  0.15360  1.0000 -0.5611709381
O   O7        1.0  0.39150  0.51100  0.65360  1.0000 -0.5611709381
O   O8        1.0  0.60850  0.01100  0.84640  1.0000 -0.5611709381
O   O9        1.0  0.71920  0.41750  0.46330  1.0000 -0.5710380648
O   O10       1.0  0.28080  0.91750  0.03670  1.0000 -0.5710380648
O   O11       1.0  0.28080  0.58250  0.53670  1.0000 -0.5710380648
O   O12       1.0  0.71920  0.08250  0.96330  1.0000 -0.5710380648
O   O13       1.0  0.35590  0.33050  0.08120  1.0000 -0.5493539149
O   O14       1.0  0.64410  0.83050  0.41880  1.0000 -0.5493539149
O   O15       1.0  0.64410  0.66950  0.91880  1.0000 -0.5493539149
O   O16       1.0  0.35590  0.16950  0.58120  1.0000 -0.5493539149
O   O17       1.0  0.78970  0.00360  0.53510  1.0000 -0.5710380648
O   O18       1.0  0.21030  0.50360  0.96490  1.0000 -0.5710380648
O   O19       1.0  0.21030  0.99640  0.46490  1.0000 -0.5710380648
O   O20       1.0  0.78970  0.49640  0.03510  1.0000 -0.5710380648
O   O21       1.0  0.18440  0.09520  0.90680  1.0000 -0.5710380648
O   O22       1.0  0.81560  0.59520  0.59320  1.0000 -0.5710380648
O   O23       1.0  0.81560  0.90480  0.09320  1.0000 -0.5710380648
O   O24       1.0  0.18440  0.40480  0.40680  1.0000 -0.5710380648
O   O25       1.0  0.20160  0.23540  0.89480  1.0000 -0.5493539149
O   O26       1.0  0.79840  0.73540  0.60520  1.0000 -0.5493539149
O   O27       1.0  0.79840  0.76460  0.10520  1.0000 -0.5493539149
O   O28       1.0  0.20160  0.26460  0.39480  1.0000 -0.5493539149
O   O29       1.0  0.33480  0.19220  0.08980  1.0000 -0.5493539149
O   O30       1.0  0.66520  0.69220  0.41020  1.0000 -0.5493539149
O   O31       1.0  0.66520  0.80780  0.91020  1.0000 -0.5493539149
O   O32       1.0  0.33480  0.30780  0.58980  1.0000 -0.5493539149
