# DDEC6 charges by PACMAN v1.1 (https://github.com/mtap-research/PACMAN-charge/)
data_2009[Cd][sqc]3[ASR]2
_chemical_formula_sum              "Cd2 H66 C66 N24"
_cell_length_a       13.2642
_cell_length_b       13.2642
_cell_length_c       13.2642
_cell_angle_alpha    106.226
_cell_angle_beta     106.226
_cell_angle_gamma    106.226

_symmetry_space_group_name_H-M    "P 1"
_symmetry_Int_Tables_number       1

loop_
  _symmetry_equiv_pos_as_xyz
  'x, y, z'

loop_
  _atom_site_type_symbol
  _atom_site_label
  _atom_site_symmetry_multiplicity
  _atom_site_fract_x
  _atom_site_fract_y
  _atom_site_fract_z
  _atom_site_occupancy
  _atom_site_charge
Cd  Cd1       1.0  0.00000  0.00000  0.00000  1.0000 0.6808559812
Cd  Cd2       1.0  0.50000  0.50000  0.50000  1.0000 0.6864492215
H   H1        1.0  0.51170  0.35440  0.86380  1.0000 0.1084513741
H   H2        1.0  0.35440  0.86380  0.51170  1.0000 0.1084513741
H   H3        1.0  0.86380  0.51170  0.35440  1.0000 0.1084513741
H   H4        1.0  0.48830  0.64560  0.13620  1.0000 0.1084513741
H   H5        1.0  0.64560  0.13620  0.48830  1.0000 0.1084513741
H   H6        1.0  0.13620  0.48830  0.64560  1.0000 0.1084513741
H   H7        1.0  0.33000  0.23680  0.80730  1.0000 0.1084513741
H   H8        1.0  0.23680  0.80730  0.33000  1.0000 0.1084513741
H   H9        1.0  0.80730  0.33000  0.23680  1.0000 0.1084513741
H   H10       1.0  0.67000  0.76320  0.19270  1.0000 0.1084513741
H   H11       1.0  0.76320  0.19270  0.67000  1.0000 0.1084513741
H   H12       1.0  0.19270  0.67000  0.76320  1.0000 0.1084513741
H   H13       1.0  0.24110  0.29460  0.82190  1.0000 0.1007149696
H   H14       1.0  0.29460  0.82190  0.24110  1.0000 0.1007149696
H   H15       1.0  0.82190  0.24110  0.29460  1.0000 0.1007149696
H   H16       1.0  0.75890  0.70540  0.17810  1.0000 0.1007149696
H   H17       1.0  0.70540  0.17810  0.75890  1.0000 0.1007149696
H   H18       1.0  0.17810  0.75890  0.70540  1.0000 0.1007149696
H   H19       1.0  0.10270  0.15630  0.86340  1.0000 0.1007149696
H   H20       1.0  0.15630  0.86340  0.10270  1.0000 0.1007149696
H   H21       1.0  0.86340  0.10270  0.15630  1.0000 0.1007149696
H   H22       1.0  0.89730  0.84370  0.13660  1.0000 0.1007149696
H   H23       1.0  0.84370  0.13660  0.89730  1.0000 0.1007149696
H   H24       1.0  0.13660  0.89730  0.84370  1.0000 0.1007149696
H   H25       1.0  0.30520  0.11070  0.11180  1.0000 0.1084513741
H   H26       1.0  0.11070  0.11180  0.30520  1.0000 0.1084513741
H   H27       1.0  0.11180  0.30520  0.11070  1.0000 0.1084513741
H   H28       1.0  0.69480  0.88930  0.88820  1.0000 0.1084513741
H   H29       1.0  0.88930  0.88820  0.69480  1.0000 0.1084513741
H   H30       1.0  0.88820  0.69480  0.88930  1.0000 0.1084513741
H   H31       1.0  0.42880  0.23250  0.04700  1.0000 0.1163846321
H   H32       1.0  0.23250  0.04700  0.42880  1.0000 0.1163846321
H   H33       1.0  0.04700  0.42880  0.23250  1.0000 0.1163846321
H   H34       1.0  0.57120  0.76750  0.95300  1.0000 0.1163846321
H   H35       1.0  0.76750  0.95300  0.57120  1.0000 0.1163846321
H   H36       1.0  0.95300  0.57120  0.76750  1.0000 0.1163846321
H   H37       1.0  0.23440  0.39400  0.99830  1.0000 0.1007149696
H   H38       1.0  0.39400  0.99830  0.23440  1.0000 0.1007149696
H   H39       1.0  0.99830  0.23440  0.39400  1.0000 0.1007149696
H   H40       1.0  0.76560  0.60600  0.00170  1.0000 0.1007149696
H   H41       1.0  0.60600  0.00170  0.76560  1.0000 0.1007149696
H   H42       1.0  0.00170  0.76560  0.60600  1.0000 0.1007149696
H   H43       1.0  0.25890  0.52400  0.01450  1.0000 0.1084513741
H   H44       1.0  0.52400  0.01450  0.25890  1.0000 0.1084513741
H   H45       1.0  0.01450  0.25890  0.52400  1.0000 0.1084513741
H   H46       1.0  0.74110  0.47600  0.98550  1.0000 0.1084513741
H   H47       1.0  0.47600  0.98550  0.74110  1.0000 0.1084513741
H   H48       1.0  0.98550  0.74110  0.47600  1.0000 0.1084513741
H   H49       1.0  0.41010  0.41760  0.21420  1.0000 0.1007149696
H   H50       1.0  0.41760  0.21420  0.41010  1.0000 0.1007149696
H   H51       1.0  0.21420  0.41010  0.41760  1.0000 0.1007149696
H   H52       1.0  0.58990  0.58240  0.78580  1.0000 0.1007149696
H   H53       1.0  0.58240  0.78580  0.58990  1.0000 0.1007149696
H   H54       1.0  0.78580  0.58990  0.58240  1.0000 0.1007149696
H   H55       1.0  0.30580  0.62400  0.39560  1.0000 0.1084513741
H   H56       1.0  0.62400  0.39560  0.30580  1.0000 0.1084513741
H   H57       1.0  0.39560  0.30580  0.62400  1.0000 0.1084513741
H   H58       1.0  0.69420  0.37600  0.60440  1.0000 0.1084513741
H   H59       1.0  0.37600  0.60440  0.69420  1.0000 0.1084513741
H   H60       1.0  0.60440  0.69420  0.37600  1.0000 0.1084513741
H   H61       1.0  0.23040  0.61270  0.19880  1.0000 0.1084513741
H   H62       1.0  0.61270  0.19880  0.23040  1.0000 0.1084513741
H   H63       1.0  0.19880  0.23040  0.61270  1.0000 0.1084513741
H   H64       1.0  0.76960  0.38730  0.80120  1.0000 0.1084513741
H   H65       1.0  0.38730  0.80120  0.76960  1.0000 0.1084513741
H   H66       1.0  0.80120  0.76960  0.38730  1.0000 0.1084513741
C   C1        1.0  0.40532  0.39594  0.93683  1.0000 0.0391738052
C   C2        1.0  0.39594  0.93683  0.40532  1.0000 0.0391738052
C   C3        1.0  0.93683  0.40532  0.39594  1.0000 0.0391738052
C   C4        1.0  0.59468  0.60406  0.06317  1.0000 0.0391738052
C   C5        1.0  0.60406  0.06317  0.59468  1.0000 0.0391738052
C   C6        1.0  0.06317  0.59468  0.60406  1.0000 0.0391738052
C   C7        1.0  0.39833  0.48267  0.01855  1.0000 0.0502888584
C   C8        1.0  0.48267  0.01855  0.39833  1.0000 0.0502888584
C   C9        1.0  0.01855  0.39833  0.48267  1.0000 0.0502888584
C   C10       1.0  0.60167  0.51733  0.98145  1.0000 0.0502888584
C   C11       1.0  0.51733  0.98145  0.60167  1.0000 0.0502888584
C   C12       1.0  0.98145  0.60167  0.51733  1.0000 0.0502888584
C   C13       1.0  0.50671  0.41388  0.91932  1.0000 -0.2573231392
C   C14       1.0  0.41388  0.91932  0.50671  1.0000 -0.2573231392
C   C15       1.0  0.91932  0.50671  0.41388  1.0000 -0.2573231392
C   C16       1.0  0.49329  0.58612  0.08068  1.0000 -0.2573231392
C   C17       1.0  0.58612  0.08068  0.49329  1.0000 -0.2573231392
C   C18       1.0  0.08068  0.49329  0.58612  1.0000 -0.2573231392
C   C19       1.0  0.30787  0.28221  0.86391  1.0000 -0.1941872744
C   C20       1.0  0.28221  0.86391  0.30787  1.0000 -0.1941872744
C   C21       1.0  0.86391  0.30787  0.28221  1.0000 -0.1941872744
C   C22       1.0  0.69213  0.71779  0.13609  1.0000 -0.1941872744
C   C23       1.0  0.71779  0.13609  0.69213  1.0000 -0.1941872744
C   C24       1.0  0.13609  0.69213  0.71779  1.0000 -0.1941872744
C   C25       1.0  0.16895  0.15983  0.91824  1.0000 0.0391738052
C   C26       1.0  0.15983  0.91824  0.16895  1.0000 0.0391738052
C   C27       1.0  0.91824  0.16895  0.15983  1.0000 0.0391738052
C   C28       1.0  0.83105  0.84017  0.08176  1.0000 0.0391738052
C   C29       1.0  0.84017  0.08176  0.83105  1.0000 0.0391738052
C   C30       1.0  0.08176  0.83105  0.84017  1.0000 0.0391738052
C   C31       1.0  0.27933  0.13556  0.05251  1.0000 -0.0695393019
C   C32       1.0  0.13556  0.05251  0.27933  1.0000 -0.0695393019
C   C33       1.0  0.05251  0.27933  0.13556  1.0000 -0.0695393019
C   C34       1.0  0.72067  0.86444  0.94749  1.0000 -0.0695393019
C   C35       1.0  0.86444  0.94749  0.72067  1.0000 -0.0695393019
C   C36       1.0  0.94749  0.72067  0.86444  1.0000 -0.0695393019
C   C37       1.0  0.34783  0.20248  0.01789  1.0000 -0.1365188442
C   C38       1.0  0.20248  0.01789  0.34783  1.0000 -0.1365188442
C   C39       1.0  0.01789  0.34783  0.20248  1.0000 -0.1365188442
C   C40       1.0  0.65217  0.79752  0.98211  1.0000 -0.1365188442
C   C41       1.0  0.79752  0.98211  0.65217  1.0000 -0.1365188442
C   C42       1.0  0.98211  0.65217  0.79752  1.0000 -0.1365188442
C   C43       1.0  0.29138  0.47318  0.04163  1.0000 -0.1837634924
C   C44       1.0  0.47318  0.04163  0.29138  1.0000 -0.1837634924
C   C45       1.0  0.04163  0.29138  0.47318  1.0000 -0.1837634924
C   C46       1.0  0.70862  0.52682  0.95837  1.0000 -0.1837634924
C   C47       1.0  0.52682  0.95837  0.70862  1.0000 -0.1837634924
C   C48       1.0  0.95837  0.70862  0.52682  1.0000 -0.1837634924
C   C49       1.0  0.37519  0.46896  0.23585  1.0000 0.0502888584
C   C50       1.0  0.46896  0.23585  0.37519  1.0000 0.0502888584
C   C51       1.0  0.23585  0.37519  0.46896  1.0000 0.0502888584
C   C52       1.0  0.62481  0.53104  0.76415  1.0000 0.0502888584
C   C53       1.0  0.53104  0.76415  0.62481  1.0000 0.0502888584
C   C54       1.0  0.76415  0.62481  0.53104  1.0000 0.0502888584
C   C55       1.0  0.31804  0.58040  0.33333  1.0000 -0.0695393019
C   C56       1.0  0.58040  0.33333  0.31804  1.0000 -0.0695393019
C   C57       1.0  0.33333  0.31804  0.58040  1.0000 -0.0695393019
C   C58       1.0  0.68196  0.41960  0.66667  1.0000 -0.0695393019
C   C59       1.0  0.41960  0.66667  0.68196  1.0000 -0.0695393019
C   C60       1.0  0.66667  0.68196  0.41960  1.0000 -0.0695393019
C   C61       1.0  0.27655  0.57491  0.22584  1.0000 -0.150141692
C   C62       1.0  0.57491  0.22584  0.27655  1.0000 -0.150141692
C   C63       1.0  0.22584  0.27655  0.57491  1.0000 -0.150141692
C   C64       1.0  0.72345  0.42509  0.77416  1.0000 -0.150141692
C   C65       1.0  0.42509  0.77416  0.72345  1.0000 -0.150141692
C   C66       1.0  0.77416  0.72345  0.42509  1.0000 -0.150141692
N   N1        1.0  0.27599  0.21780  0.93215  1.0000 0.0347716689
N   N2        1.0  0.21780  0.93215  0.27599  1.0000 0.0347716689
N   N3        1.0  0.93215  0.27599  0.21780  1.0000 0.0347716689
N   N4        1.0  0.72401  0.78220  0.06785  1.0000 0.0347716689
N   N5        1.0  0.78220  0.06785  0.72401  1.0000 0.0347716689
N   N6        1.0  0.06785  0.72401  0.78220  1.0000 0.0347716689
N   N7        1.0  0.16702  0.10877  0.98953  1.0000 -0.2966052972
N   N8        1.0  0.10877  0.98953  0.16702  1.0000 -0.2966052972
N   N9        1.0  0.98953  0.16702  0.10877  1.0000 -0.2966052972
N   N10       1.0  0.83298  0.89123  0.01047  1.0000 -0.2966052972
N   N11       1.0  0.89123  0.01047  0.83298  1.0000 -0.2966052972
N   N12       1.0  0.01047  0.83298  0.89123  1.0000 -0.2966052972
N   N13       1.0  0.31397  0.50412  0.16384  1.0000 0.0391738052
N   N14       1.0  0.50412  0.16384  0.31397  1.0000 0.0391738052
N   N15       1.0  0.16384  0.31397  0.50412  1.0000 0.0391738052
N   N16       1.0  0.68603  0.49588  0.83616  1.0000 0.0391738052
N   N17       1.0  0.49588  0.83616  0.68603  1.0000 0.0347716689
N   N18       1.0  0.83616  0.68603  0.49588  1.0000 0.0391738052
N   N19       1.0  0.38036  0.51451  0.33975  1.0000 -0.2923557245
N   N20       1.0  0.51451  0.33975  0.38036  1.0000 -0.2923557245
N   N21       1.0  0.33975  0.38036  0.51451  1.0000 -0.2923557245
N   N22       1.0  0.61964  0.48549  0.66025  1.0000 -0.2923557245
N   N23       1.0  0.48549  0.66025  0.61964  1.0000 -0.2923557245
N   N24       1.0  0.66025  0.61964  0.48549  1.0000 -0.2923557245
