# DDEC6 charges by PACMAN v1.1 (https://github.com/mtap-research/PACMAN-charge/)
data_2009[Nd][nan]3[ASR]2
_chemical_formula_sum              "Nd4 H28 C56 N4 O28"
_cell_length_a       9.097
_cell_length_b       17.877
_cell_length_c       10.923
_cell_angle_alpha    90
_cell_angle_beta     111.264
_cell_angle_gamma    90

_symmetry_space_group_name_H-M    "P 1"
_symmetry_Int_Tables_number       1

loop_
  _symmetry_equiv_pos_as_xyz
  'x, y, z'

loop_
  _atom_site_type_symbol
  _atom_site_label
  _atom_site_symmetry_multiplicity
  _atom_site_fract_x
  _atom_site_fract_y
  _atom_site_fract_z
  _atom_site_occupancy
  _atom_site_charge
Nd  Nd1       1.0  0.43230  0.69867  0.39299  1.0000 2.118451723
Nd  Nd2       1.0  0.06770  0.19867  0.60701  1.0000 2.118451723
Nd  Nd3       1.0  0.56770  0.30133  0.60701  1.0000 2.118451723
Nd  Nd4       1.0  0.93230  0.80133  0.39299  1.0000 2.118451723
H   H1        1.0  0.20360  0.45020  0.17750  1.0000 0.13939608
H   H2        1.0  0.29640  0.95020  0.82250  1.0000 0.13939608
H   H3        1.0  0.79640  0.54980  0.82250  1.0000 0.13939608
H   H4        1.0  0.70360  0.04980  0.17750  1.0000 0.13939608
H   H5        1.0  0.96270  0.62790  0.98130  1.0000 0.13939608
H   H6        1.0  0.53730  0.12790  0.01870  1.0000 0.13939608
H   H7        1.0  0.03730  0.37210  0.01870  1.0000 0.13939608
H   H8        1.0  0.46270  0.87210  0.98130  1.0000 0.13939608
H   H9        1.0  0.44900  0.47210  0.87210  1.0000 0.1211223724
H   H10       1.0  0.05100  0.97210  0.12790  1.0000 0.1211223724
H   H11       1.0  0.55100  0.52790  0.12790  1.0000 0.1211223724
H   H12       1.0  0.94900  0.02790  0.87210  1.0000 0.1211223724
H   H13       1.0  0.12760  0.63350  0.77160  1.0000 0.1304839189
H   H14       1.0  0.37240  0.13350  0.22840  1.0000 0.1304839189
H   H15       1.0  0.87240  0.36650  0.22840  1.0000 0.1304839189
H   H16       1.0  0.62760  0.86650  0.77160  1.0000 0.1304839189
H   H17       1.0  0.24530  0.53330  0.90690  1.0000 0.1211223724
H   H18       1.0  0.25470  0.03330  0.09310  1.0000 0.1211223724
H   H19       1.0  0.75470  0.46670  0.09310  1.0000 0.1211223724
H   H20       1.0  0.74530  0.96670  0.90690  1.0000 0.1211223724
H   H21       1.0  0.79300  0.52250  0.57130  1.0000 0.13939608
H   H22       1.0  0.70700  0.02250  0.42870  1.0000 0.13939608
H   H23       1.0  0.20700  0.47750  0.42870  1.0000 0.13939608
H   H24       1.0  0.29300  0.97750  0.57130  1.0000 0.13939608
H   H25       1.0  0.04090  0.57820  0.34660  1.0000 0.1304839189
H   H26       1.0  0.45910  0.07820  0.65340  1.0000 0.1304839189
H   H27       1.0  0.95910  0.42180  0.65340  1.0000 0.1304839189
H   H28       1.0  0.54090  0.92180  0.34660  1.0000 0.1304839189
C   C1        1.0  0.89920  0.56053  0.44950  1.0000 -0.021112292
C   C2        1.0  0.60080  0.06053  0.55050  1.0000 -0.021112292
C   C3        1.0  0.10080  0.43947  0.55050  1.0000 -0.021112292
C   C4        1.0  0.39920  0.93947  0.44950  1.0000 -0.021112292
C   C5        1.0  0.26430  0.63432  0.66460  1.0000 -0.2028548037
C   C6        1.0  0.23570  0.13432  0.33540  1.0000 -0.2028548037
C   C7        1.0  0.73570  0.36568  0.33540  1.0000 -0.2028548037
C   C8        1.0  0.76430  0.86568  0.66460  1.0000 -0.2028548037
C   C9        1.0  0.39550  0.59713  0.64680  1.0000 0.509207585
C   C10       1.0  0.10450  0.09713  0.35320  1.0000 0.509207585
C   C11       1.0  0.60450  0.40287  0.35320  1.0000 0.509207585
C   C12       1.0  0.89550  0.90287  0.64680  1.0000 0.509207585
C   C13       1.0  0.10020  0.54731  0.09590  1.0000 -0.021112292
C   C14       1.0  0.39980  0.04731  0.90410  1.0000 -0.021112292
C   C15       1.0  0.89980  0.45269  0.90410  1.0000 -0.0148218524
C   C16       1.0  0.60020  0.95269  0.09590  1.0000 -0.0148218524
C   C17       1.0  0.20930  0.59872  0.19680  1.0000 0.5476432528
C   C18       1.0  0.29070  0.09872  0.80320  1.0000 0.5476432528
C   C19       1.0  0.79070  0.40128  0.80320  1.0000 0.5476432528
C   C20       1.0  0.70930  0.90128  0.19680  1.0000 0.5476432528
C   C21       1.0  0.12200  0.47039  0.10640  1.0000 -0.0981311005
C   C22       1.0  0.37800  0.97039  0.89360  1.0000 -0.0981311005
C   C23       1.0  0.87800  0.52961  0.89360  1.0000 -0.0981311005
C   C24       1.0  0.62200  0.02961  0.10640  1.0000 -0.0981311005
C   C25       1.0  0.97780  0.57642  0.98900  1.0000 -0.1053169583
C   C26       1.0  0.52220  0.07642  0.01100  1.0000 -0.1053169583
C   C27       1.0  0.02220  0.42358  0.01100  1.0000 -0.1053169583
C   C28       1.0  0.47780  0.92358  0.98900  1.0000 -0.1053169583
C   C29       1.0  0.40220  0.51330  0.82100  1.0000 0.0934697028
C   C30       1.0  0.09780  0.01330  0.17900  1.0000 0.0934697028
C   C31       1.0  0.59780  0.48670  0.17900  1.0000 0.0934697028
C   C32       1.0  0.90220  0.98670  0.82100  1.0000 0.0934697028
C   C33       1.0  0.17700  0.69543  0.57390  1.0000 0.6368100132
C   C34       1.0  0.32300  0.19543  0.42610  1.0000 0.6368100132
C   C35       1.0  0.82300  0.30457  0.42610  1.0000 0.6368100132
C   C36       1.0  0.67700  0.80457  0.57390  1.0000 0.6368100132
C   C37       1.0  0.21220  0.60920  0.76030  1.0000 -0.021112292
C   C38       1.0  0.28780  0.10920  0.23970  1.0000 -0.021112292
C   C39       1.0  0.78780  0.39080  0.23970  1.0000 -0.021112292
C   C40       1.0  0.71220  0.89080  0.76030  1.0000 -0.021112292
C   C41       1.0  0.28110  0.54880  0.84130  1.0000 -0.1812396971
C   C42       1.0  0.21890  0.04880  0.15870  1.0000 -0.1812396971
C   C43       1.0  0.71890  0.45120  0.15870  1.0000 -0.1812396971
C   C44       1.0  0.78110  0.95120  0.84130  1.0000 -0.1812396971
C   C45       1.0  0.87580  0.51353  0.54240  1.0000 -0.0929152582
C   C46       1.0  0.62420  0.01353  0.45760  1.0000 -0.0929152582
C   C47       1.0  0.12420  0.48647  0.45760  1.0000 -0.0929152582
C   C48       1.0  0.37580  0.98647  0.54240  1.0000 -0.0929152582
C   C49       1.0  0.02420  0.54674  0.40810  1.0000 -0.0981311005
C   C50       1.0  0.47580  0.04674  0.59190  1.0000 -0.0981311005
C   C51       1.0  0.97580  0.45326  0.59190  1.0000 -0.0981311005
C   C52       1.0  0.52420  0.95326  0.40810  1.0000 -0.0981311005
C   C53       1.0  0.79100  0.62604  0.39550  1.0000 0.6461405988
C   C54       1.0  0.70900  0.12604  0.60450  1.0000 0.6461405988
C   C55       1.0  0.20900  0.37396  0.60450  1.0000 0.6461405988
C   C56       1.0  0.29100  0.87396  0.39550  1.0000 0.6461405988
N   N1        1.0  0.45550  0.53729  0.72720  1.0000 -0.2890006666
N   N2        1.0  0.04450  0.03729  0.27280  1.0000 -0.2890006666
N   N3        1.0  0.54450  0.46271  0.27280  1.0000 -0.2890006666
N   N4        1.0  0.95550  0.96271  0.72720  1.0000 -0.2890006666
O   O1        1.0  0.66240  0.62657  0.41160  1.0000 -0.634204856
O   O2        1.0  0.83760  0.12657  0.58840  1.0000 -0.634204856
O   O3        1.0  0.33760  0.37343  0.58840  1.0000 -0.634204856
O   O4        1.0  0.16240  0.87343  0.41160  1.0000 -0.634204856
O   O5        1.0  0.20730  0.71224  0.47310  1.0000 -0.6895962422
O   O6        1.0  0.29270  0.21224  0.52690  1.0000 -0.6895962422
O   O7        1.0  0.79270  0.28776  0.52690  1.0000 -0.6895962422
O   O8        1.0  0.70730  0.78776  0.47310  1.0000 -0.6895962422
O   O9        1.0  0.17220  0.66562  0.20130  1.0000 -0.6043039276
O   O10       1.0  0.32780  0.16562  0.79870  1.0000 -0.6051826988
O   O11       1.0  0.82780  0.33438  0.79870  1.0000 -0.6051826988
O   O12       1.0  0.67220  0.83438  0.20130  1.0000 -0.6043039276
O   O13       1.0  0.45840  0.61286  0.56570  1.0000 -0.5570279871
O   O14       1.0  0.04160  0.11286  0.43430  1.0000 -0.5570279871
O   O15       1.0  0.54160  0.38714  0.43430  1.0000 -0.5570279871
O   O16       1.0  0.95840  0.88714  0.56570  1.0000 -0.5570279871
O   O17       1.0  0.33760  0.57401  0.27610  1.0000 -0.5868393545
O   O18       1.0  0.16240  0.07401  0.72390  1.0000 -0.5868393545
O   O19       1.0  0.66240  0.42599  0.72390  1.0000 -0.5868393545
O   O20       1.0  0.83760  0.92599  0.27610  1.0000 -0.5868393545
O   O21       1.0  0.83680  0.67592  0.33520  1.0000 -0.6686267768
O   O22       1.0  0.66320  0.17592  0.66480  1.0000 -0.6686267768
O   O23       1.0  0.16320  0.32408  0.66480  1.0000 -0.6686267768
O   O24       1.0  0.33680  0.82408  0.33520  1.0000 -0.6686267768
O   O25       1.0  0.06780  0.72809  0.59790  1.0000 -0.6043039276
O   O26       1.0  0.43220  0.22809  0.40210  1.0000 -0.6043039276
O   O27       1.0  0.93220  0.27191  0.40210  1.0000 -0.6043039276
O   O28       1.0  0.56780  0.77191  0.59790  1.0000 -0.6043039276
