# DDEC6 charges by PACMAN v1.1 (https://github.com/mtap-research/PACMAN-charge/)
data_2009[ZnCd][nan]3[ASR]1
_chemical_formula_sum              "Zn14 Cd4 P12 H108 C72 N12 O60"
_cell_length_a       13.5874
_cell_length_b       13.5874
_cell_length_c       25.818
_cell_angle_alpha    74.3346
_cell_angle_beta     105.665
_cell_angle_gamma    107.979

_symmetry_space_group_name_H-M    "P 1"
_symmetry_Int_Tables_number       1

loop_
  _symmetry_equiv_pos_as_xyz
  'x, y, z'

loop_
  _atom_site_type_symbol
  _atom_site_label
  _atom_site_symmetry_multiplicity
  _atom_site_fract_x
  _atom_site_fract_y
  _atom_site_fract_z
  _atom_site_occupancy
  _atom_site_charge
Zn  Zn1       1.0  0.11331  0.27251  0.05254  1.0000 0.9526264276
Zn  Zn2       1.0  0.27251  0.11331  0.44746  1.0000 0.9526264276
Zn  Zn3       1.0  0.88669  0.72749  0.94746  1.0000 0.9526264276
Zn  Zn4       1.0  0.72749  0.88669  0.55254  1.0000 0.9526264276
Zn  Zn5       1.0  0.17394  0.67766  0.08705  1.0000 0.9431959298
Zn  Zn6       1.0  0.67766  0.17394  0.41295  1.0000 0.9431959298
Zn  Zn7       1.0  0.82606  0.32234  0.91295  1.0000 0.9431959298
Zn  Zn8       1.0  0.32234  0.82606  0.58705  1.0000 0.9431959298
Zn  Zn9       1.0  0.90735  0.38123  0.12821  1.0000 0.9560988452
Zn  Zn10      1.0  0.38123  0.90735  0.37179  1.0000 0.9560988452
Zn  Zn11      1.0  0.09265  0.61877  0.87179  1.0000 0.9560988452
Zn  Zn12      1.0  0.61877  0.09265  0.62821  1.0000 0.9560988452
Zn  Zn13      1.0  0.00000  0.50000  0.00000  1.0000 1.1590973642
Zn  Zn14      1.0  0.50000  0.00000  0.50000  1.0000 1.1590973642
Cd  Cd1       1.0  0.26080  0.94944  0.18309  1.0000 1.052790394
Cd  Cd2       1.0  0.94944  0.26080  0.31691  1.0000 1.052790394
Cd  Cd3       1.0  0.73920  0.05056  0.81691  1.0000 1.052790394
Cd  Cd4       1.0  0.05056  0.73920  0.68309  1.0000 1.052790394
P   P1        1.0  0.14542  0.43762  0.12305  1.0000 1.3097855952
P   P2        1.0  0.43762  0.14542  0.37695  1.0000 1.3097855952
P   P3        1.0  0.85458  0.56238  0.87695  1.0000 1.3097855952
P   P4        1.0  0.56238  0.85458  0.62305  1.0000 1.3097855952
P   P5        1.0  0.87292  0.25174  0.04087  1.0000 1.3097855952
P   P6        1.0  0.25174  0.87292  0.45913  1.0000 1.3097855952
P   P7        1.0  0.12708  0.74826  0.95913  1.0000 1.3097855952
P   P8        1.0  0.74826  0.12708  0.54087  1.0000 1.3097855952
P   P9        1.0  0.07085  0.37901  0.92779  1.0000 1.3097855952
P   P10       1.0  0.37901  0.07085  0.57221  1.0000 1.3097855952
P   P11       1.0  0.92915  0.62099  0.07221  1.0000 1.3097855952
P   P12       1.0  0.62099  0.92915  0.42779  1.0000 1.3097855952
H   H1        1.0  0.51190  0.80530  0.15090  1.0000 0.1182239306
H   H2        1.0  0.80530  0.51190  0.34910  1.0000 0.1182239306
H   H3        1.0  0.48810  0.19470  0.84910  1.0000 0.1182239306
H   H4        1.0  0.19470  0.48810  0.65090  1.0000 0.1182239306
H   H5        1.0  0.53170  0.69150  0.17420  1.0000 0.1004517209
H   H6        1.0  0.69150  0.53170  0.32580  1.0000 0.1004517209
H   H7        1.0  0.46830  0.30850  0.82580  1.0000 0.1004517209
H   H8        1.0  0.30850  0.46830  0.67420  1.0000 0.1004517209
H   H9        1.0  0.51000  0.70480  0.08090  1.0000 0.1004517209
H   H10       1.0  0.70480  0.51000  0.41910  1.0000 0.1004517209
H   H11       1.0  0.49000  0.29520  0.91910  1.0000 0.1004517209
H   H12       1.0  0.29520  0.49000  0.58090  1.0000 0.1004517209
H   H13       1.0  0.41940  0.76420  0.06670  1.0000 0.1182239306
H   H14       1.0  0.76420  0.41940  0.43330  1.0000 0.1182239306
H   H15       1.0  0.58060  0.23580  0.93330  1.0000 0.1182239306
H   H16       1.0  0.23580  0.58060  0.56670  1.0000 0.1182239306
H   H17       1.0  0.40200  0.54620  0.11810  1.0000 0.1104236136
H   H18       1.0  0.54620  0.40200  0.38190  1.0000 0.1104236136
H   H19       1.0  0.59800  0.45380  0.88190  1.0000 0.1104236136
H   H20       1.0  0.45380  0.59800  0.61810  1.0000 0.1104236136
H   H21       1.0  0.32440  0.58940  0.06510  1.0000 0.1104236136
H   H22       1.0  0.58940  0.32440  0.43490  1.0000 0.1104236136
H   H23       1.0  0.67560  0.41060  0.93490  1.0000 0.1104236136
H   H24       1.0  0.41060  0.67560  0.56510  1.0000 0.1104236136
H   H25       1.0  0.30650  0.47330  0.18490  1.0000 0.1580536375
H   H26       1.0  0.47330  0.30650  0.31510  1.0000 0.1580536375
H   H27       1.0  0.69350  0.52670  0.81510  1.0000 0.1580536375
H   H28       1.0  0.52670  0.69350  0.68490  1.0000 0.1580536375
H   H29       1.0  0.22740  0.52440  0.19620  1.0000 0.1580536375
H   H30       1.0  0.52440  0.22740  0.30380  1.0000 0.1580536375
H   H31       1.0  0.77260  0.47560  0.80380  1.0000 0.1580536375
H   H32       1.0  0.47560  0.77260  0.69620  1.0000 0.1580536375
H   H33       1.0  0.38920  0.65620  0.21050  1.0000 0.1104236136
H   H34       1.0  0.65620  0.38920  0.28950  1.0000 0.1104236136
H   H35       1.0  0.61080  0.34380  0.78950  1.0000 0.1104236136
H   H36       1.0  0.34380  0.61080  0.71050  1.0000 0.1104236136
H   H37       1.0  0.69130  0.13790  0.16740  1.0000 0.1182239306
H   H38       1.0  0.13790  0.69130  0.33260  1.0000 0.1182239306
H   H39       1.0  0.30870  0.86210  0.83260  1.0000 0.1182239306
H   H40       1.0  0.86210  0.30870  0.66740  1.0000 0.1182239306
H   H41       1.0  0.63570  0.29310  0.19000  1.0000 0.1182239306
H   H42       1.0  0.29310  0.63570  0.31000  1.0000 0.1182239306
H   H43       1.0  0.36430  0.70690  0.81000  1.0000 0.1182239306
H   H44       1.0  0.70690  0.36430  0.69000  1.0000 0.1182239306
H   H45       1.0  0.55970  0.21450  0.15240  1.0000 0.1182239306
H   H46       1.0  0.21450  0.55970  0.34760  1.0000 0.1182239306
H   H47       1.0  0.44030  0.78550  0.84760  1.0000 0.1182239306
H   H48       1.0  0.78550  0.44030  0.65240  1.0000 0.1182239306
H   H49       1.0  0.56700  0.36880  0.08860  1.0000 0.0930194762
H   H50       1.0  0.36880  0.56700  0.41140  1.0000 0.0930194762
H   H51       1.0  0.43300  0.63120  0.91140  1.0000 0.0930194762
H   H52       1.0  0.63120  0.43300  0.58860  1.0000 0.0930194762
H   H53       1.0  0.68410  0.42050  0.11630  1.0000 0.1182239306
H   H54       1.0  0.42050  0.68410  0.38370  1.0000 0.1182239306
H   H55       1.0  0.31590  0.57950  0.88370  1.0000 0.1182239306
H   H56       1.0  0.57950  0.31590  0.61630  1.0000 0.1182239306
H   H57       1.0  0.70910  0.36710  0.04250  1.0000 0.1182239306
H   H58       1.0  0.36710  0.70910  0.45750  1.0000 0.1182239306
H   H59       1.0  0.29090  0.63290  0.95750  1.0000 0.1182239306
H   H60       1.0  0.63290  0.29090  0.54250  1.0000 0.1182239306
H   H61       1.0  0.62370  0.25830  0.05320  1.0000 0.1004517209
H   H62       1.0  0.25830  0.62370  0.44680  1.0000 0.1004517209
H   H63       1.0  0.37630  0.74170  0.94680  1.0000 0.1004517209
H   H64       1.0  0.74170  0.37630  0.55320  1.0000 0.1004517209
H   H65       1.0  0.83110  0.14490  0.12340  1.0000 0.1580536375
H   H66       1.0  0.14490  0.83110  0.37660  1.0000 0.1580536375
H   H67       1.0  0.16890  0.85510  0.87660  1.0000 0.1580536375
H   H68       1.0  0.85510  0.16890  0.62340  1.0000 0.1580536375
H   H69       1.0  0.72880  0.13680  0.07680  1.0000 0.1580536375
H   H70       1.0  0.13680  0.72880  0.42320  1.0000 0.1580536375
H   H71       1.0  0.27120  0.86320  0.92320  1.0000 0.1580536375
H   H72       1.0  0.86320  0.27120  0.57680  1.0000 0.1580536375
H   H73       1.0  0.23030  0.14030  0.99320  1.0000 0.1182239306
H   H74       1.0  0.14030  0.23030  0.50680  1.0000 0.1182239306
H   H75       1.0  0.76970  0.85970  0.00680  1.0000 0.1182239306
H   H76       1.0  0.85970  0.76970  0.49320  1.0000 0.1182239306
H   H77       1.0  0.40800  0.19160  0.00430  1.0000 0.1104236136
H   H78       1.0  0.19160  0.40800  0.49570  1.0000 0.1104236136
H   H79       1.0  0.59200  0.80840  0.99570  1.0000 0.1104236136
H   H80       1.0  0.80840  0.59200  0.50430  1.0000 0.1104236136
H   H81       1.0  0.42220  0.22840  0.05950  1.0000 0.1104236136
H   H82       1.0  0.22840  0.42220  0.44050  1.0000 0.1104236136
H   H83       1.0  0.57780  0.77160  0.94050  1.0000 0.1104236136
H   H84       1.0  0.77160  0.57780  0.55950  1.0000 0.1104236136
H   H85       1.0  0.37980  0.34800  0.95130  1.0000 0.1104236136
H   H86       1.0  0.34800  0.37980  0.54870  1.0000 0.1104236136
H   H87       1.0  0.62020  0.65200  0.04870  1.0000 0.1104236136
H   H88       1.0  0.65200  0.62020  0.45130  1.0000 0.1104236136
H   H89       1.0  0.46100  0.38900  0.00230  1.0000 0.1104236136
H   H90       1.0  0.38900  0.46100  0.49770  1.0000 0.1104236136
H   H91       1.0  0.53900  0.61100  0.99770  1.0000 0.1104236136
H   H92       1.0  0.61100  0.53900  0.50230  1.0000 0.1104236136
H   H93       1.0  0.32830  0.39050  0.04110  1.0000 0.1182239306
H   H94       1.0  0.39050  0.32830  0.45890  1.0000 0.1182239306
H   H95       1.0  0.67170  0.60950  0.95890  1.0000 0.1182239306
H   H96       1.0  0.60950  0.67170  0.54110  1.0000 0.1182239306
H   H97       1.0  0.28960  0.43660  0.97830  1.0000 0.1104236136
H   H98       1.0  0.43660  0.28960  0.52170  1.0000 0.1104236136
H   H99       1.0  0.71040  0.56340  0.02170  1.0000 0.1104236136
H   H100      1.0  0.56340  0.71040  0.47830  1.0000 0.1104236136
H   H101      1.0  0.19820  0.30600  0.91860  1.0000 0.1535222586
H   H102      1.0  0.30600  0.19820  0.58140  1.0000 0.1535222586
H   H103      1.0  0.80180  0.69400  0.08140  1.0000 0.1535222586
H   H104      1.0  0.69400  0.80180  0.41860  1.0000 0.1535222586
H   H105      1.0  0.10510  0.21530  0.93970  1.0000 0.1714295652
H   H106      1.0  0.21530  0.10510  0.56030  1.0000 0.1714295652
H   H107      1.0  0.89490  0.78470  0.06030  1.0000 0.1714295652
H   H108      1.0  0.78470  0.89490  0.43970  1.0000 0.1714295652
C   C1        1.0  0.48110  0.73050  0.15120  1.0000 -0.1899805935
C   C2        1.0  0.73050  0.48110  0.34880  1.0000 -0.1899805935
C   C3        1.0  0.51890  0.26950  0.84880  1.0000 -0.1899805935
C   C4        1.0  0.26950  0.51890  0.65120  1.0000 -0.1899805935
C   C5        1.0  0.45000  0.70980  0.09280  1.0000 -0.1811262164
C   C6        1.0  0.70980  0.45000  0.40720  1.0000 -0.1811262164
C   C7        1.0  0.55000  0.29020  0.90720  1.0000 -0.1811262164
C   C8        1.0  0.29020  0.55000  0.59280  1.0000 -0.1811262164
C   C9        1.0  0.36810  0.60330  0.10020  1.0000 -0.1004768446
C   C10       1.0  0.60330  0.36810  0.39980  1.0000 -0.1004768446
C   C11       1.0  0.63190  0.39670  0.89980  1.0000 -0.1004768446
C   C12       1.0  0.39670  0.63190  0.60020  1.0000 -0.1004768446
C   C13       1.0  0.25400  0.51320  0.16750  1.0000 -0.4406004269
C   C14       1.0  0.51320  0.25400  0.33250  1.0000 -0.4406004269
C   C15       1.0  0.74600  0.48680  0.83250  1.0000 -0.4406004269
C   C16       1.0  0.48680  0.74600  0.66750  1.0000 -0.4406004269
C   C17       1.0  0.37760  0.69240  0.17180  1.0000 -0.0608038851
C   C18       1.0  0.69240  0.37760  0.32820  1.0000 -0.0608038851
C   C19       1.0  0.62240  0.30760  0.82820  1.0000 -0.0608038851
C   C20       1.0  0.30760  0.62240  0.67180  1.0000 -0.0608038851
C   C21       1.0  0.33160  0.78480  0.16450  1.0000 0.5605388191
C   C22       1.0  0.78480  0.33160  0.33550  1.0000 0.5605388191
C   C23       1.0  0.66840  0.21520  0.83550  1.0000 0.5605388191
C   C24       1.0  0.21520  0.66840  0.66450  1.0000 0.5605388191
C   C25       1.0  0.80490  0.24130  0.21290  1.0000 0.5605388191
C   C26       1.0  0.24130  0.80490  0.28710  1.0000 0.5605388191
C   C27       1.0  0.19510  0.75870  0.78710  1.0000 0.5605388191
C   C28       1.0  0.75870  0.19510  0.71290  1.0000 0.5605388191
C   C29       1.0  0.71810  0.21470  0.16390  1.0000 -0.0608038851
C   C30       1.0  0.21470  0.71810  0.33610  1.0000 -0.0608038851
C   C31       1.0  0.28190  0.78530  0.83610  1.0000 -0.0608038851
C   C32       1.0  0.78530  0.28190  0.66390  1.0000 -0.0608038851
C   C33       1.0  0.62770  0.26570  0.15760  1.0000 -0.1899805935
C   C34       1.0  0.26570  0.62770  0.34240  1.0000 -0.1899805935
C   C35       1.0  0.37230  0.73430  0.84240  1.0000 -0.1899805935
C   C36       1.0  0.73430  0.37230  0.65760  1.0000 -0.1899805935
C   C37       1.0  0.63570  0.35570  0.10680  1.0000 -0.1811262164
C   C38       1.0  0.35570  0.63570  0.39320  1.0000 -0.1811262164
C   C39       1.0  0.36430  0.64430  0.89320  1.0000 -0.1811262164
C   C40       1.0  0.64430  0.36430  0.60680  1.0000 -0.1811262164
C   C41       1.0  0.67860  0.31140  0.07060  1.0000 -0.1004768446
C   C42       1.0  0.31140  0.67860  0.42940  1.0000 -0.1004768446
C   C43       1.0  0.32140  0.68860  0.92940  1.0000 -0.1004768446
C   C44       1.0  0.68860  0.32140  0.57060  1.0000 -0.1004768446
C   C45       1.0  0.79190  0.18550  0.09240  1.0000 -0.4540696163
C   C46       1.0  0.18550  0.79190  0.40760  1.0000 -0.4540696163
C   C47       1.0  0.20810  0.81450  0.90760  1.0000 -0.4540696163
C   C48       1.0  0.81450  0.20810  0.59240  1.0000 -0.4540696163
C   C49       1.0  0.23660  0.12260  0.07630  1.0000 0.5605388191
C   C50       1.0  0.12260  0.23660  0.42370  1.0000 0.5605388191
C   C51       1.0  0.76340  0.87740  0.92370  1.0000 0.5605388191
C   C52       1.0  0.87740  0.76340  0.57630  1.0000 0.5605388191
C   C53       1.0  0.26060  0.18600  0.02010  1.0000 -0.0389715666
C   C54       1.0  0.18600  0.26060  0.47990  1.0000 -0.0389715666
C   C55       1.0  0.73940  0.81400  0.97990  1.0000 -0.0389715666
C   C56       1.0  0.81400  0.73940  0.52010  1.0000 -0.0389715666
C   C57       1.0  0.38270  0.23090  0.02200  1.0000 -0.1899805935
C   C58       1.0  0.23090  0.38270  0.47800  1.0000 -0.1899805935
C   C59       1.0  0.61730  0.76910  0.97800  1.0000 -0.1899805935
C   C60       1.0  0.76910  0.61730  0.52200  1.0000 -0.1899805935
C   C61       1.0  0.39190  0.34390  0.99050  1.0000 -0.1899805935
C   C62       1.0  0.34390  0.39190  0.50950  1.0000 -0.1899805935
C   C63       1.0  0.60810  0.65610  0.00950  1.0000 -0.1899805935
C   C64       1.0  0.65610  0.60810  0.49050  1.0000 -0.1899805935
C   C65       1.0  0.30670  0.37510  0.00460  1.0000 -0.1004768446
C   C66       1.0  0.37510  0.30670  0.49540  1.0000 -0.1004768446
C   C67       1.0  0.69330  0.62490  0.99540  1.0000 -0.1004768446
C   C68       1.0  0.62490  0.69330  0.50460  1.0000 -0.1004768446
C   C69       1.0  0.15080  0.28460  0.94400  1.0000 -0.4406004269
C   C70       1.0  0.28460  0.15080  0.55600  1.0000 -0.4406004269
C   C71       1.0  0.84920  0.71540  0.05600  1.0000 -0.4406004269
C   C72       1.0  0.71540  0.84920  0.44400  1.0000 -0.4406004269
N   N1        1.0  0.30350  0.61610  0.13610  1.0000 -0.1004768446
N   N2        1.0  0.61610  0.30350  0.36390  1.0000 -0.1004768446
N   N3        1.0  0.69650  0.38390  0.86390  1.0000 -0.1004768446
N   N4        1.0  0.38390  0.69650  0.63610  1.0000 -0.1004768446
N   N5        1.0  0.21330  0.27890  0.00150  1.0000 -0.1004768446
N   N6        1.0  0.27890  0.21330  0.49850  1.0000 -0.1004768446
N   N7        1.0  0.78670  0.72110  0.99850  1.0000 -0.1004768446
N   N8        1.0  0.72110  0.78670  0.50150  1.0000 -0.1004768446
N   N9        1.0  0.76090  0.26430  0.11170  1.0000 -0.0922983308
N   N10       1.0  0.26430  0.76090  0.38830  1.0000 -0.0922983308
N   N11       1.0  0.23910  0.73570  0.88830  1.0000 -0.0922983308
N   N12       1.0  0.73570  0.23910  0.61170  1.0000 -0.0922983308
O   O1        1.0  0.18640  0.35960  0.10714  1.0000 -0.7668445561
O   O2        1.0  0.35960  0.18640  0.39286  1.0000 -0.7641936634
O   O3        1.0  0.81360  0.64040  0.89286  1.0000 -0.7641936634
O   O4        1.0  0.64040  0.81360  0.60714  1.0000 -0.7641936634
O   O5        1.0  0.11390  0.52150  0.07229  1.0000 -0.7969836516
O   O6        1.0  0.52150  0.11390  0.42771  1.0000 -0.7969836516
O   O7        1.0  0.88610  0.47850  0.92771  1.0000 -0.7969836516
O   O8        1.0  0.47850  0.88610  0.57229  1.0000 -0.7943006489
O   O9        1.0  0.05900  0.38240  0.15590  1.0000 -0.7475175235
O   O10       1.0  0.38240  0.05900  0.34410  1.0000 -0.7441001372
O   O11       1.0  0.94100  0.61760  0.84410  1.0000 -0.7441001372
O   O12       1.0  0.61760  0.94100  0.65590  1.0000 -0.7441001372
O   O13       1.0  0.24600  0.79380  0.13124  1.0000 -0.5276456941
O   O14       1.0  0.79380  0.24600  0.36876  1.0000 -0.5276456941
O   O15       1.0  0.75400  0.20620  0.86876  1.0000 -0.5276456941
O   O16       1.0  0.20620  0.75400  0.63124  1.0000 -0.5276456941
O   O17       1.0  0.38170  0.85170  0.19467  1.0000 -0.5425140205
O   O18       1.0  0.85170  0.38170  0.30533  1.0000 -0.5425140205
O   O19       1.0  0.61830  0.14830  0.80533  1.0000 -0.5425140205
O   O20       1.0  0.14830  0.61830  0.69467  1.0000 -0.5425140205
O   O21       1.0  0.88690  0.31630  0.20644  1.0000 -0.5501726661
O   O22       1.0  0.31630  0.88690  0.29356  1.0000 -0.5501726661
O   O23       1.0  0.11310  0.68370  0.79356  1.0000 -0.5501726661
O   O24       1.0  0.68370  0.11310  0.70644  1.0000 -0.5501726661
O   O25       1.0  0.79160  0.18680  0.25940  1.0000 -0.5276456941
O   O26       1.0  0.18680  0.79160  0.24060  1.0000 -0.5276456941
O   O27       1.0  0.20840  0.81320  0.74060  1.0000 -0.5276456941
O   O28       1.0  0.81320  0.20840  0.75940  1.0000 -0.5276456941
O   O29       1.0  0.91380  0.36760  0.04842  1.0000 -0.7969836516
O   O30       1.0  0.36760  0.91380  0.45158  1.0000 -0.7969836516
O   O31       1.0  0.08620  0.63240  0.95158  1.0000 -0.7969836516
O   O32       1.0  0.63240  0.08620  0.54842  1.0000 -0.7969836516
O   O33       1.0  0.96230  0.19710  0.05344  1.0000 -0.7475175235
O   O34       1.0  0.19710  0.96230  0.44656  1.0000 -0.7475175235
O   O35       1.0  0.03770  0.80290  0.94656  1.0000 -0.7475175235
O   O36       1.0  0.80290  0.03770  0.55344  1.0000 -0.7475175235
O   O37       1.0  0.80110  0.24090  0.98491  1.0000 -0.7641936634
O   O38       1.0  0.24090  0.80110  0.51509  1.0000 -0.7641936634
O   O39       1.0  0.19890  0.75910  0.01509  1.0000 -0.7641936634
O   O40       1.0  0.75910  0.19890  0.48491  1.0000 -0.7641936634
O   O41       1.0  0.28590  0.05130  0.09890  1.0000 -0.570915604
O   O42       1.0  0.05130  0.28590  0.40110  1.0000 -0.570915604
O   O43       1.0  0.71410  0.94870  0.90110  1.0000 -0.570915604
O   O44       1.0  0.94870  0.71410  0.59890  1.0000 -0.570915604
O   O45       1.0  0.17190  0.14310  0.09538  1.0000 -0.5425140205
O   O46       1.0  0.14310  0.17190  0.40462  1.0000 -0.5425140205
O   O47       1.0  0.82810  0.85690  0.90462  1.0000 -0.5425140205
O   O48       1.0  0.85690  0.82810  0.59538  1.0000 -0.5425140205
O   O49       1.0  0.96160  0.32500  0.89699  1.0000 -0.7441001372
O   O50       1.0  0.32500  0.96160  0.60301  1.0000 -0.7441001372
O   O51       1.0  0.03840  0.67500  0.10301  1.0000 -0.7441001372
O   O52       1.0  0.67500  0.03840  0.39699  1.0000 -0.7441001372
O   O53       1.0  0.12210  0.48030  0.89191  1.0000 -0.7668445561
O   O54       1.0  0.48030  0.12210  0.60809  1.0000 -0.7668445561
O   O55       1.0  0.87790  0.51970  0.10809  1.0000 -0.7668445561
O   O56       1.0  0.51970  0.87790  0.39191  1.0000 -0.7668445561
O   O57       1.0  0.06710  0.39350  0.98450  1.0000 -0.7943006489
O   O58       1.0  0.39350  0.06710  0.51550  1.0000 -0.7943006489
O   O59       1.0  0.93290  0.60650  0.01550  1.0000 -0.7943006489
O   O60       1.0  0.60650  0.93290  0.48450  1.0000 -0.7943006489
