# DDEC6 charges by PACMAN v1.1 (https://github.com/mtap-research/PACMAN-charge/)
data_2009[Cu][pcu]3[ASR]2
_chemical_formula_sum              "Cu4 H48 C72 N4 O16"
_cell_length_a       13.0054
_cell_length_b       13.0054
_cell_length_c       11.782
_cell_angle_alpha    74.5273
_cell_angle_beta     105.473
_cell_angle_gamma    82.1717

_symmetry_space_group_name_H-M    "P 1"
_symmetry_Int_Tables_number       1

loop_
  _symmetry_equiv_pos_as_xyz
  'x, y, z'

loop_
  _atom_site_type_symbol
  _atom_site_label
  _atom_site_symmetry_multiplicity
  _atom_site_fract_x
  _atom_site_fract_y
  _atom_site_fract_z
  _atom_site_occupancy
  _atom_site_charge
Cu  Cu1       1.0  0.67759  0.76879  0.12588  1.0000 0.7776447436
Cu  Cu2       1.0  0.76879  0.67759  0.37412  1.0000 0.7776447436
Cu  Cu3       1.0  0.32241  0.23121  0.87412  1.0000 0.7776447436
Cu  Cu4       1.0  0.23121  0.32241  0.62588  1.0000 0.7776447436
H   H1        1.0  0.33990  0.80590  0.12100  1.0000 0.1184396024
H   H2        1.0  0.80590  0.33990  0.37900  1.0000 0.1184396024
H   H3        1.0  0.66010  0.19410  0.87900  1.0000 0.1184396024
H   H4        1.0  0.19410  0.66010  0.62100  1.0000 0.1184396024
H   H5        1.0  0.48290  0.61650  0.47470  1.0000 0.1184396024
H   H6        1.0  0.61650  0.48290  0.02530  1.0000 0.1184396024
H   H7        1.0  0.51710  0.38350  0.52530  1.0000 0.1184396024
H   H8        1.0  0.38350  0.51710  0.97470  1.0000 0.1184396024
H   H9        1.0  0.31830  0.59530  0.49670  1.0000 0.1274576036
H   H10       1.0  0.59530  0.31830  0.00330  1.0000 0.1274576036
H   H11       1.0  0.68170  0.40470  0.50330  1.0000 0.1274576036
H   H12       1.0  0.40470  0.68170  0.99670  1.0000 0.1274576036
H   H13       1.0  0.13690  0.84730  0.02960  1.0000 0.1274576036
H   H14       1.0  0.84730  0.13690  0.47040  1.0000 0.1274576036
H   H15       1.0  0.86310  0.15270  0.97040  1.0000 0.1274576036
H   H16       1.0  0.15270  0.86310  0.52960  1.0000 0.1274576036
H   H17       1.0  0.97140  0.82380  0.04780  1.0000 0.1274576036
H   H18       1.0  0.82380  0.97140  0.45220  1.0000 0.1274576036
H   H19       1.0  0.02860  0.17620  0.95220  1.0000 0.1274576036
H   H20       1.0  0.17620  0.02860  0.54780  1.0000 0.1274576036
H   H21       1.0  0.11340  0.63980  0.40590  1.0000 0.1274576036
H   H22       1.0  0.63980  0.11340  0.09410  1.0000 0.1274576036
H   H23       1.0  0.88660  0.36020  0.59410  1.0000 0.1274576036
H   H24       1.0  0.36020  0.88660  0.90590  1.0000 0.1274576036
H   H25       1.0  0.59020  0.99040  0.91880  1.0000 0.1112703582
H   H26       1.0  0.99040  0.59020  0.58120  1.0000 0.1112703582
H   H27       1.0  0.40980  0.00960  0.08120  1.0000 0.1112703582
H   H28       1.0  0.00960  0.40980  0.41880  1.0000 0.1112703582
H   H29       1.0  0.61460  0.69900  0.89270  1.0000 0.1007628789
H   H30       1.0  0.69900  0.61460  0.60730  1.0000 0.1007628789
H   H31       1.0  0.38540  0.30100  0.10730  1.0000 0.1007628789
H   H32       1.0  0.30100  0.38540  0.39270  1.0000 0.1007628789
H   H33       1.0  0.53130  0.06670  0.70650  1.0000 0.1376178762
H   H34       1.0  0.06670  0.53130  0.79350  1.0000 0.1376178762
H   H35       1.0  0.46870  0.93330  0.29350  1.0000 0.1376178762
H   H36       1.0  0.93330  0.46870  0.20650  1.0000 0.1376178762
H   H37       1.0  0.54710  0.76670  0.68020  1.0000 0.1376178762
H   H38       1.0  0.76670  0.54710  0.81980  1.0000 0.1376178762
H   H39       1.0  0.45290  0.23330  0.31980  1.0000 0.1376178762
H   H40       1.0  0.23330  0.45290  0.18020  1.0000 0.1376178762
H   H41       1.0  0.61770  0.97890  0.54030  1.0000 0.1274576036
H   H42       1.0  0.97890  0.61770  0.95970  1.0000 0.1274576036
H   H43       1.0  0.38230  0.02110  0.45970  1.0000 0.1274576036
H   H44       1.0  0.02110  0.38230  0.04030  1.0000 0.1274576036
H   H45       1.0  0.55110  0.89210  0.50720  1.0000 0.1184396024
H   H46       1.0  0.89210  0.55110  0.99280  1.0000 0.1184396024
H   H47       1.0  0.44890  0.10790  0.49280  1.0000 0.1184396024
H   H48       1.0  0.10790  0.44890  0.00720  1.0000 0.1184396024
C   C1        1.0  0.53753  0.72133  0.27870  1.0000 0.5539808412
C   C2        1.0  0.72133  0.53753  0.22130  1.0000 0.5539808412
C   C3        1.0  0.46247  0.27867  0.72130  1.0000 0.5539808412
C   C4        1.0  0.27867  0.46247  0.77870  1.0000 0.5539808412
C   C5        1.0  0.42790  0.71210  0.29380  1.0000 -0.0186637346
C   C6        1.0  0.71210  0.42790  0.20620  1.0000 -0.0186637346
C   C7        1.0  0.57210  0.28790  0.70620  1.0000 -0.0186637346
C   C8        1.0  0.28790  0.57210  0.79380  1.0000 -0.0186637346
C   C9        1.0  0.33450  0.76370  0.19570  1.0000 -0.1653144459
C   C10       1.0  0.76370  0.33450  0.30430  1.0000 -0.1629383663
C   C11       1.0  0.66550  0.23630  0.80430  1.0000 -0.1629383663
C   C12       1.0  0.23630  0.66550  0.69570  1.0000 -0.1653144459
C   C13       1.0  0.41960  0.65000  0.40760  1.0000 -0.1178954417
C   C14       1.0  0.65000  0.41960  0.09240  1.0000 -0.1178954417
C   C15       1.0  0.58040  0.35000  0.59240  1.0000 -0.1178954417
C   C16       1.0  0.35000  0.58040  0.90760  1.0000 -0.1178954417
C   C17       1.0  0.23110  0.75370  0.20610  1.0000 0.0772287346
C   C18       1.0  0.75370  0.23110  0.29390  1.0000 0.0772287346
C   C19       1.0  0.76890  0.24630  0.79390  1.0000 0.0772287346
C   C20       1.0  0.24630  0.76890  0.70610  1.0000 0.0772287346
C   C21       1.0  0.32150  0.63830  0.42130  1.0000 -0.152173909
C   C22       1.0  0.63830  0.32150  0.07870  1.0000 -0.152173909
C   C23       1.0  0.67850  0.36170  0.57870  1.0000 -0.152173909
C   C24       1.0  0.36170  0.67850  0.92130  1.0000 -0.152173909
C   C25       1.0  0.22300  0.69100  0.32100  1.0000 0.0772287346
C   C26       1.0  0.69100  0.22300  0.17900  1.0000 0.0772287346
C   C27       1.0  0.77700  0.30900  0.67900  1.0000 0.0772287346
C   C28       1.0  0.30900  0.77700  0.82100  1.0000 0.0772287346
C   C29       1.0  0.13300  0.80460  0.10480  1.0000 -0.152173909
C   C30       1.0  0.80460  0.13300  0.39520  1.0000 -0.152173909
C   C31       1.0  0.86700  0.19540  0.89520  1.0000 -0.152173909
C   C32       1.0  0.19540  0.86700  0.60480  1.0000 -0.152173909
C   C33       1.0  0.03420  0.79180  0.11600  1.0000 -0.1132213572
C   C34       1.0  0.79180  0.03420  0.38400  1.0000 -0.1132213572
C   C35       1.0  0.96580  0.20820  0.88400  1.0000 -0.1132213572
C   C36       1.0  0.20820  0.96580  0.61600  1.0000 -0.1132213572
C   C37       1.0  0.11890  0.68070  0.33080  1.0000 -0.1629383663
C   C38       1.0  0.68070  0.11890  0.16920  1.0000 -0.1629383663
C   C39       1.0  0.88110  0.31930  0.66920  1.0000 -0.1629383663
C   C40       1.0  0.31930  0.88110  0.83080  1.0000 -0.1629383663
C   C41       1.0  0.02550  0.73010  0.23100  1.0000 -0.0186637346
C   C42       1.0  0.73010  0.02550  0.26900  1.0000 -0.0186637346
C   C43       1.0  0.97450  0.26990  0.76900  1.0000 -0.0186637346
C   C44       1.0  0.26990  0.97450  0.73100  1.0000 -0.0186637346
C   C45       1.0  0.91550  0.71870  0.24150  1.0000 0.5554065605
C   C46       1.0  0.71870  0.91550  0.25850  1.0000 0.5539808412
C   C47       1.0  0.08450  0.28130  0.75850  1.0000 0.5554065605
C   C48       1.0  0.28130  0.08450  0.74150  1.0000 0.5554065605
C   C49       1.0  0.58560  0.94460  0.86990  1.0000 0.0919334082
C   C50       1.0  0.94460  0.58560  0.63010  1.0000 0.0919334082
C   C51       1.0  0.41440  0.05540  0.13010  1.0000 0.0919334082
C   C52       1.0  0.05540  0.41440  0.36990  1.0000 0.0919334082
C   C53       1.0  0.59870  0.77430  0.85480  1.0000 0.0919334082
C   C54       1.0  0.77430  0.59870  0.64520  1.0000 0.0919334082
C   C55       1.0  0.40130  0.22570  0.14520  1.0000 0.0919334082
C   C56       1.0  0.22570  0.40130  0.35480  1.0000 0.0919334082
C   C57       1.0  0.54880  0.99100  0.74260  1.0000 -0.2005961785
C   C58       1.0  0.99100  0.54880  0.75740  1.0000 -0.2005961785
C   C59       1.0  0.45120  0.00900  0.25740  1.0000 -0.2005961785
C   C60       1.0  0.00900  0.45120  0.24260  1.0000 -0.2005961785
C   C61       1.0  0.55900  0.81460  0.72620  1.0000 -0.2130773651
C   C62       1.0  0.81460  0.55900  0.77380  1.0000 -0.2130773651
C   C63       1.0  0.44100  0.18540  0.27380  1.0000 -0.2130773651
C   C64       1.0  0.18540  0.44100  0.22620  1.0000 -0.2130773651
C   C65       1.0  0.53800  0.92240  0.66830  1.0000 0.1611557504
C   C66       1.0  0.92240  0.53800  0.83170  1.0000 0.1611557504
C   C67       1.0  0.46200  0.07760  0.33170  1.0000 0.1611557504
C   C68       1.0  0.07760  0.46200  0.16830  1.0000 0.1611557504
C   C69       1.0  0.55066  0.95354  0.53910  1.0000 -0.2252232829
C   C70       1.0  0.95354  0.55066  0.96090  1.0000 -0.2249660591
C   C71       1.0  0.44934  0.04646  0.46090  1.0000 -0.2252232829
C   C72       1.0  0.04646  0.44934  0.03910  1.0000 -0.2252232829
N   N1        1.0  0.61495  0.83655  0.92590  1.0000 -0.2417444984
N   N2        1.0  0.83655  0.61495  0.57410  1.0000 -0.2417444984
N   N3        1.0  0.38505  0.16345  0.07410  1.0000 -0.2417444984
N   N4        1.0  0.16345  0.38505  0.42590  1.0000 -0.2417444984
O   O1        1.0  0.54033  0.76535  0.17090  1.0000 -0.5213994222
O   O2        1.0  0.76535  0.54033  0.32910  1.0000 -0.5213994222
O   O3        1.0  0.45967  0.23465  0.82910  1.0000 -0.5213994222
O   O4        1.0  0.23465  0.45967  0.67090  1.0000 -0.5213994222
O   O5        1.0  0.61939  0.68301  0.37640  1.0000 -0.5213994222
O   O6        1.0  0.68301  0.61939  0.12360  1.0000 -0.5213994222
O   O7        1.0  0.38061  0.31699  0.62360  1.0000 -0.5213994222
O   O8        1.0  0.31699  0.38061  0.87640  1.0000 -0.5213994222
O   O9        1.0  0.83657  0.75077  0.14220  1.0000 -0.5213994222
O   O10       1.0  0.75077  0.83657  0.35780  1.0000 -0.5213994222
O   O11       1.0  0.16343  0.24923  0.85780  1.0000 -0.5213994222
O   O12       1.0  0.24923  0.16343  0.64220  1.0000 -0.5213994222
O   O13       1.0  0.91037  0.67855  0.35010  1.0000 -0.5213994222
O   O14       1.0  0.67855  0.91037  0.14990  1.0000 -0.5213994222
O   O15       1.0  0.08963  0.32145  0.64990  1.0000 -0.5213994222
O   O16       1.0  0.32145  0.08963  0.85010  1.0000 -0.5213994222
