# DDEC6 charges by PACMAN v1.1 (https://github.com/mtap-research/PACMAN-charge/)
data_2009[Al][nan]3[ASR]1
_chemical_formula_sum              "Al4 H10 C10 O16"
_cell_length_a       11.1461
_cell_length_b       11.1461
_cell_length_c       6.9941
_cell_angle_alpha    73.6357
_cell_angle_beta     106.364
_cell_angle_gamma    51.8611

_symmetry_space_group_name_H-M    "P 1"
_symmetry_Int_Tables_number       1

loop_
  _symmetry_equiv_pos_as_xyz
  'x, y, z'

loop_
  _atom_site_type_symbol
  _atom_site_label
  _atom_site_symmetry_multiplicity
  _atom_site_fract_x
  _atom_site_fract_y
  _atom_site_fract_z
  _atom_site_occupancy
  _atom_site_charge
Al  Al1       1.0  0.29518  0.29518  0.00000  1.0000 1.596336694
Al  Al2       1.0  0.70482  0.70482  0.00000  1.0000 1.596336694
Al  Al3       1.0  0.00000  0.50000  0.50000  1.0000 1.630983205
Al  Al4       1.0  0.50000  0.00000  0.50000  1.0000 1.630983205
H   H1        1.0  0.68790  0.31210  0.23980  1.0000 0.1333190217
H   H2        1.0  0.31210  0.68790  0.76020  1.0000 0.1333190217
H   H3        1.0  0.33800  0.31000  0.68400  1.0000 0.4138581618
H   H4        1.0  0.31000  0.33800  0.31600  1.0000 0.4138581618
H   H5        1.0  0.66200  0.69000  0.31600  1.0000 0.4138581618
H   H6        1.0  0.69000  0.66200  0.68400  1.0000 0.4138581618
H   H7        1.0  0.50500  0.97300  0.16900  1.0000 0.4138581618
H   H8        1.0  0.97300  0.50500  0.83100  1.0000 0.4138581618
H   H9        1.0  0.49500  0.02700  0.83100  1.0000 0.4138581618
H   H10       1.0  0.02700  0.49500  0.16900  1.0000 0.4138581618
C   C1        1.0  0.68190  0.06950  0.35730  1.0000 0.6283384277
C   C2        1.0  0.06950  0.68190  0.64270  1.0000 0.6283384277
C   C3        1.0  0.31810  0.93050  0.64270  1.0000 0.6283384277
C   C4        1.0  0.93050  0.31810  0.35730  1.0000 0.6283384277
C   C5        1.0  0.84650  0.03390  0.42190  1.0000 -0.0277638188
C   C6        1.0  0.03390  0.84650  0.57810  1.0000 -0.0277638188
C   C7        1.0  0.15350  0.96610  0.57810  1.0000 -0.0277638188
C   C8        1.0  0.96610  0.15350  0.42190  1.0000 -0.0277638188
C   C9        1.0  0.81510  0.18490  0.34580  1.0000 -0.1235448555
C   C10       1.0  0.18490  0.81510  0.65420  1.0000 -0.1235448555
O   O1        1.0  0.26740  0.31620  0.71150  1.0000 -0.9389957995
O   O2        1.0  0.31620  0.26740  0.28850  1.0000 -0.9389957995
O   O3        1.0  0.73260  0.68380  0.28850  1.0000 -0.9389957995
O   O4        1.0  0.68380  0.73260  0.71150  1.0000 -0.9389957995
O   O5        1.0  0.42450  0.04250  0.19300  1.0000 -0.9389957995
O   O6        1.0  0.04250  0.42450  0.80700  1.0000 -0.9389957995
O   O7        1.0  0.57550  0.95750  0.80700  1.0000 -0.9389957995
O   O8        1.0  0.95750  0.57550  0.19300  1.0000 -0.9389957995
O   O9        1.0  0.53660  0.19900  0.12890  1.0000 -0.5951994346
O   O10       1.0  0.19900  0.53660  0.87110  1.0000 -0.5951994346
O   O11       1.0  0.46340  0.80100  0.87110  1.0000 -0.5951994346
O   O12       1.0  0.80100  0.46340  0.12890  1.0000 -0.5951994346
O   O13       1.0  0.69920  0.97020  0.53320  1.0000 -0.5736469314
O   O14       1.0  0.97020  0.69920  0.46680  1.0000 -0.5736469314
O   O15       1.0  0.30080  0.02980  0.46680  1.0000 -0.5736469314
O   O16       1.0  0.02980  0.30080  0.53320  1.0000 -0.5736469314
