# DDEC6 charges by PACMAN v1.1 (https://github.com/mtap-research/PACMAN-charge/)
data_2009[Zn][dia]3[ASR]3
_chemical_formula_sum              "Zn2 H80 C64 N16"
_cell_length_a       20.2684
_cell_length_b       18.1858
_cell_length_c       12.4965
_cell_angle_alpha    80.3646
_cell_angle_beta     62.201
_cell_angle_gamma    37.4344

_symmetry_space_group_name_H-M    "P 1"
_symmetry_Int_Tables_number       1

loop_
  _symmetry_equiv_pos_as_xyz
  'x, y, z'

loop_
  _atom_site_type_symbol
  _atom_site_label
  _atom_site_symmetry_multiplicity
  _atom_site_fract_x
  _atom_site_fract_y
  _atom_site_fract_z
  _atom_site_occupancy
  _atom_site_charge
Zn  Zn1       1.0  0.25000  0.25000  0.25000  1.0000 0.4390690437
Zn  Zn2       1.0  0.00000  0.00000  0.00000  1.0000 0.4390690437
H   H1        1.0  0.31540  0.03160  0.24380  1.0000 0.0988123985
H   H2        1.0  0.03160  0.31540  0.40920  1.0000 0.0988123985
H   H3        1.0  0.24380  0.40920  0.31540  1.0000 0.0988123985
H   H4        1.0  0.40920  0.24380  0.03160  1.0000 0.0988123985
H   H5        1.0  0.93460  0.21840  0.00620  1.0000 0.0988123985
H   H6        1.0  0.21840  0.93460  0.84080  1.0000 0.0988123985
H   H7        1.0  0.00620  0.84080  0.93460  1.0000 0.0988123985
H   H8        1.0  0.84080  0.00620  0.21840  1.0000 0.0988123985
H   H9        1.0  0.30610  0.94270  0.56390  1.0000 0.1125165367
H   H10       1.0  0.94270  0.30610  0.18730  1.0000 0.1125165367
H   H11       1.0  0.56390  0.18730  0.30610  1.0000 0.1125165367
H   H12       1.0  0.18730  0.56390  0.94270  1.0000 0.1125165367
H   H13       1.0  0.94390  0.30730  0.68610  1.0000 0.1125165367
H   H14       1.0  0.30730  0.94390  0.06270  1.0000 0.1125165367
H   H15       1.0  0.68610  0.06270  0.94390  1.0000 0.1125165367
H   H16       1.0  0.06270  0.68610  0.30730  1.0000 0.1125165367
H   H17       1.0  0.25620  0.10140  0.63500  1.0000 0.1125165367
H   H18       1.0  0.10140  0.25620  0.00740  1.0000 0.1125165367
H   H19       1.0  0.63500  0.00740  0.25620  1.0000 0.1125165367
H   H20       1.0  0.00740  0.63500  0.10140  1.0000 0.1125165367
H   H21       1.0  0.99380  0.14860  0.61500  1.0000 0.1125165367
H   H22       1.0  0.14860  0.99380  0.24260  1.0000 0.1125165367
H   H23       1.0  0.61500  0.24260  0.99380  1.0000 0.1125165367
H   H24       1.0  0.24260  0.61500  0.14860  1.0000 0.1125165367
H   H25       1.0  0.23390  0.22050  0.51150  1.0000 0.0988123985
H   H26       1.0  0.22050  0.23390  0.03410  1.0000 0.0988123985
H   H27       1.0  0.51150  0.03410  0.23390  1.0000 0.0988123985
H   H28       1.0  0.03410  0.51150  0.22050  1.0000 0.0988123985
H   H29       1.0  0.01610  0.02950  0.73850  1.0000 0.0988123985
H   H30       1.0  0.02950  0.01610  0.21590  1.0000 0.0988123985
H   H31       1.0  0.73850  0.21590  0.01610  1.0000 0.0988123985
H   H32       1.0  0.21590  0.73850  0.02950  1.0000 0.0988123985
H   H33       1.0  0.29680  0.90420  0.31380  1.0000 0.0988123985
H   H34       1.0  0.90420  0.29680  0.48520  1.0000 0.0988123985
H   H35       1.0  0.31380  0.48520  0.29680  1.0000 0.0988123985
H   H36       1.0  0.48520  0.31380  0.90420  1.0000 0.0988123985
H   H37       1.0  0.95320  0.34580  0.93620  1.0000 0.0988123985
H   H38       1.0  0.34580  0.95320  0.76480  1.0000 0.0988123985
H   H39       1.0  0.93620  0.76480  0.95320  1.0000 0.0988123985
H   H40       1.0  0.76480  0.93620  0.34580  1.0000 0.0988123985
H   H41       1.0  0.36070  0.82250  0.39450  1.0000 0.0988123985
H   H42       1.0  0.82250  0.36070  0.42230  1.0000 0.0988123985
H   H43       1.0  0.39450  0.42230  0.36070  1.0000 0.0988123985
H   H44       1.0  0.42230  0.39450  0.82250  1.0000 0.0988123985
H   H45       1.0  0.88930  0.42750  0.85550  1.0000 0.0988123985
H   H46       1.0  0.42750  0.88930  0.82770  1.0000 0.0988123985
H   H47       1.0  0.85550  0.82770  0.88930  1.0000 0.0988123985
H   H48       1.0  0.82770  0.85550  0.42750  1.0000 0.0988123985
H   H49       1.0  0.45590  0.71790  0.12630  1.0000 0.0988123985
H   H50       1.0  0.71790  0.45590  0.69990  1.0000 0.0988123985
H   H51       1.0  0.12630  0.69990  0.45590  1.0000 0.0988123985
H   H52       1.0  0.69990  0.12630  0.71790  1.0000 0.0988123985
H   H53       1.0  0.79410  0.53210  0.12370  1.0000 0.0988123985
H   H54       1.0  0.53210  0.79410  0.55010  1.0000 0.0988123985
H   H55       1.0  0.12370  0.55010  0.79410  1.0000 0.0988123985
H   H56       1.0  0.55010  0.12370  0.53210  1.0000 0.0988123985
H   H57       1.0  0.51870  0.62790  0.20450  1.0000 0.0920347346
H   H58       1.0  0.62790  0.51870  0.64890  1.0000 0.0920347346
H   H59       1.0  0.20450  0.64890  0.51870  1.0000 0.0920347346
H   H60       1.0  0.64890  0.20450  0.62790  1.0000 0.0920347346
H   H61       1.0  0.73130  0.62210  0.04550  1.0000 0.0920347346
H   H62       1.0  0.62210  0.73130  0.60110  1.0000 0.0920347346
H   H63       1.0  0.04550  0.60110  0.73130  1.0000 0.0920347346
H   H64       1.0  0.60110  0.04550  0.62210  1.0000 0.0920347346
H   H65       1.0  0.59060  0.64400  0.29160  1.0000 0.0920347346
H   H66       1.0  0.64400  0.59060  0.47380  1.0000 0.0920347346
H   H67       1.0  0.29160  0.47380  0.59060  1.0000 0.0920347346
H   H68       1.0  0.47380  0.29160  0.64400  1.0000 0.0920347346
H   H69       1.0  0.65940  0.60600  0.95840  1.0000 0.0920347346
H   H70       1.0  0.60600  0.65940  0.77620  1.0000 0.0920347346
H   H71       1.0  0.95840  0.77620  0.65940  1.0000 0.0920347346
H   H72       1.0  0.77620  0.95840  0.60600  1.0000 0.0920347346
H   H73       1.0  0.57740  0.74400  0.27300  1.0000 0.0988123985
H   H74       1.0  0.74400  0.57740  0.40560  1.0000 0.0988123985
H   H75       1.0  0.27300  0.40560  0.57740  1.0000 0.0988123985
H   H76       1.0  0.40560  0.27300  0.74400  1.0000 0.0988123985
H   H77       1.0  0.67260  0.50600  0.97700  1.0000 0.0988123985
H   H78       1.0  0.50600  0.67260  0.84440  1.0000 0.0988123985
H   H79       1.0  0.97700  0.84440  0.67260  1.0000 0.0988123985
H   H80       1.0  0.84440  0.97700  0.50600  1.0000 0.0988123985
C   C1        1.0  0.30432  0.04452  0.32428  1.0000 -0.033643342
C   C2        1.0  0.04452  0.30432  0.32688  1.0000 -0.033643342
C   C3        1.0  0.32428  0.32688  0.30432  1.0000 -0.033643342
C   C4        1.0  0.32688  0.32428  0.04452  1.0000 -0.033643342
C   C5        1.0  0.94568  0.20548  0.92572  1.0000 -0.033643342
C   C6        1.0  0.20548  0.94568  0.92312  1.0000 -0.033643342
C   C7        1.0  0.92572  0.92312  0.94568  1.0000 -0.033643342
C   C8        1.0  0.92312  0.92572  0.20548  1.0000 -0.033643342
C   C9        1.0  0.32241  0.96641  0.39019  1.0000 0.0386835829
C   C10       1.0  0.96641  0.32241  0.32099  1.0000 0.0386835829
C   C11       1.0  0.39019  0.32099  0.32241  1.0000 0.0386835829
C   C12       1.0  0.32099  0.39019  0.96641  1.0000 0.0386835829
C   C13       1.0  0.92759  0.28359  0.85981  1.0000 0.0386835829
C   C14       1.0  0.28359  0.92759  0.92901  1.0000 0.0386835829
C   C15       1.0  0.85981  0.92901  0.92759  1.0000 0.0386835829
C   C16       1.0  0.92901  0.85981  0.28359  1.0000 0.0386835829
C   C17       1.0  0.29994  0.99034  0.51206  1.0000 -0.1484564246
C   C18       1.0  0.99034  0.29994  0.19766  1.0000 -0.1484564246
C   C19       1.0  0.51206  0.19766  0.29994  1.0000 -0.1484564246
C   C20       1.0  0.19766  0.51206  0.99034  1.0000 -0.1484564246
C   C21       1.0  0.95006  0.25966  0.73794  1.0000 -0.1484564246
C   C22       1.0  0.25966  0.95006  0.05234  1.0000 -0.1484564246
C   C23       1.0  0.73794  0.05234  0.95006  1.0000 -0.1484564246
C   C24       1.0  0.05234  0.73794  0.25966  1.0000 -0.1484564246
C   C25       1.0  0.26857  0.08537  0.55463  1.0000 -0.1580806662
C   C26       1.0  0.08537  0.26857  0.09143  1.0000 -0.1580806662
C   C27       1.0  0.55463  0.09143  0.26857  1.0000 -0.1580806662
C   C28       1.0  0.09143  0.55463  0.08537  1.0000 -0.1580806662
C   C29       1.0  0.98143  0.16463  0.69537  1.0000 -0.1580806662
C   C30       1.0  0.16463  0.98143  0.15857  1.0000 -0.1580806662
C   C31       1.0  0.69537  0.15857  0.98143  1.0000 -0.1580806662
C   C32       1.0  0.15857  0.69537  0.16463  1.0000 -0.1580806662
C   C33       1.0  0.25575  0.15555  0.48065  1.0000 0.0231623522
C   C34       1.0  0.15555  0.25575  0.10805  1.0000 0.0231623522
C   C35       1.0  0.48065  0.10805  0.25575  1.0000 0.0231623522
C   C36       1.0  0.10805  0.48065  0.15555  1.0000 0.0231623522
C   C37       1.0  0.99425  0.09445  0.76935  1.0000 0.0231623522
C   C38       1.0  0.09445  0.99425  0.14195  1.0000 0.0231623522
C   C39       1.0  0.76935  0.14195  0.99425  1.0000 0.0231623522
C   C40       1.0  0.14195  0.76935  0.09445  1.0000 0.0231623522
C   C41       1.0  0.36119  0.86339  0.33141  1.0000 -0.2105152366
C   C42       1.0  0.86339  0.36119  0.44401  1.0000 -0.2105152366
C   C43       1.0  0.33141  0.44401  0.36119  1.0000 -0.2105152366
C   C44       1.0  0.44401  0.33141  0.86339  1.0000 -0.2105152366
C   C45       1.0  0.88881  0.38661  0.91859  1.0000 -0.2105152366
C   C46       1.0  0.38661  0.88881  0.80599  1.0000 -0.2105152366
C   C47       1.0  0.91859  0.80599  0.88881  1.0000 -0.2105152366
C   C48       1.0  0.80599  0.91859  0.38661  1.0000 -0.2105152366
C   C49       1.0  0.52272  0.66892  0.14428  1.0000 -0.1580806662
C   C50       1.0  0.66892  0.52272  0.66408  1.0000 -0.1580806662
C   C51       1.0  0.14428  0.66408  0.52272  1.0000 -0.1580806662
C   C52       1.0  0.66408  0.14428  0.66892  1.0000 -0.1580806662
C   C53       1.0  0.72728  0.58108  0.10572  1.0000 -0.1580806662
C   C54       1.0  0.58108  0.72728  0.58592  1.0000 -0.1580806662
C   C55       1.0  0.10572  0.58592  0.72728  1.0000 -0.1580806662
C   C56       1.0  0.58592  0.10572  0.58108  1.0000 -0.1580806662
C   C57       1.0  0.59423  0.68503  0.23097  1.0000 -0.1580806662
C   C58       1.0  0.68503  0.59423  0.48977  1.0000 -0.1580806662
C   C59       1.0  0.23097  0.48977  0.59423  1.0000 -0.1580806662
C   C60       1.0  0.48977  0.23097  0.68503  1.0000 -0.1580806662
C   C61       1.0  0.65577  0.56497  0.01903  1.0000 -0.1580806662
C   C62       1.0  0.56497  0.65577  0.76023  1.0000 -0.1580806662
C   C63       1.0  0.01903  0.76023  0.65577  1.0000 -0.1580806662
C   C64       1.0  0.76023  0.01903  0.56497  1.0000 -0.1580806662
N   N1        1.0  0.27223  0.13743  0.36677  1.0000 -0.2180294824
N   N2        1.0  0.13743  0.27223  0.22357  1.0000 -0.2180294824
N   N3        1.0  0.36677  0.22357  0.27223  1.0000 -0.2180294824
N   N4        1.0  0.22357  0.36677  0.13743  1.0000 -0.2180294824
N   N5        1.0  0.97777  0.11257  0.88323  1.0000 -0.2180294824
N   N6        1.0  0.11257  0.97777  0.02643  1.0000 -0.2180294824
N   N7        1.0  0.88323  0.02643  0.97777  1.0000 -0.2180294824
N   N8        1.0  0.02643  0.88323  0.11257  1.0000 -0.2180294824
N   N9        1.0  0.49532  0.75952  0.20608  1.0000 -0.0887036455
N   N10       1.0  0.75952  0.49532  0.53908  1.0000 -0.0887036455
N   N11       1.0  0.20608  0.53908  0.49532  1.0000 -0.0887036455
N   N12       1.0  0.53908  0.20608  0.75952  1.0000 -0.0887036455
N   N13       1.0  0.75468  0.49048  0.04392  1.0000 -0.0887036455
N   N14       1.0  0.49048  0.75468  0.71092  1.0000 -0.0887036455
N   N15       1.0  0.04392  0.71092  0.75468  1.0000 -0.0887036455
N   N16       1.0  0.71092  0.04392  0.49048  1.0000 -0.0887036455
