# DDEC6 charges by PACMAN v1.1 (https://github.com/mtap-research/PACMAN-charge/)
data_2009[Cd][nuc]3[ASR]8
_chemical_formula_sum              "Cd4 H144 C192 N48"
_cell_length_a       15.8774
_cell_length_b       15.8774
_cell_length_c       21.474
_cell_angle_alpha    90
_cell_angle_beta     90
_cell_angle_gamma    90

_symmetry_space_group_name_H-M    "P 1"
_symmetry_Int_Tables_number       1

loop_
  _symmetry_equiv_pos_as_xyz
  'x, y, z'

loop_
  _atom_site_type_symbol
  _atom_site_label
  _atom_site_symmetry_multiplicity
  _atom_site_fract_x
  _atom_site_fract_y
  _atom_site_fract_z
  _atom_site_occupancy
  _atom_site_charge
Cd  Cd1       1.0  0.94079  0.05921  0.75000  1.0000 0.6451885565
Cd  Cd2       1.0  0.05921  0.94079  0.25000  1.0000 0.6451885565
Cd  Cd3       1.0  0.44079  0.44079  0.50000  1.0000 0.6451885565
Cd  Cd4       1.0  0.55921  0.55921  0.00000  1.0000 0.6451885565
H   H1        1.0  0.00800  0.23780  0.67510  1.0000 0.0921770534
H   H2        1.0  0.99200  0.76220  0.17510  1.0000 0.0921770534
H   H3        1.0  0.26220  0.50800  0.42510  1.0000 0.0921770534
H   H4        1.0  0.73780  0.49200  0.92510  1.0000 0.0921770534
H   H5        1.0  0.49200  0.73780  0.07490  1.0000 0.0921770534
H   H6        1.0  0.50800  0.26220  0.57490  1.0000 0.0921770534
H   H7        1.0  0.23780  0.00800  0.32490  1.0000 0.0921770534
H   H8        1.0  0.76220  0.99200  0.82490  1.0000 0.0921770534
H   H9        1.0  0.10040  0.34900  0.68530  1.0000 0.1261238451
H   H10       1.0  0.89960  0.65100  0.18530  1.0000 0.1261238451
H   H11       1.0  0.15100  0.60040  0.43530  1.0000 0.1261238451
H   H12       1.0  0.84900  0.39960  0.93530  1.0000 0.1261238451
H   H13       1.0  0.39960  0.84900  0.06470  1.0000 0.1261238451
H   H14       1.0  0.60040  0.15100  0.56470  1.0000 0.1261238451
H   H15       1.0  0.34900  0.10040  0.31470  1.0000 0.1261238451
H   H16       1.0  0.65100  0.89960  0.81470  1.0000 0.1261238451
H   H17       1.0  0.15310  0.26760  0.85830  1.0000 0.1261238451
H   H18       1.0  0.84690  0.73240  0.35830  1.0000 0.1261238451
H   H19       1.0  0.23240  0.65310  0.60830  1.0000 0.1261238451
H   H20       1.0  0.76760  0.34690  0.10830  1.0000 0.1261238451
H   H21       1.0  0.34690  0.76760  0.89170  1.0000 0.1261238451
H   H22       1.0  0.65310  0.23240  0.39170  1.0000 0.1261238451
H   H23       1.0  0.26760  0.15310  0.14170  1.0000 0.1261238451
H   H24       1.0  0.73240  0.84690  0.64170  1.0000 0.1261238451
H   H25       1.0  0.05890  0.15870  0.84300  1.0000 0.0993704074
H   H26       1.0  0.94110  0.84130  0.34300  1.0000 0.0993704074
H   H27       1.0  0.34130  0.55890  0.59300  1.0000 0.0993704074
H   H28       1.0  0.65870  0.44110  0.09300  1.0000 0.0993704074
H   H29       1.0  0.44110  0.65870  0.90700  1.0000 0.0993704074
H   H30       1.0  0.55890  0.34130  0.40700  1.0000 0.0993704074
H   H31       1.0  0.15870  0.05890  0.15700  1.0000 0.0993704074
H   H32       1.0  0.84130  0.94110  0.65700  1.0000 0.0993704074
H   H33       1.0  0.15910  0.46850  0.71410  1.0000 0.1101038798
H   H34       1.0  0.84090  0.53150  0.21410  1.0000 0.1101038798
H   H35       1.0  0.03150  0.65910  0.46410  1.0000 0.1101038798
H   H36       1.0  0.96850  0.34090  0.96410  1.0000 0.1101038798
H   H37       1.0  0.34090  0.96850  0.03590  1.0000 0.1101038798
H   H38       1.0  0.65910  0.03150  0.53590  1.0000 0.1101038798
H   H39       1.0  0.46850  0.15910  0.28590  1.0000 0.1101038798
H   H40       1.0  0.53150  0.84090  0.78590  1.0000 0.1101038798
H   H41       1.0  0.26490  0.56820  0.72250  1.0000 0.1101038798
H   H42       1.0  0.73510  0.43180  0.22250  1.0000 0.1101038798
H   H43       1.0  0.93180  0.76490  0.47250  1.0000 0.1101038798
H   H44       1.0  0.06820  0.23510  0.97250  1.0000 0.1101038798
H   H45       1.0  0.23510  0.06820  0.02750  1.0000 0.1101038798
H   H46       1.0  0.76490  0.93180  0.52750  1.0000 0.1101038798
H   H47       1.0  0.56820  0.26490  0.27750  1.0000 0.1101038798
H   H48       1.0  0.43180  0.73510  0.77750  1.0000 0.1101038798
H   H49       1.0  0.37690  0.54840  0.79130  1.0000 0.1101038798
H   H50       1.0  0.62310  0.45160  0.29130  1.0000 0.1101038798
H   H51       1.0  0.95160  0.87690  0.54130  1.0000 0.1101038798
H   H52       1.0  0.04840  0.12310  0.04130  1.0000 0.1101038798
H   H53       1.0  0.12310  0.04840  0.95870  1.0000 0.1101038798
H   H54       1.0  0.87690  0.95160  0.45870  1.0000 0.1101038798
H   H55       1.0  0.54840  0.37690  0.20870  1.0000 0.1101038798
H   H56       1.0  0.45160  0.62310  0.70870  1.0000 0.1101038798
H   H57       1.0  0.27520  0.32670  0.84500  1.0000 0.0993704074
H   H58       1.0  0.72480  0.67330  0.34500  1.0000 0.0993704074
H   H59       1.0  0.17330  0.77520  0.59500  1.0000 0.0993704074
H   H60       1.0  0.82670  0.22480  0.09500  1.0000 0.0993704074
H   H61       1.0  0.22480  0.82670  0.90500  1.0000 0.0993704074
H   H62       1.0  0.77520  0.17330  0.40500  1.0000 0.0993704074
H   H63       1.0  0.32670  0.27520  0.15500  1.0000 0.0993704074
H   H64       1.0  0.67330  0.72480  0.65500  1.0000 0.0993704074
H   H65       1.0  0.49220  0.29920  0.04140  1.0000 0.1101038798
H   H66       1.0  0.50780  0.70080  0.54140  1.0000 0.1101038798
H   H67       1.0  0.20080  0.99220  0.79140  1.0000 0.1101038798
H   H68       1.0  0.79920  0.00780  0.29140  1.0000 0.1101038798
H   H69       1.0  0.00780  0.79920  0.70860  1.0000 0.1101038798
H   H70       1.0  0.99220  0.20080  0.20860  1.0000 0.1101038798
H   H71       1.0  0.29920  0.49220  0.95860  1.0000 0.1101038798
H   H72       1.0  0.70080  0.50780  0.45860  1.0000 0.1101038798
H   H73       1.0  0.58550  0.20230  0.08630  1.0000 0.1101038798
H   H74       1.0  0.41450  0.79770  0.58630  1.0000 0.1101038798
H   H75       1.0  0.29770  0.08550  0.83630  1.0000 0.1101038798
H   H76       1.0  0.70230  0.91450  0.33630  1.0000 0.1101038798
H   H77       1.0  0.91450  0.70230  0.66370  1.0000 0.1101038798
H   H78       1.0  0.08550  0.29770  0.16370  1.0000 0.1101038798
H   H79       1.0  0.20230  0.58550  0.91370  1.0000 0.1101038798
H   H80       1.0  0.79770  0.41450  0.41370  1.0000 0.1101038798
H   H81       1.0  0.69940  0.15170  0.03150  1.0000 0.0993704074
H   H82       1.0  0.30060  0.84830  0.53150  1.0000 0.0993704074
H   H83       1.0  0.34830  0.19940  0.78150  1.0000 0.0993704074
H   H84       1.0  0.65170  0.80060  0.28150  1.0000 0.0993704074
H   H85       1.0  0.80060  0.65170  0.71850  1.0000 0.0993704074
H   H86       1.0  0.19940  0.34830  0.21850  1.0000 0.0993704074
H   H87       1.0  0.15170  0.69940  0.96850  1.0000 0.0993704074
H   H88       1.0  0.84830  0.30060  0.46850  1.0000 0.0993704074
H   H89       1.0  0.63870  0.30520  0.88790  1.0000 0.1101038798
H   H90       1.0  0.36130  0.69480  0.38790  1.0000 0.1101038798
H   H91       1.0  0.19480  0.13870  0.63790  1.0000 0.1101038798
H   H92       1.0  0.80520  0.86130  0.13790  1.0000 0.1101038798
H   H93       1.0  0.86130  0.80520  0.86210  1.0000 0.1101038798
H   H94       1.0  0.13870  0.19480  0.36210  1.0000 0.1101038798
H   H95       1.0  0.30520  0.63870  0.11210  1.0000 0.1101038798
H   H96       1.0  0.69480  0.36130  0.61210  1.0000 0.1101038798
H   H97       1.0  0.78580  0.08850  0.96750  1.0000 0.1261238451
H   H98       1.0  0.21420  0.91150  0.46750  1.0000 0.1261238451
H   H99       1.0  0.41150  0.28580  0.71750  1.0000 0.1261238451
H   H100      1.0  0.58850  0.71420  0.21750  1.0000 0.1261238451
H   H101      1.0  0.71420  0.58850  0.78250  1.0000 0.1261238451
H   H102      1.0  0.28580  0.41150  0.28250  1.0000 0.1261238451
H   H103      1.0  0.08850  0.78580  0.03250  1.0000 0.1261238451
H   H104      1.0  0.91150  0.21420  0.53250  1.0000 0.1261238451
H   H105      1.0  0.88920  0.03960  0.90200  1.0000 0.0993704074
H   H106      1.0  0.11080  0.96040  0.40200  1.0000 0.0993704074
H   H107      1.0  0.46040  0.38920  0.65200  1.0000 0.0993704074
H   H108      1.0  0.53960  0.61080  0.15200  1.0000 0.0993704074
H   H109      1.0  0.61080  0.53960  0.84800  1.0000 0.0993704074
H   H110      1.0  0.38920  0.46040  0.34800  1.0000 0.0993704074
H   H111      1.0  0.03960  0.88920  0.09800  1.0000 0.0993704074
H   H112      1.0  0.96040  0.11080  0.59800  1.0000 0.0993704074
H   H113      1.0  0.86060  0.23170  0.79040  1.0000 0.0921770534
H   H114      1.0  0.13940  0.76830  0.29040  1.0000 0.0921770534
H   H115      1.0  0.26830  0.36060  0.54040  1.0000 0.0921770534
H   H116      1.0  0.73170  0.63940  0.04040  1.0000 0.0921770534
H   H117      1.0  0.63940  0.73170  0.95960  1.0000 0.0921770534
H   H118      1.0  0.36060  0.26830  0.45960  1.0000 0.0921770534
H   H119      1.0  0.23170  0.86060  0.20960  1.0000 0.0921770534
H   H120      1.0  0.76830  0.13940  0.70960  1.0000 0.0921770534
H   H121      1.0  0.75930  0.28910  0.85350  1.0000 0.1261238451
H   H122      1.0  0.24070  0.71090  0.35350  1.0000 0.1261238451
H   H123      1.0  0.21090  0.25930  0.60350  1.0000 0.1261238451
H   H124      1.0  0.78910  0.74070  0.10350  1.0000 0.1261238451
H   H125      1.0  0.74070  0.78910  0.89650  1.0000 0.1261238451
H   H126      1.0  0.25930  0.21090  0.39650  1.0000 0.1261238451
H   H127      1.0  0.28910  0.75930  0.14650  1.0000 0.1261238451
H   H128      1.0  0.71090  0.24070  0.64650  1.0000 0.1261238451
H   H129      1.0  0.47210  0.24390  0.85730  1.0000 0.2563320188
H   H130      1.0  0.52790  0.75610  0.35730  1.0000 0.2563320188
H   H131      1.0  0.25610  0.97210  0.60730  1.0000 0.2563320188
H   H132      1.0  0.74390  0.02790  0.10730  1.0000 0.2563320188
H   H133      1.0  0.02790  0.74390  0.89270  1.0000 0.2563320188
H   H134      1.0  0.97210  0.25610  0.39270  1.0000 0.2563320188
H   H135      1.0  0.24390  0.47210  0.14270  1.0000 0.2563320188
H   H136      1.0  0.75610  0.52790  0.64270  1.0000 0.2563320188
H   H137      1.0  0.39680  0.24230  0.89850  1.0000 0.2465415387
H   H138      1.0  0.60320  0.75770  0.39850  1.0000 0.2465415387
H   H139      1.0  0.25770  0.89680  0.64850  1.0000 0.2465415387
H   H140      1.0  0.74230  0.10320  0.14850  1.0000 0.2465415387
H   H141      1.0  0.10320  0.74230  0.85150  1.0000 0.2465415387
H   H142      1.0  0.89680  0.25770  0.35150  1.0000 0.2465415387
H   H143      1.0  0.24230  0.39680  0.10150  1.0000 0.2465415387
H   H144      1.0  0.75770  0.60320  0.60150  1.0000 0.2465415387
C   C1        1.0  0.03810  0.24360  0.71310  1.0000 0.0623922619
C   C2        1.0  0.96190  0.75640  0.21310  1.0000 0.0623922619
C   C3        1.0  0.25640  0.53810  0.46310  1.0000 0.0623922619
C   C4        1.0  0.74360  0.46190  0.96310  1.0000 0.0623922619
C   C5        1.0  0.46190  0.74360  0.03690  1.0000 0.0623922619
C   C6        1.0  0.53810  0.25640  0.53690  1.0000 0.0623922619
C   C7        1.0  0.24360  0.03810  0.28690  1.0000 0.0623922619
C   C8        1.0  0.75640  0.96190  0.78690  1.0000 0.0623922619
C   C9        1.0  0.09390  0.31010  0.71860  1.0000 -0.2083473881
C   C10       1.0  0.90610  0.68990  0.21860  1.0000 -0.2083473881
C   C11       1.0  0.18990  0.59390  0.46860  1.0000 -0.2083473881
C   C12       1.0  0.81010  0.40610  0.96860  1.0000 -0.2083473881
C   C13       1.0  0.40610  0.81010  0.03140  1.0000 -0.2083473881
C   C14       1.0  0.59390  0.18990  0.53140  1.0000 -0.2083473881
C   C15       1.0  0.31010  0.09390  0.28140  1.0000 -0.2083473881
C   C16       1.0  0.68990  0.90610  0.78140  1.0000 -0.2083473881
C   C17       1.0  0.13990  0.32000  0.77240  1.0000 0.1101038798
C   C18       1.0  0.86010  0.68000  0.27240  1.0000 0.1101038798
C   C19       1.0  0.18000  0.63990  0.52240  1.0000 0.1101038798
C   C20       1.0  0.82000  0.36010  0.02240  1.0000 0.1101038798
C   C21       1.0  0.36010  0.82000  0.97760  1.0000 0.1101038798
C   C22       1.0  0.63990  0.18000  0.47760  1.0000 0.1101038798
C   C23       1.0  0.32000  0.13990  0.22760  1.0000 0.1101038798
C   C24       1.0  0.68000  0.86010  0.72760  1.0000 0.1101038798
C   C25       1.0  0.12460  0.26260  0.81960  1.0000 -0.2020178243
C   C26       1.0  0.87540  0.73740  0.31960  1.0000 -0.2020178243
C   C27       1.0  0.23740  0.62460  0.56960  1.0000 -0.2020178243
C   C28       1.0  0.76260  0.37540  0.06960  1.0000 -0.2020178243
C   C29       1.0  0.37540  0.76260  0.93040  1.0000 -0.2020178243
C   C30       1.0  0.62460  0.23740  0.43040  1.0000 -0.2020178243
C   C31       1.0  0.26260  0.12460  0.18040  1.0000 -0.2020178243
C   C32       1.0  0.73740  0.87540  0.68040  1.0000 -0.2020178243
C   C33       1.0  0.06760  0.19790  0.81010  1.0000 0.0623922619
C   C34       1.0  0.93240  0.80210  0.31010  1.0000 0.0623922619
C   C35       1.0  0.30210  0.56760  0.56010  1.0000 0.0623922619
C   C36       1.0  0.69790  0.43240  0.06010  1.0000 0.0623922619
C   C37       1.0  0.43240  0.69790  0.93990  1.0000 0.0623922619
C   C38       1.0  0.56760  0.30210  0.43990  1.0000 0.0623922619
C   C39       1.0  0.19790  0.06760  0.18990  1.0000 0.0623922619
C   C40       1.0  0.80210  0.93240  0.68990  1.0000 0.0623922619
C   C41       1.0  0.20660  0.38640  0.77890  1.0000 0.0711871585
C   C42       1.0  0.79340  0.61360  0.27890  1.0000 0.0711871585
C   C43       1.0  0.11360  0.70660  0.52890  1.0000 0.0711871585
C   C44       1.0  0.88640  0.29340  0.02890  1.0000 0.0711871585
C   C45       1.0  0.29340  0.88640  0.97110  1.0000 0.0711871585
C   C46       1.0  0.70660  0.11360  0.47110  1.0000 0.0711871585
C   C47       1.0  0.38640  0.20660  0.22110  1.0000 0.0711871585
C   C48       1.0  0.61360  0.79340  0.72110  1.0000 0.0711871585
C   C49       1.0  0.20430  0.45970  0.74230  1.0000 -0.1615085374
C   C50       1.0  0.79570  0.54030  0.24230  1.0000 -0.1615085374
C   C51       1.0  0.04030  0.70430  0.49230  1.0000 -0.1615085374
C   C52       1.0  0.95970  0.29570  0.99230  1.0000 -0.1615085374
C   C53       1.0  0.29570  0.95970  0.00770  1.0000 -0.1615085374
C   C54       1.0  0.70430  0.04030  0.50770  1.0000 -0.1615085374
C   C55       1.0  0.45970  0.20430  0.25770  1.0000 -0.1615085374
C   C56       1.0  0.54030  0.79570  0.75770  1.0000 -0.1615085374
C   C57       1.0  0.26720  0.51870  0.74730  1.0000 -0.1130837635
C   C58       1.0  0.73280  0.48130  0.24730  1.0000 -0.1130837635
C   C59       1.0  0.98130  0.76720  0.49730  1.0000 -0.1130837635
C   C60       1.0  0.01870  0.23280  0.99730  1.0000 -0.1130837635
C   C61       1.0  0.23280  0.01870  0.00270  1.0000 -0.1130837635
C   C62       1.0  0.76720  0.98130  0.50270  1.0000 -0.1130837635
C   C63       1.0  0.51870  0.26720  0.25270  1.0000 -0.1130837635
C   C64       1.0  0.48130  0.73280  0.75270  1.0000 -0.1130837635
C   C65       1.0  0.33400  0.50700  0.78780  1.0000 -0.1615085374
C   C66       1.0  0.66600  0.49300  0.28780  1.0000 -0.1615085374
C   C67       1.0  0.99300  0.83400  0.53780  1.0000 -0.1615085374
C   C68       1.0  0.00700  0.16600  0.03780  1.0000 -0.1615085374
C   C69       1.0  0.16600  0.00700  0.96220  1.0000 -0.1615085374
C   C70       1.0  0.83400  0.99300  0.46220  1.0000 -0.1615085374
C   C71       1.0  0.50700  0.33400  0.21220  1.0000 -0.1615085374
C   C72       1.0  0.49300  0.66600  0.71220  1.0000 -0.1615085374
C   C73       1.0  0.33740  0.43400  0.82330  1.0000 0.0369724906
C   C74       1.0  0.66260  0.56600  0.32330  1.0000 0.0369724906
C   C75       1.0  0.06600  0.83740  0.57330  1.0000 0.0369724906
C   C76       1.0  0.93400  0.16260  0.07330  1.0000 0.0369724906
C   C77       1.0  0.16260  0.93400  0.92670  1.0000 0.0369724906
C   C78       1.0  0.83740  0.06600  0.42670  1.0000 0.0369724906
C   C79       1.0  0.43400  0.33740  0.17670  1.0000 0.0369724906
C   C80       1.0  0.56600  0.66260  0.67670  1.0000 0.0369724906
C   C81       1.0  0.27340  0.37540  0.81940  1.0000 -0.2020178243
C   C82       1.0  0.72660  0.62460  0.31940  1.0000 -0.2020178243
C   C83       1.0  0.12460  0.77340  0.56940  1.0000 -0.2020178243
C   C84       1.0  0.87540  0.22660  0.06940  1.0000 -0.2020178243
C   C85       1.0  0.22660  0.87540  0.93060  1.0000 -0.2020178243
C   C86       1.0  0.77340  0.12460  0.43060  1.0000 -0.2020178243
C   C87       1.0  0.37540  0.27340  0.18060  1.0000 -0.2020178243
C   C88       1.0  0.62460  0.72660  0.68060  1.0000 -0.2020178243
C   C89       1.0  0.40740  0.42580  0.86720  1.0000 0.1763532473
C   C90       1.0  0.59260  0.57420  0.36720  1.0000 0.1763532473
C   C91       1.0  0.07420  0.90740  0.61720  1.0000 0.1763532473
C   C92       1.0  0.92580  0.09260  0.11720  1.0000 0.1763532473
C   C93       1.0  0.09260  0.92580  0.88280  1.0000 0.1763532473
C   C94       1.0  0.90740  0.07420  0.38280  1.0000 0.1763532473
C   C95       1.0  0.42580  0.40740  0.13280  1.0000 0.1763532473
C   C96       1.0  0.57420  0.59260  0.63280  1.0000 0.1763532473
C   C97       1.0  0.50380  0.37470  0.93020  1.0000 0.1702865413
C   C98       1.0  0.49620  0.62530  0.43020  1.0000 0.1702865413
C   C99       1.0  0.12530  0.00380  0.68020  1.0000 0.1702865413
C   C100      1.0  0.87470  0.99620  0.18020  1.0000 0.1702865413
C   C101      1.0  0.99620  0.87470  0.81980  1.0000 0.1702865413
C   C102      1.0  0.00380  0.12530  0.31980  1.0000 0.1702865413
C   C103      1.0  0.37470  0.50380  0.06980  1.0000 0.1702865413
C   C104      1.0  0.62530  0.49620  0.56980  1.0000 0.1702865413
C   C105      1.0  0.55920  0.31240  0.96040  1.0000 0.0212139697
C   C106      1.0  0.44080  0.68760  0.46040  1.0000 0.0212139697
C   C107      1.0  0.18760  0.05920  0.71040  1.0000 0.0212139697
C   C108      1.0  0.81240  0.94080  0.21040  1.0000 0.0212139697
C   C109      1.0  0.94080  0.81240  0.78960  1.0000 0.0212139697
C   C110      1.0  0.05920  0.18760  0.28960  1.0000 0.0212139697
C   C111      1.0  0.31240  0.55920  0.03960  1.0000 0.0212139697
C   C112      1.0  0.68760  0.44080  0.53960  1.0000 0.0212139697
C   C113      1.0  0.54080  0.28100  0.01940  1.0000 -0.1695360183
C   C114      1.0  0.45920  0.71900  0.51940  1.0000 -0.1695360183
C   C115      1.0  0.21900  0.04080  0.76940  1.0000 -0.1695360183
C   C116      1.0  0.78100  0.95920  0.26940  1.0000 -0.1695360183
C   C117      1.0  0.95920  0.78100  0.73060  1.0000 -0.1695360183
C   C118      1.0  0.04080  0.21900  0.23060  1.0000 -0.1695360183
C   C119      1.0  0.28100  0.54080  0.98060  1.0000 -0.1695360183
C   C120      1.0  0.71900  0.45920  0.48060  1.0000 -0.1695360183
C   C121      1.0  0.59560  0.22240  0.04530  1.0000 -0.104598722
C   C122      1.0  0.40440  0.77760  0.54530  1.0000 -0.104598722
C   C123      1.0  0.27760  0.09560  0.79530  1.0000 -0.104598722
C   C124      1.0  0.72240  0.90440  0.29530  1.0000 -0.104598722
C   C125      1.0  0.90440  0.72240  0.70470  1.0000 -0.104598722
C   C126      1.0  0.09560  0.27760  0.20470  1.0000 -0.104598722
C   C127      1.0  0.22240  0.59560  0.95470  1.0000 -0.104598722
C   C128      1.0  0.77760  0.40440  0.45470  1.0000 -0.104598722
C   C129      1.0  0.66390  0.19290  0.01310  1.0000 -0.1695360183
C   C130      1.0  0.33610  0.80710  0.51310  1.0000 -0.1695360183
C   C131      1.0  0.30710  0.16390  0.76310  1.0000 -0.1695360183
C   C132      1.0  0.69290  0.83610  0.26310  1.0000 -0.1695360183
C   C133      1.0  0.83610  0.69290  0.73690  1.0000 -0.1695360183
C   C134      1.0  0.16390  0.30710  0.23690  1.0000 -0.1695360183
C   C135      1.0  0.19290  0.66390  0.98690  1.0000 -0.1695360183
C   C136      1.0  0.80710  0.33610  0.48690  1.0000 -0.1695360183
C   C137      1.0  0.68180  0.22280  0.95300  1.0000 0.0623922619
C   C138      1.0  0.31820  0.77720  0.45300  1.0000 0.0623922619
C   C139      1.0  0.27720  0.18180  0.70300  1.0000 0.0623922619
C   C140      1.0  0.72280  0.81820  0.20300  1.0000 0.0623922619
C   C141      1.0  0.81820  0.72280  0.79700  1.0000 0.0623922619
C   C142      1.0  0.18180  0.27720  0.29700  1.0000 0.0623922619
C   C143      1.0  0.22280  0.68180  0.04700  1.0000 0.0623922619
C   C144      1.0  0.77720  0.31820  0.54700  1.0000 0.0623922619
C   C145      1.0  0.62760  0.28340  0.92830  1.0000 -0.2020178243
C   C146      1.0  0.37240  0.71660  0.42830  1.0000 -0.2020178243
C   C147      1.0  0.21660  0.12760  0.67830  1.0000 -0.2020178243
C   C148      1.0  0.78340  0.87240  0.17830  1.0000 -0.2020178243
C   C149      1.0  0.87240  0.78340  0.82170  1.0000 -0.2020178243
C   C150      1.0  0.12760  0.21660  0.32170  1.0000 -0.2020178243
C   C151      1.0  0.28340  0.62760  0.07170  1.0000 -0.2020178243
C   C152      1.0  0.71660  0.37240  0.57170  1.0000 -0.2020178243
C   C153      1.0  0.75390  0.19250  0.91610  1.0000 0.1101038798
C   C154      1.0  0.24610  0.80750  0.41610  1.0000 0.1101038798
C   C155      1.0  0.30750  0.25390  0.66610  1.0000 0.1101038798
C   C156      1.0  0.69250  0.74610  0.16610  1.0000 0.1101038798
C   C157      1.0  0.74610  0.69250  0.83390  1.0000 0.1101038798
C   C158      1.0  0.25390  0.30750  0.33390  1.0000 0.1101038798
C   C159      1.0  0.19250  0.75390  0.08390  1.0000 0.1101038798
C   C160      1.0  0.80750  0.24610  0.58390  1.0000 0.1101038798
C   C161      1.0  0.79820  0.11850  0.93040  1.0000 -0.2153816321
C   C162      1.0  0.20180  0.88150  0.43040  1.0000 -0.2153816321
C   C163      1.0  0.38150  0.29820  0.68040  1.0000 -0.2153816321
C   C164      1.0  0.61850  0.70180  0.18040  1.0000 -0.2153816321
C   C165      1.0  0.70180  0.61850  0.81960  1.0000 -0.2153816321
C   C166      1.0  0.29820  0.38150  0.31960  1.0000 -0.2153816321
C   C167      1.0  0.11850  0.79820  0.06960  1.0000 -0.2153816321
C   C168      1.0  0.88150  0.20180  0.56960  1.0000 -0.2153816321
C   C169      1.0  0.85970  0.08930  0.89060  1.0000 0.0623922619
C   C170      1.0  0.14030  0.91070  0.39060  1.0000 0.0623922619
C   C171      1.0  0.41070  0.35970  0.64060  1.0000 0.0623922619
C   C172      1.0  0.58930  0.64030  0.14060  1.0000 0.0623922619
C   C173      1.0  0.64030  0.58930  0.85940  1.0000 0.0623922619
C   C174      1.0  0.35970  0.41070  0.35940  1.0000 0.0623922619
C   C175      1.0  0.08930  0.85970  0.10940  1.0000 0.0623922619
C   C176      1.0  0.91070  0.14030  0.60940  1.0000 0.0623922619
C   C177      1.0  0.84330  0.20120  0.82620  1.0000 0.0307538569
C   C178      1.0  0.15670  0.79880  0.32620  1.0000 0.0307538569
C   C179      1.0  0.29880  0.34330  0.57620  1.0000 0.0307538569
C   C180      1.0  0.70120  0.65670  0.07620  1.0000 0.0307538569
C   C181      1.0  0.65670  0.70120  0.92380  1.0000 0.0307538569
C   C182      1.0  0.34330  0.29880  0.42380  1.0000 0.0307538569
C   C183      1.0  0.20120  0.84330  0.17380  1.0000 0.0307538569
C   C184      1.0  0.79880  0.15670  0.67380  1.0000 0.0307538569
C   C185      1.0  0.78240  0.23560  0.86350  1.0000 -0.2083473881
C   C186      1.0  0.21760  0.76440  0.36350  1.0000 -0.2083473881
C   C187      1.0  0.26440  0.28240  0.61350  1.0000 -0.2083473881
C   C188      1.0  0.73560  0.71760  0.11350  1.0000 -0.2083473881
C   C189      1.0  0.71760  0.73560  0.88650  1.0000 -0.2083473881
C   C190      1.0  0.28240  0.26440  0.38650  1.0000 -0.2083473881
C   C191      1.0  0.23560  0.78240  0.13650  1.0000 -0.2083473881
C   C192      1.0  0.76440  0.21760  0.63650  1.0000 -0.2083473881
N   N1        1.0  0.02410  0.18740  0.75760  1.0000 -0.2317138524
N   N2        1.0  0.97590  0.81260  0.25760  1.0000 -0.2317138524
N   N3        1.0  0.31260  0.52410  0.50760  1.0000 -0.2317138524
N   N4        1.0  0.68740  0.47590  0.00760  1.0000 -0.2317138524
N   N5        1.0  0.47590  0.68740  0.99240  1.0000 -0.2317138524
N   N6        1.0  0.52410  0.31260  0.49240  1.0000 -0.2317138524
N   N7        1.0  0.18740  0.02410  0.24240  1.0000 -0.2317138524
N   N8        1.0  0.81260  0.97590  0.74240  1.0000 -0.2317138524
N   N9        1.0  0.44530  0.48990  0.89415  1.0000 -0.2864693166
N   N10       1.0  0.55470  0.51010  0.39415  1.0000 -0.2864693166
N   N11       1.0  0.01010  0.94530  0.64415  1.0000 -0.2864693166
N   N12       1.0  0.98990  0.05470  0.14415  1.0000 -0.2864693166
N   N13       1.0  0.05470  0.98990  0.85585  1.0000 -0.2864693166
N   N14       1.0  0.94530  0.01010  0.35585  1.0000 -0.2864693166
N   N15       1.0  0.48990  0.44530  0.10585  1.0000 -0.2864693166
N   N16       1.0  0.51010  0.55470  0.60585  1.0000 -0.2864693166
N   N17       1.0  0.50650  0.45690  0.93350  1.0000 -0.2317138524
N   N18       1.0  0.49350  0.54310  0.43350  1.0000 -0.2317138524
N   N19       1.0  0.04310  0.00650  0.68350  1.0000 -0.2317138524
N   N20       1.0  0.95690  0.99350  0.18350  1.0000 -0.2317138524
N   N21       1.0  0.99350  0.95690  0.81650  1.0000 -0.2317138524
N   N22       1.0  0.00650  0.04310  0.31650  1.0000 -0.2317138524
N   N23       1.0  0.45690  0.50650  0.06650  1.0000 -0.2317138524
N   N24       1.0  0.54310  0.49350  0.56650  1.0000 -0.2317138524
N   N25       1.0  0.44300  0.35250  0.88863  1.0000 0.0623922619
N   N26       1.0  0.55700  0.64750  0.38863  1.0000 0.0623922619
N   N27       1.0  0.14750  0.94300  0.63863  1.0000 0.0623922619
N   N28       1.0  0.85250  0.05700  0.13863  1.0000 0.0623922619
N   N29       1.0  0.05700  0.85250  0.86137  1.0000 0.0623922619
N   N30       1.0  0.94300  0.14750  0.36137  1.0000 0.0623922619
N   N31       1.0  0.35250  0.44300  0.11137  1.0000 0.0623922619
N   N32       1.0  0.64750  0.55700  0.61137  1.0000 0.0623922619
N   N33       1.0  0.42350  0.27110  0.86760  1.0000 -0.5118462132
N   N34       1.0  0.57650  0.72890  0.36760  1.0000 -0.5118462132
N   N35       1.0  0.22890  0.92350  0.61760  1.0000 -0.5118462132
N   N36       1.0  0.77110  0.07650  0.11760  1.0000 -0.5118462132
N   N37       1.0  0.07650  0.77110  0.88240  1.0000 -0.5118462132
N   N38       1.0  0.92350  0.22890  0.38240  1.0000 -0.5118462132
N   N39       1.0  0.27110  0.42350  0.13240  1.0000 -0.5118462132
N   N40       1.0  0.72890  0.57650  0.63240  1.0000 -0.5118462132
N   N41       1.0  0.88000  0.12640  0.83760  1.0000 -0.2317138524
N   N42       1.0  0.12000  0.87360  0.33760  1.0000 -0.2317138524
N   N43       1.0  0.37360  0.38000  0.58760  1.0000 -0.2317138524
N   N44       1.0  0.62640  0.62000  0.08760  1.0000 -0.2317138524
N   N45       1.0  0.62000  0.62640  0.91240  1.0000 -0.2317138524
N   N46       1.0  0.38000  0.37360  0.41240  1.0000 -0.2317138524
N   N47       1.0  0.12640  0.88000  0.16240  1.0000 -0.2317138524
N   N48       1.0  0.87360  0.12000  0.66240  1.0000 -0.2317138524
