# DDEC6 charges by PACMAN v1.1 (https://github.com/mtap-research/PACMAN-charge/)
data_2009[Mn][nan]3[ASR]2
_chemical_formula_sum              "Mn4 H40 C56 N8 O16"
_cell_length_a       11.885
_cell_length_b       11.885
_cell_length_c       16.344
_cell_angle_alpha    73.4831
_cell_angle_beta     106.517
_cell_angle_gamma    101.49

_symmetry_space_group_name_H-M    "P 1"
_symmetry_Int_Tables_number       1

loop_
  _symmetry_equiv_pos_as_xyz
  'x, y, z'

loop_
  _atom_site_type_symbol
  _atom_site_label
  _atom_site_symmetry_multiplicity
  _atom_site_fract_x
  _atom_site_fract_y
  _atom_site_fract_z
  _atom_site_occupancy
  _atom_site_charge
Mn  Mn1       1.0  0.11538  0.66750  0.45294  1.0000 0.9243854004
Mn  Mn2       1.0  0.66750  0.11538  0.04706  1.0000 0.9243854004
Mn  Mn3       1.0  0.88462  0.33250  0.54706  1.0000 0.9251335579
Mn  Mn4       1.0  0.33250  0.88462  0.95294  1.0000 0.9243854004
H   H1        1.0  0.66470  0.04730  0.46320  1.0000 0.2609861436
H   H2        1.0  0.04730  0.66470  0.03680  1.0000 0.2609861436
H   H3        1.0  0.33530  0.95270  0.53680  1.0000 0.2609861436
H   H4        1.0  0.95270  0.33530  0.96320  1.0000 0.2609861436
H   H5        1.0  0.64230  0.01290  0.25510  1.0000 0.1272947526
H   H6        1.0  0.01290  0.64230  0.24490  1.0000 0.1272947526
H   H7        1.0  0.35770  0.98710  0.74490  1.0000 0.1272947526
H   H8        1.0  0.98710  0.35770  0.75510  1.0000 0.1272947526
H   H9        1.0  0.31300  0.83620  0.22540  1.0000 0.1216034708
H   H10       1.0  0.83620  0.31300  0.27460  1.0000 0.1216034708
H   H11       1.0  0.68700  0.16380  0.77460  1.0000 0.1216034708
H   H12       1.0  0.16380  0.68700  0.72540  1.0000 0.1216034708
H   H13       1.0  0.47980  0.92480  0.45360  1.0000 0.1216034708
H   H14       1.0  0.92480  0.47980  0.04640  1.0000 0.1216034708
H   H15       1.0  0.52020  0.07520  0.54640  1.0000 0.1216034708
H   H16       1.0  0.07520  0.52020  0.95360  1.0000 0.1216034708
H   H17       1.0  0.76640  0.12240  0.32820  1.0000 0.1216034708
H   H18       1.0  0.12240  0.76640  0.17180  1.0000 0.1216034708
H   H19       1.0  0.23360  0.87760  0.67180  1.0000 0.1216034708
H   H20       1.0  0.87760  0.23360  0.82820  1.0000 0.1216034708
H   H21       1.0  0.82730  0.13810  0.42340  1.0000 0.1272947526
H   H22       1.0  0.13810  0.82730  0.07660  1.0000 0.1272947526
H   H23       1.0  0.17270  0.86190  0.57660  1.0000 0.1272947526
H   H24       1.0  0.86190  0.17270  0.92340  1.0000 0.1272947526
H   H25       1.0  0.79500  0.86580  0.50030  1.0000 0.1410049069
H   H26       1.0  0.86580  0.79500  0.99970  1.0000 0.1410049069
H   H27       1.0  0.20500  0.13420  0.49970  1.0000 0.1410049069
H   H28       1.0  0.13420  0.20500  0.00030  1.0000 0.1410049069
H   H29       1.0  0.95960  0.07780  0.32080  1.0000 0.1410049069
H   H30       1.0  0.07780  0.95960  0.17920  1.0000 0.1410049069
H   H31       1.0  0.04040  0.92220  0.67920  1.0000 0.1410049069
H   H32       1.0  0.92220  0.04040  0.82080  1.0000 0.1410049069
H   H33       1.0  0.07370  0.93210  0.34540  1.0000 0.0992039534
H   H34       1.0  0.93210  0.07370  0.15460  1.0000 0.0992039534
H   H35       1.0  0.92630  0.06790  0.65460  1.0000 0.0992039534
H   H36       1.0  0.06790  0.92630  0.84540  1.0000 0.0992039534
H   H37       1.0  0.91310  0.72570  0.51790  1.0000 0.1148515566
H   H38       1.0  0.72570  0.91310  0.98210  1.0000 0.1148515566
H   H39       1.0  0.08690  0.27430  0.48210  1.0000 0.1148515566
H   H40       1.0  0.27430  0.08690  0.01790  1.0000 0.1148515566
C   C1        1.0  0.57830  0.98170  0.36350  1.0000 0.2311148363
C   C2        1.0  0.98170  0.57830  0.13650  1.0000 0.2311148363
C   C3        1.0  0.42170  0.01830  0.63650  1.0000 0.2311148363
C   C4        1.0  0.01830  0.42170  0.86350  1.0000 0.2311148363
C   C5        1.0  0.47570  0.92550  0.22560  1.0000 -0.017138329
C   C6        1.0  0.92550  0.47570  0.27440  1.0000 -0.017138329
C   C7        1.0  0.52430  0.07450  0.77440  1.0000 -0.017138329
C   C8        1.0  0.07450  0.52430  0.72560  1.0000 -0.017138329
C   C9        1.0  0.27760  0.81020  0.38360  1.0000 0.5402490216
C   C10       1.0  0.81020  0.27760  0.11640  1.0000 0.5402490216
C   C11       1.0  0.72240  0.18980  0.61640  1.0000 0.5402490216
C   C12       1.0  0.18980  0.72240  0.88360  1.0000 0.5402490216
C   C13       1.0  0.38070  0.87370  0.34480  1.0000 -0.0018060786
C   C14       1.0  0.87370  0.38070  0.15520  1.0000 -0.0018060786
C   C15       1.0  0.61930  0.12630  0.65520  1.0000 -0.0018060786
C   C16       1.0  0.12630  0.61930  0.84480  1.0000 -0.0018060786
C   C17       1.0  0.57640  0.97900  0.27770  1.0000 -0.2067836915
C   C18       1.0  0.97900  0.57640  0.22230  1.0000 -0.2067836915
C   C19       1.0  0.42360  0.02100  0.72230  1.0000 -0.2067836915
C   C20       1.0  0.02100  0.42360  0.77770  1.0000 -0.2067836915
C   C21       1.0  0.37900  0.87260  0.25940  1.0000 -0.156185357
C   C22       1.0  0.87260  0.37900  0.24060  1.0000 -0.156185357
C   C23       1.0  0.62100  0.12740  0.74060  1.0000 -0.156185357
C   C24       1.0  0.12740  0.62100  0.75940  1.0000 -0.156185357
C   C25       1.0  0.85860  0.98660  0.40420  1.0000 0.1463191527
C   C26       1.0  0.98660  0.85860  0.09580  1.0000 0.1463191527
C   C27       1.0  0.14140  0.01340  0.59580  1.0000 0.1463191527
C   C28       1.0  0.01340  0.14140  0.90420  1.0000 0.1463191527
C   C29       1.0  0.47540  0.92660  0.13350  1.0000 0.5836515146
C   C30       1.0  0.92660  0.47540  0.36650  1.0000 0.5836515146
C   C31       1.0  0.52460  0.07340  0.86650  1.0000 0.5836515146
C   C32       1.0  0.07340  0.52460  0.63350  1.0000 0.5836515146
C   C33       1.0  0.47930  0.92630  0.39630  1.0000 -0.2204172184
C   C34       1.0  0.92630  0.47930  0.10370  1.0000 -0.2204172184
C   C35       1.0  0.52070  0.07370  0.60370  1.0000 -0.2204172184
C   C36       1.0  0.07370  0.52070  0.89630  1.0000 -0.2204172184
C   C37       1.0  0.78280  0.08120  0.39000  1.0000 -0.1384304669
C   C38       1.0  0.08120  0.78280  0.11000  1.0000 -0.1384304669
C   C39       1.0  0.21720  0.91880  0.61000  1.0000 -0.1384304669
C   C40       1.0  0.91880  0.21720  0.89000  1.0000 -0.1384304669
C   C41       1.0  0.84940  0.88080  0.46610  1.0000 -0.1933683586
C   C42       1.0  0.88080  0.84940  0.03390  1.0000 -0.1933683586
C   C43       1.0  0.15060  0.11920  0.53390  1.0000 -0.1933683586
C   C44       1.0  0.11920  0.15060  0.96610  1.0000 -0.1933683586
C   C45       1.0  0.94650  0.00590  0.36050  1.0000 -0.2204172184
C   C46       1.0  0.00590  0.94650  0.13950  1.0000 -0.2204172184
C   C47       1.0  0.05350  0.99410  0.63950  1.0000 -0.2204172184
C   C48       1.0  0.99410  0.05350  0.86050  1.0000 -0.2204172184
C   C49       1.0  0.01540  0.91720  0.37630  1.0000 0.080777414
C   C50       1.0  0.91720  0.01540  0.12370  1.0000 0.080777414
C   C51       1.0  0.98460  0.08280  0.62370  1.0000 0.080777414
C   C52       1.0  0.08280  0.98460  0.87630  1.0000 0.080777414
C   C53       1.0  0.92200  0.79740  0.47680  1.0000 0.0671982634
C   C54       1.0  0.79740  0.92200  0.02320  1.0000 0.0671982634
C   C55       1.0  0.07800  0.20260  0.52320  1.0000 0.0671982634
C   C56       1.0  0.20260  0.07800  0.97680  1.0000 0.0671982634
N   N1        1.0  0.00450  0.81370  0.43150  1.0000 -0.2404981089
N   N2        1.0  0.81370  0.00450  0.06850  1.0000 -0.2404981089
N   N3        1.0  0.99550  0.18630  0.56850  1.0000 -0.2404981089
N   N4        1.0  0.18630  0.99550  0.93150  1.0000 -0.2404981089
N   N5        1.0  0.67220  0.03780  0.41490  1.0000 -0.3065299374
N   N6        1.0  0.03780  0.67220  0.08510  1.0000 -0.3065299374
N   N7        1.0  0.32780  0.96220  0.58510  1.0000 -0.3065299374
N   N8        1.0  0.96220  0.32780  0.91490  1.0000 -0.3065299374
O   O1        1.0  0.18830  0.76250  0.33560  1.0000 -0.5599133653
O   O2        1.0  0.76250  0.18830  0.16440  1.0000 -0.5599133653
O   O3        1.0  0.81170  0.23750  0.66440  1.0000 -0.5599133653
O   O4        1.0  0.23750  0.81170  0.83560  1.0000 -0.5599133653
O   O5        1.0  0.28280  0.80280  0.46310  1.0000 -0.5599133653
O   O6        1.0  0.80280  0.28280  0.03690  1.0000 -0.5599133653
O   O7        1.0  0.71720  0.19720  0.53690  1.0000 -0.5599133653
O   O8        1.0  0.19720  0.71720  0.96310  1.0000 -0.5599133653
O   O9        1.0  0.38000  0.88560  0.08880  1.0000 -0.5599133653
O   O10       1.0  0.88560  0.38000  0.41120  1.0000 -0.5599133653
O   O11       1.0  0.62000  0.11440  0.91120  1.0000 -0.5549731535
O   O12       1.0  0.11440  0.62000  0.58880  1.0000 -0.5599133653
O   O13       1.0  0.56990  0.96230  0.10860  1.0000 -0.5702542198
O   O14       1.0  0.96230  0.56990  0.39140  1.0000 -0.5702542198
O   O15       1.0  0.43010  0.03770  0.89140  1.0000 -0.5702542198
O   O16       1.0  0.03770  0.43010  0.60860  1.0000 -0.5702542198
