# DDEC6 charges by PACMAN v1.1 (https://github.com/mtap-research/PACMAN-charge/)
data_2009[Zn][pts]3[ASR]1
_chemical_formula_sum              "Zn2 H4 C20 O16"
_cell_length_a       7.35624
_cell_length_b       7.35624
_cell_length_c       16.3
_cell_angle_alpha    89.2432
_cell_angle_beta     90.7568
_cell_angle_gamma    84.0989

_symmetry_space_group_name_H-M    "P 1"
_symmetry_Int_Tables_number       1

loop_
  _symmetry_equiv_pos_as_xyz
  'x, y, z'

loop_
  _atom_site_type_symbol
  _atom_site_label
  _atom_site_symmetry_multiplicity
  _atom_site_fract_x
  _atom_site_fract_y
  _atom_site_fract_z
  _atom_site_occupancy
  _atom_site_charge
Zn  Zn1       1.0  0.02042  0.02042  0.75000  1.0000 0.9334648169
Zn  Zn2       1.0  0.97958  0.97958  0.25000  1.0000 0.9334648169
H   H1        1.0  0.03780  0.18560  0.01140  1.0000 0.1344379327
H   H2        1.0  0.18560  0.03780  0.48860  1.0000 0.1344379327
H   H3        1.0  0.96220  0.81440  0.98860  1.0000 0.1344379327
H   H4        1.0  0.81440  0.96220  0.51140  1.0000 0.1344379327
C   C1        1.0  0.03570  0.39490  0.93010  1.0000 0.0023620127
C   C2        1.0  0.39490  0.03570  0.56990  1.0000 0.0023620127
C   C3        1.0  0.96430  0.60510  0.06990  1.0000 0.0023620127
C   C4        1.0  0.60510  0.96430  0.43010  1.0000 0.0023620127
C   C5        1.0  0.01370  0.58370  0.92270  1.0000 -0.0119766114
C   C6        1.0  0.58370  0.01370  0.57730  1.0000 -0.0119766114
C   C7        1.0  0.98630  0.41630  0.07730  1.0000 -0.0119766114
C   C8        1.0  0.41630  0.98630  0.42270  1.0000 -0.0119766114
C   C9        1.0  0.02240  0.31240  0.00680  1.0000 -0.0814524748
C   C10       1.0  0.31240  0.02240  0.49320  1.0000 -0.0814524748
C   C11       1.0  0.97760  0.68760  0.99320  1.0000 -0.0814524748
C   C12       1.0  0.68760  0.97760  0.50680  1.0000 -0.0814524748
C   C13       1.0  0.06550  0.26730  0.85850  1.0000 0.5414500378
C   C14       1.0  0.26730  0.06550  0.64150  1.0000 0.5414500378
C   C15       1.0  0.93450  0.73270  0.14150  1.0000 0.5414500378
C   C16       1.0  0.73270  0.93450  0.35850  1.0000 0.5414500378
C   C17       1.0  0.03340  0.68140  0.84150  1.0000 0.5414500378
C   C18       1.0  0.68140  0.03340  0.65850  1.0000 0.5414500378
C   C19       1.0  0.96660  0.31860  0.15850  1.0000 0.5414500378
C   C20       1.0  0.31860  0.96660  0.34150  1.0000 0.5414500378
O   O1        1.0  0.97270  0.84590  0.83810  1.0000 -0.4570399307
O   O2        1.0  0.84590  0.97270  0.66190  1.0000 -0.4570399307
O   O3        1.0  0.02730  0.15410  0.16190  1.0000 -0.4570399307
O   O4        1.0  0.15410  0.02730  0.33810  1.0000 -0.4570399307
O   O5        1.0  0.93010  0.24210  0.81450  1.0000 -0.410078735
O   O6        1.0  0.24210  0.93010  0.68550  1.0000 -0.410078735
O   O7        1.0  0.06990  0.75790  0.18550  1.0000 -0.410078735
O   O8        1.0  0.75790  0.06990  0.31450  1.0000 -0.410078735
O   O9        1.0  0.21570  0.18290  0.84980  1.0000 -0.3700198614
O   O10       1.0  0.18290  0.21570  0.65020  1.0000 -0.3700198614
O   O11       1.0  0.78430  0.81710  0.15020  1.0000 -0.3700198614
O   O12       1.0  0.81710  0.78430  0.34980  1.0000 -0.3700198614
O   O13       1.0  0.10930  0.59510  0.78580  1.0000 -0.3549278759
O   O14       1.0  0.59510  0.10930  0.71420  1.0000 -0.3561771296
O   O15       1.0  0.89070  0.40490  0.21420  1.0000 -0.3561771296
O   O16       1.0  0.40490  0.89070  0.28580  1.0000 -0.3561771296
