# DDEC6 charges by PACMAN v1.1 (https://github.com/mtap-research/PACMAN-charge/)
data_2009[CuLa][nan]3[ASR]1
_chemical_formula_sum              "La4 Cu4 P4 H24 C24 N4 O36"
_cell_length_a       8.3028
_cell_length_b       20.6398
_cell_length_c       9.463
_cell_angle_alpha    90
_cell_angle_beta     109.867
_cell_angle_gamma    90

_symmetry_space_group_name_H-M    "P 1"
_symmetry_Int_Tables_number       1

loop_
  _symmetry_equiv_pos_as_xyz
  'x, y, z'

loop_
  _atom_site_type_symbol
  _atom_site_label
  _atom_site_symmetry_multiplicity
  _atom_site_fract_x
  _atom_site_fract_y
  _atom_site_fract_z
  _atom_site_occupancy
  _atom_site_charge
La  La1       1.0  0.37685  0.64839  0.39893  1.0000 1.9353190612
La  La2       1.0  0.62315  0.14839  0.10107  1.0000 1.9353190612
La  La3       1.0  0.62315  0.35161  0.60107  1.0000 1.9353190612
La  La4       1.0  0.37685  0.85161  0.89893  1.0000 1.9340945434
Cu  Cu1       1.0  0.03685  0.70321  0.94895  1.0000 0.8711955052
Cu  Cu2       1.0  0.96315  0.20321  0.55105  1.0000 0.8711955052
Cu  Cu3       1.0  0.96315  0.29679  0.05105  1.0000 0.8711955052
Cu  Cu4       1.0  0.03685  0.79679  0.44895  1.0000 0.8711955052
P   P1        1.0  0.20913  0.69982  0.69441  1.0000 1.3428918671
P   P2        1.0  0.79087  0.19982  0.80559  1.0000 1.3428918671
P   P3        1.0  0.79087  0.30018  0.30559  1.0000 1.3428918671
P   P4        1.0  0.20913  0.80018  0.19441  1.0000 1.3428918671
H   H1        1.0  0.77930  0.59300  0.73920  1.0000 0.1517891482
H   H2        1.0  0.22070  0.09300  0.76080  1.0000 0.1517891482
H   H3        1.0  0.22070  0.40700  0.26080  1.0000 0.1517891482
H   H4        1.0  0.77930  0.90700  0.23920  1.0000 0.1517891482
H   H5        1.0  0.86720  0.60350  0.61420  1.0000 0.162848043
H   H6        1.0  0.13280  0.10350  0.88580  1.0000 0.162848043
H   H7        1.0  0.13280  0.39650  0.38580  1.0000 0.162848043
H   H8        1.0  0.86720  0.89650  0.11420  1.0000 0.162848043
H   H9        1.0  0.10620  0.53020  0.90110  1.0000 0.1517891482
H   H10       1.0  0.89380  0.03020  0.59890  1.0000 0.1517891482
H   H11       1.0  0.89380  0.46980  0.09890  1.0000 0.1517891482
H   H12       1.0  0.10620  0.96980  0.40110  1.0000 0.1517891482
H   H13       1.0  0.94510  0.55420  0.94430  1.0000 0.1442407619
H   H14       1.0  0.05490  0.05420  0.55570  1.0000 0.1442407619
H   H15       1.0  0.05490  0.44580  0.05570  1.0000 0.1442407619
H   H16       1.0  0.94510  0.94580  0.44430  1.0000 0.1442407619
H   H17       1.0  0.14300  0.59040  0.68040  1.0000 0.1720703345
H   H18       1.0  0.85700  0.09040  0.81960  1.0000 0.1720703345
H   H19       1.0  0.85700  0.40960  0.31960  1.0000 0.1720703345
H   H20       1.0  0.14300  0.90960  0.18040  1.0000 0.1720703345
H   H21       1.0  0.27710  0.60740  0.84250  1.0000 0.1720703345
H   H22       1.0  0.72290  0.10740  0.65750  1.0000 0.1720703345
H   H23       1.0  0.72290  0.39260  0.15750  1.0000 0.1720703345
H   H24       1.0  0.27710  0.89260  0.34250  1.0000 0.1720703345
C   C1        1.0  0.78080  0.68952  0.67750  1.0000 0.6491811227
C   C2        1.0  0.21920  0.18952  0.82250  1.0000 0.6491811227
C   C3        1.0  0.21920  0.31048  0.32250  1.0000 0.6491811227
C   C4        1.0  0.78080  0.81048  0.17750  1.0000 0.6491811227
C   C5        1.0  0.85700  0.62146  0.70780  1.0000 -0.2999547769
C   C6        1.0  0.14300  0.12146  0.79220  1.0000 -0.2999547769
C   C7        1.0  0.14300  0.37854  0.29220  1.0000 -0.2999547769
C   C8        1.0  0.85700  0.87854  0.20780  1.0000 -0.2999547769
C   C9        1.0  0.05600  0.56777  0.93630  1.0000 -0.2922684599
C   C10       1.0  0.94400  0.06777  0.56370  1.0000 -0.2922684599
C   C11       1.0  0.94400  0.43223  0.06370  1.0000 -0.2922684599
C   C12       1.0  0.05600  0.93223  0.43630  1.0000 -0.2922684599
C   C13       1.0  0.17650  0.59003  0.08930  1.0000 0.5957379293
C   C14       1.0  0.82350  0.09003  0.41070  1.0000 0.5957379293
C   C15       1.0  0.82350  0.40997  0.91070  1.0000 0.5957379293
C   C16       1.0  0.17650  0.90997  0.58930  1.0000 0.5957379293
C   C17       1.0  0.17060  0.62177  0.76370  1.0000 -0.4308590565
C   C18       1.0  0.82940  0.12177  0.73630  1.0000 -0.4308590565
C   C19       1.0  0.82940  0.37823  0.23630  1.0000 -0.4308590565
C   C20       1.0  0.17060  0.87823  0.26370  1.0000 -0.4308590565
C   C21       1.0  0.56920  0.50243  0.46190  1.0000 0.4909667771
C   C22       1.0  0.43080  0.00243  0.03810  1.0000 0.4909667771
C   C23       1.0  0.43080  0.49757  0.53810  1.0000 0.4909667771
C   C24       1.0  0.56920  0.99757  0.96190  1.0000 0.4909667771
N   N1        1.0  0.02870  0.62213  0.82730  1.0000 0.0174296282
N   N2        1.0  0.97130  0.12213  0.67270  1.0000 0.0174296282
N   N3        1.0  0.97130  0.37787  0.17270  1.0000 0.0174296282
N   N4        1.0  0.02870  0.87787  0.32730  1.0000 0.0174296282
O   O1        1.0  0.84250  0.73291  0.77830  1.0000 -0.5233058084
O   O2        1.0  0.15750  0.23291  0.72170  1.0000 -0.5233058084
O   O3        1.0  0.15750  0.26709  0.22170  1.0000 -0.5233058084
O   O4        1.0  0.84250  0.76709  0.27830  1.0000 -0.5233058084
O   O5        1.0  0.65840  0.69929  0.55890  1.0000 -0.5783548702
O   O6        1.0  0.34160  0.19929  0.94110  1.0000 -0.5783548702
O   O7        1.0  0.34160  0.30071  0.44110  1.0000 -0.5783548702
O   O8        1.0  0.65840  0.80071  0.05890  1.0000 -0.5783548702
O   O9        1.0  0.19930  0.65176  0.10880  1.0000 -0.5972114254
O   O10       1.0  0.80070  0.15176  0.39120  1.0000 -0.5972114254
O   O11       1.0  0.80070  0.34824  0.89120  1.0000 -0.5972114254
O   O12       1.0  0.19930  0.84824  0.60880  1.0000 -0.5972114254
O   O13       1.0  0.24480  0.55110  0.19080  1.0000 -0.5476304341
O   O14       1.0  0.75520  0.05110  0.30920  1.0000 -0.5476304341
O   O15       1.0  0.75520  0.44890  0.80920  1.0000 -0.5476304341
O   O16       1.0  0.24480  0.94890  0.69080  1.0000 -0.5476304341
O   O17       1.0  0.35670  0.69051  0.63630  1.0000 -0.8185783077
O   O18       1.0  0.64330  0.19051  0.86370  1.0000 -0.8185783077
O   O19       1.0  0.64330  0.30949  0.36370  1.0000 -0.8185783077
O   O20       1.0  0.35670  0.80949  0.13630  1.0000 -0.8185783077
O   O21       1.0  0.04350  0.71906  0.56490  1.0000 -0.748315816
O   O22       1.0  0.95650  0.21906  0.93510  1.0000 -0.748315816
O   O23       1.0  0.95650  0.28094  0.43510  1.0000 -0.748315816
O   O24       1.0  0.04350  0.78094  0.06490  1.0000 -0.748315816
O   O25       1.0  0.24840  0.74420  0.83030  1.0000 -0.862959807
O   O26       1.0  0.75160  0.24420  0.66970  1.0000 -0.862959807
O   O27       1.0  0.75160  0.25580  0.16970  1.0000 -0.862959807
O   O28       1.0  0.24840  0.75580  0.33030  1.0000 -0.862959807
O   O29       1.0  0.59130  0.55738  0.41230  1.0000 -0.5886799146
O   O30       1.0  0.40870  0.05738  0.08770  1.0000 -0.5886799146
O   O31       1.0  0.40870  0.44262  0.58770  1.0000 -0.5886799146
O   O32       1.0  0.59130  0.94262  0.91230  1.0000 -0.5886799146
O   O33       1.0  0.64990  0.45198  0.45670  1.0000 -0.5691048552
O   O34       1.0  0.35010  0.95198  0.04330  1.0000 -0.5691048552
O   O35       1.0  0.35010  0.54802  0.54330  1.0000 -0.5691048552
O   O36       1.0  0.64990  0.04802  0.95670  1.0000 -0.5691048552
