# DDEC6 charges by PACMAN v1.1 (https://github.com/mtap-research/PACMAN-charge/)
data_2009[Mn][nan]3[ASR]5
_chemical_formula_sum              "Mn4 H40 C56 N8 O16"
_cell_length_a       11.887
_cell_length_b       11.887
_cell_length_c       16.355
_cell_angle_alpha    73.3759
_cell_angle_beta     106.624
_cell_angle_gamma    101.581

_symmetry_space_group_name_H-M    "P 1"
_symmetry_Int_Tables_number       1

loop_
  _symmetry_equiv_pos_as_xyz
  'x, y, z'

loop_
  _atom_site_type_symbol
  _atom_site_label
  _atom_site_symmetry_multiplicity
  _atom_site_fract_x
  _atom_site_fract_y
  _atom_site_fract_z
  _atom_site_occupancy
  _atom_site_charge
Mn  Mn1       1.0  0.61587  0.16757  0.45333  1.0000 0.9232157439
Mn  Mn2       1.0  0.16757  0.61587  0.04667  1.0000 0.9232157439
Mn  Mn3       1.0  0.38413  0.83243  0.54667  1.0000 0.9232157439
Mn  Mn4       1.0  0.83243  0.38413  0.95333  1.0000 0.9232157439
H   H1        1.0  0.45260  0.83340  0.96280  1.0000 0.261455518
H   H2        1.0  0.83340  0.45260  0.53720  1.0000 0.261455518
H   H3        1.0  0.54740  0.16660  0.03720  1.0000 0.261455518
H   H4        1.0  0.16660  0.54740  0.46280  1.0000 0.261455518
H   H5        1.0  0.66330  0.18650  0.72550  1.0000 0.1202591804
H   H6        1.0  0.18650  0.66330  0.77450  1.0000 0.1202591804
H   H7        1.0  0.33670  0.81350  0.27450  1.0000 0.1202591804
H   H8        1.0  0.81350  0.33670  0.22550  1.0000 0.1202591804
H   H9        1.0  0.48600  0.85720  0.75460  1.0000 0.1277861062
H   H10       1.0  0.85720  0.48600  0.74540  1.0000 0.1277861062
H   H11       1.0  0.51400  0.14280  0.24540  1.0000 0.1277861062
H   H12       1.0  0.14280  0.51400  0.25460  1.0000 0.1277861062
H   H13       1.0  0.57390  0.02010  0.95340  1.0000 0.1202591804
H   H14       1.0  0.02010  0.57390  0.54660  1.0000 0.1202591804
H   H15       1.0  0.42610  0.97990  0.04660  1.0000 0.1202591804
H   H16       1.0  0.97990  0.42610  0.45340  1.0000 0.1202591804
H   H17       1.0  0.36080  0.67180  0.92190  1.0000 0.1277861062
H   H18       1.0  0.67180  0.36080  0.57810  1.0000 0.1277861062
H   H19       1.0  0.63920  0.32820  0.07810  1.0000 0.1277861062
H   H20       1.0  0.32820  0.63920  0.42190  1.0000 0.1277861062
H   H21       1.0  0.37810  0.73310  0.82710  1.0000 0.1202591804
H   H22       1.0  0.73310  0.37810  0.67290  1.0000 0.1202591804
H   H23       1.0  0.62190  0.26690  0.17290  1.0000 0.1202591804
H   H24       1.0  0.26690  0.62190  0.32710  1.0000 0.1202591804
H   H25       1.0  0.63620  0.70620  0.99700  1.0000 0.1418119689
H   H26       1.0  0.70620  0.63620  0.50300  1.0000 0.1418119689
H   H27       1.0  0.36380  0.29380  0.00300  1.0000 0.1418119689
H   H28       1.0  0.29380  0.36380  0.49700  1.0000 0.1418119689
H   H29       1.0  0.42390  0.54130  0.81970  1.0000 0.1418119689
H   H30       1.0  0.54130  0.42390  0.68030  1.0000 0.1418119689
H   H31       1.0  0.57610  0.45870  0.18030  1.0000 0.1418119689
H   H32       1.0  0.45870  0.57610  0.31970  1.0000 0.1418119689
H   H33       1.0  0.56620  0.42300  0.84760  1.0000 0.101736483
H   H34       1.0  0.42300  0.56620  0.65240  1.0000 0.101736483
H   H35       1.0  0.43380  0.57700  0.15240  1.0000 0.101736483
H   H36       1.0  0.57700  0.43380  0.34760  1.0000 0.101736483
H   H37       1.0  0.77360  0.58580  0.01820  1.0000 0.1202591804
H   H38       1.0  0.58580  0.77360  0.48180  1.0000 0.1202591804
H   H39       1.0  0.22640  0.41420  0.98180  1.0000 0.1202591804
H   H40       1.0  0.41420  0.22640  0.51820  1.0000 0.1202591804
C   C1        1.0  0.57320  0.02320  0.72620  1.0000 -0.009727699
C   C2        1.0  0.02320  0.57320  0.77380  1.0000 -0.009727699
C   C3        1.0  0.42680  0.97680  0.27380  1.0000 -0.009727699
C   C4        1.0  0.97680  0.42680  0.22620  1.0000 -0.009727699
C   C5        1.0  0.51800  0.92160  0.86240  1.0000 0.2282387435
C   C6        1.0  0.92160  0.51800  0.63760  1.0000 0.2282387435
C   C7        1.0  0.48200  0.07840  0.13760  1.0000 0.2282387435
C   C8        1.0  0.07840  0.48200  0.36240  1.0000 0.2282387435
C   C9        1.0  0.68920  0.22220  0.88330  1.0000 0.5402617872
C   C10       1.0  0.22220  0.68920  0.61670  1.0000 0.5402617872
C   C11       1.0  0.31080  0.77780  0.11670  1.0000 0.5402617872
C   C12       1.0  0.77780  0.31080  0.38330  1.0000 0.5402617872
C   C13       1.0  0.62690  0.12050  0.75970  1.0000 -0.15858953
C   C14       1.0  0.12050  0.62690  0.74030  1.0000 -0.15858953
C   C15       1.0  0.37310  0.87950  0.24030  1.0000 -0.15858953
C   C16       1.0  0.87950  0.37310  0.25970  1.0000 -0.15858953
C   C17       1.0  0.62600  0.11900  0.84480  1.0000 0.0010951113
C   C18       1.0  0.11900  0.62600  0.65520  1.0000 0.0010951113
C   C19       1.0  0.37400  0.88100  0.15520  1.0000 0.0010951113
C   C20       1.0  0.88100  0.37400  0.34480  1.0000 0.0010951113
C   C21       1.0  0.51990  0.92290  0.77730  1.0000 -0.2061984122
C   C22       1.0  0.92290  0.51990  0.72270  1.0000 -0.2061984122
C   C23       1.0  0.48010  0.07710  0.22270  1.0000 -0.2061984122
C   C24       1.0  0.07710  0.48010  0.27730  1.0000 -0.2061984122
C   C25       1.0  0.57310  0.02330  0.63350  1.0000 0.583788079
C   C26       1.0  0.02330  0.57310  0.86650  1.0000 0.583788079
C   C27       1.0  0.42690  0.97670  0.36650  1.0000 0.583788079
C   C28       1.0  0.97670  0.42690  0.13350  1.0000 0.583788079
C   C29       1.0  0.57310  0.02070  0.89620  1.0000 -0.2193241001
C   C30       1.0  0.02070  0.57310  0.60380  1.0000 -0.2193241001
C   C31       1.0  0.42690  0.97930  0.10380  1.0000 -0.2193241001
C   C32       1.0  0.97930  0.42690  0.39620  1.0000 -0.2193241001
C   C33       1.0  0.51210  0.64010  0.90380  1.0000 0.1418119689
C   C34       1.0  0.64010  0.51210  0.59620  1.0000 0.1418119689
C   C35       1.0  0.48790  0.35990  0.09620  1.0000 0.1418119689
C   C36       1.0  0.35990  0.48790  0.40380  1.0000 0.1418119689
C   C37       1.0  0.41860  0.71620  0.88900  1.0000 -0.1353405744
C   C38       1.0  0.71620  0.41860  0.61100  1.0000 -0.1353405744
C   C39       1.0  0.58140  0.28380  0.11100  1.0000 -0.1353405744
C   C40       1.0  0.28380  0.58140  0.38900  1.0000 -0.1353405744
C   C41       1.0  0.61970  0.64990  0.96430  1.0000 -0.1957874924
C   C42       1.0  0.64990  0.61970  0.53570  1.0000 -0.1957874924
C   C43       1.0  0.38030  0.35010  0.03570  1.0000 -0.1957874924
C   C44       1.0  0.35010  0.38030  0.46430  1.0000 -0.1957874924
C   C45       1.0  0.49490  0.55330  0.86060  1.0000 -0.2193241001
C   C46       1.0  0.55330  0.49490  0.63940  1.0000 -0.2193241001
C   C47       1.0  0.50510  0.44670  0.13940  1.0000 -0.2193241001
C   C48       1.0  0.44670  0.50510  0.36060  1.0000 -0.2193241001
C   C49       1.0  0.58230  0.48290  0.87710  1.0000 0.0751185238
C   C50       1.0  0.48290  0.58230  0.62290  1.0000 0.0751185238
C   C51       1.0  0.41770  0.51710  0.12290  1.0000 0.0751185238
C   C52       1.0  0.51710  0.41770  0.37710  1.0000 0.0751185238
C   C53       1.0  0.70250  0.57730  0.97650  1.0000 0.0650137558
C   C54       1.0  0.57730  0.70250  0.52350  1.0000 0.0650137558
C   C55       1.0  0.29750  0.42270  0.02350  1.0000 0.0650137558
C   C56       1.0  0.42270  0.29750  0.47650  1.0000 0.0650137558
N   N1        1.0  0.46180  0.82640  0.91420  1.0000 -0.3089001954
N   N2        1.0  0.82640  0.46180  0.58580  1.0000 -0.3089001954
N   N3        1.0  0.53820  0.17360  0.08580  1.0000 -0.3089001954
N   N4        1.0  0.17360  0.53820  0.41420  1.0000 -0.3089001954
N   N5        1.0  0.68650  0.49470  0.93170  1.0000 -0.2334982709
N   N6        1.0  0.49470  0.68650  0.56830  1.0000 -0.2334982709
N   N7        1.0  0.31350  0.50530  0.06830  1.0000 -0.2334982709
N   N8        1.0  0.50530  0.31350  0.43170  1.0000 -0.2334982709
O   O1        1.0  0.73740  0.31100  0.83620  1.0000 -0.5576781214
O   O2        1.0  0.31100  0.73740  0.66380  1.0000 -0.5576781214
O   O3        1.0  0.26260  0.68900  0.16380  1.0000 -0.5576781214
O   O4        1.0  0.68900  0.26260  0.33620  1.0000 -0.5576781214
O   O5        1.0  0.69610  0.21510  0.96370  1.0000 -0.5699609846
O   O6        1.0  0.21510  0.69610  0.53630  1.0000 -0.5699609846
O   O7        1.0  0.30390  0.78490  0.03630  1.0000 -0.5699609846
O   O8        1.0  0.78490  0.30390  0.46370  1.0000 -0.5699609846
O   O9        1.0  0.53670  0.93090  0.60790  1.0000 -0.5576781214
O   O10       1.0  0.93090  0.53670  0.89210  1.0000 -0.5576781214
O   O11       1.0  0.46330  0.06910  0.39210  1.0000 -0.5576781214
O   O12       1.0  0.06910  0.46330  0.10790  1.0000 -0.5576781214
O   O13       1.0  0.61340  0.12040  0.58760  1.0000 -0.5699609846
O   O14       1.0  0.12040  0.61340  0.91240  1.0000 -0.5699609846
O   O15       1.0  0.38660  0.87960  0.41240  1.0000 -0.5699609846
O   O16       1.0  0.87960  0.38660  0.08760  1.0000 -0.5699609846
