# DDEC6 charges by PACMAN v1.1 (https://github.com/mtap-research/PACMAN-charge/)
data_2009[Tb][pts]3[ASR]1
_chemical_formula_sum              "Tb4 H24 C30 N12 O24"
_cell_length_a       10.5484
_cell_length_b       10.5484
_cell_length_c       14.7243
_cell_angle_alpha    89.4298
_cell_angle_beta     90.5702
_cell_angle_gamma    74.3655

_symmetry_space_group_name_H-M    "P 1"
_symmetry_Int_Tables_number       1

loop_
  _symmetry_equiv_pos_as_xyz
  'x, y, z'

loop_
  _atom_site_type_symbol
  _atom_site_label
  _atom_site_symmetry_multiplicity
  _atom_site_fract_x
  _atom_site_fract_y
  _atom_site_fract_z
  _atom_site_occupancy
  _atom_site_charge
Tb  Tb1       1.0  0.57250  0.82528  0.55754  1.0000 2.0291823263
Tb  Tb2       1.0  0.82528  0.57250  0.94246  1.0000 2.0291823263
Tb  Tb3       1.0  0.42750  0.17472  0.44246  1.0000 2.0291823263
Tb  Tb4       1.0  0.17472  0.42750  0.05754  1.0000 2.0291823263
H   H1        1.0  0.78900  0.94020  0.28730  1.0000 0.1443028651
H   H2        1.0  0.94020  0.78900  0.21270  1.0000 0.1443028651
H   H3        1.0  0.21100  0.05980  0.71270  1.0000 0.1443028651
H   H4        1.0  0.05980  0.21100  0.78730  1.0000 0.1443028651
H   H5        1.0  0.64520  0.94740  0.25470  1.0000 0.1513858999
H   H6        1.0  0.94740  0.64520  0.24530  1.0000 0.1513858999
H   H7        1.0  0.35480  0.05260  0.74530  1.0000 0.1513858999
H   H8        1.0  0.05260  0.35480  0.75470  1.0000 0.1513858999
H   H9        1.0  0.32100  0.88640  0.24790  1.0000 0.1443028651
H   H10       1.0  0.88640  0.32100  0.25210  1.0000 0.1443028651
H   H11       1.0  0.67900  0.11360  0.75210  1.0000 0.1443028651
H   H12       1.0  0.11360  0.67900  0.74790  1.0000 0.1443028651
H   H13       1.0  0.20540  0.85880  0.30360  1.0000 0.1313889793
H   H14       1.0  0.85880  0.20540  0.19640  1.0000 0.1313889793
H   H15       1.0  0.79460  0.14120  0.69640  1.0000 0.1313889793
H   H16       1.0  0.14120  0.79460  0.80360  1.0000 0.1313889793
H   H17       1.0  0.32420  0.53800  0.34120  1.0000 0.1443028651
H   H18       1.0  0.53800  0.32420  0.15880  1.0000 0.1443028651
H   H19       1.0  0.67580  0.46200  0.65880  1.0000 0.1443028651
H   H20       1.0  0.46200  0.67580  0.84120  1.0000 0.1443028651
H   H21       1.0  0.19630  0.65450  0.33140  1.0000 0.1313889793
H   H22       1.0  0.65450  0.19630  0.16860  1.0000 0.1313889793
H   H23       1.0  0.80370  0.34550  0.66860  1.0000 0.1313889793
H   H24       1.0  0.34550  0.80370  0.83140  1.0000 0.1313889793
C   C1        1.0  0.68560  0.68560  0.25000  1.0000 0.4685964053
C   C2        1.0  0.31440  0.31440  0.75000  1.0000 0.4685964053
C   C3        1.0  0.48580  0.65440  0.26920  1.0000 0.4685964053
C   C4        1.0  0.65440  0.48580  0.23080  1.0000 0.4685964053
C   C5        1.0  0.51420  0.34560  0.73080  1.0000 0.4685964053
C   C6        1.0  0.34560  0.51420  0.76920  1.0000 0.4685964053
C   C7        1.0  0.71990  0.89550  0.28960  1.0000 -0.2392358963
C   C8        1.0  0.89550  0.71990  0.21040  1.0000 -0.2392358963
C   C9        1.0  0.28010  0.10450  0.71040  1.0000 -0.2392358963
C   C10       1.0  0.10450  0.28010  0.78960  1.0000 -0.2392358963
C   C11       1.0  0.67940  0.88480  0.38840  1.0000 0.6696580763
C   C12       1.0  0.88480  0.67940  0.11160  1.0000 0.6696580763
C   C13       1.0  0.32060  0.11520  0.61160  1.0000 0.6696580763
C   C14       1.0  0.11520  0.32060  0.88840  1.0000 0.6696580763
C   C15       1.0  0.30030  0.84150  0.30130  1.0000 -0.2506516163
C   C16       1.0  0.84150  0.30030  0.19870  1.0000 -0.2506516163
C   C17       1.0  0.69970  0.15850  0.69870  1.0000 -0.2506516163
C   C18       1.0  0.15850  0.69970  0.80130  1.0000 -0.2506516163
C   C19       1.0  0.34710  0.90030  0.38510  1.0000 0.6861910934
C   C20       1.0  0.90030  0.34710  0.11490  1.0000 0.6861910934
C   C21       1.0  0.65290  0.09970  0.61490  1.0000 0.6861910934
C   C22       1.0  0.09970  0.65290  0.88510  1.0000 0.6861910934
C   C23       1.0  0.27750  0.60970  0.30160  1.0000 -0.2506516163
C   C24       1.0  0.60970  0.27750  0.19840  1.0000 -0.2506516163
C   C25       1.0  0.72250  0.39030  0.69840  1.0000 -0.2506516163
C   C26       1.0  0.39030  0.72250  0.80160  1.0000 -0.2506516163
C   C27       1.0  0.24320  0.55280  0.21400  1.0000 0.60743567
C   C28       1.0  0.55280  0.24320  0.28600  1.0000 0.60743567
C   C29       1.0  0.75680  0.44720  0.78600  1.0000 0.60743567
C   C30       1.0  0.44720  0.75680  0.71400  1.0000 0.60743567
N   N1        1.0  0.55898  0.74018  0.26900  1.0000 -0.513882864
N   N2        1.0  0.74018  0.55898  0.23100  1.0000 -0.513882864
N   N3        1.0  0.44102  0.25982  0.73100  1.0000 -0.513882864
N   N4        1.0  0.25982  0.44102  0.76900  1.0000 -0.513882864
N   N5        1.0  0.52650  0.52650  0.25000  1.0000 -0.519090641
N   N6        1.0  0.47350  0.47350  0.75000  1.0000 -0.519090641
N   N7        1.0  0.76640  0.76640  0.25000  1.0000 -0.0494301577
N   N8        1.0  0.23360  0.23360  0.75000  1.0000 -0.0494301577
N   N9        1.0  0.35695  0.70115  0.29100  1.0000 -0.0655472934
N   N10       1.0  0.70115  0.35695  0.20900  1.0000 -0.0612963882
N   N11       1.0  0.64305  0.29885  0.70900  1.0000 -0.0655472934
N   N12       1.0  0.29885  0.64305  0.79100  1.0000 -0.0655472934
O   O1        1.0  0.73528  0.78716  0.43596  1.0000 -0.6163993512
O   O2        1.0  0.78716  0.73528  0.06404  1.0000 -0.6163993512
O   O3        1.0  0.26472  0.21284  0.56404  1.0000 -0.6163993512
O   O4        1.0  0.21284  0.26472  0.93596  1.0000 -0.6163993512
O   O5        1.0  0.58932  0.97652  0.42060  1.0000 -0.7238996808
O   O6        1.0  0.97652  0.58932  0.07940  1.0000 -0.7238996808
O   O7        1.0  0.41068  0.02348  0.57940  1.0000 -0.7238996808
O   O8        1.0  0.02348  0.41068  0.92060  1.0000 -0.7238996808
O   O9        1.0  0.40822  0.82454  0.44634  1.0000 -0.6562213485
O   O10       1.0  0.82454  0.40822  0.05366  1.0000 -0.6562213485
O   O11       1.0  0.59178  0.17546  0.55366  1.0000 -0.6562213485
O   O12       1.0  0.17546  0.59178  0.94634  1.0000 -0.6562213485
O   O13       1.0  0.31816  0.02450  0.38543  1.0000 -0.6701261883
O   O14       1.0  0.02450  0.31816  0.11457  1.0000 -0.6701261883
O   O15       1.0  0.68184  0.97550  0.61457  1.0000 -0.6701261883
O   O16       1.0  0.97550  0.68184  0.88543  1.0000 -0.6701261883
O   O17       1.0  0.20355  0.44907  0.21984  1.0000 -0.6562213485
O   O18       1.0  0.44907  0.20355  0.28016  1.0000 -0.6562213485
O   O19       1.0  0.79645  0.55093  0.78016  1.0000 -0.6562213485
O   O20       1.0  0.55093  0.79645  0.71984  1.0000 -0.6562213485
O   O21       1.0  0.24864  0.60446  0.13819  1.0000 -0.6163993512
O   O22       1.0  0.60446  0.24864  0.36181  1.0000 -0.6163993512
O   O23       1.0  0.75136  0.39554  0.86181  1.0000 -0.6163993512
O   O24       1.0  0.39554  0.75136  0.63819  1.0000 -0.6163993512
