# DDEC6 charges by PACMAN v1.1 (https://github.com/mtap-research/PACMAN-charge/)
data_2009[Nd][sxb]3[ASR]1
_chemical_formula_sum              "Nd8 H72 C168 S12 O72"
_cell_length_a       19.2141
_cell_length_b       19.2141
_cell_length_c       30.3812
_cell_angle_alpha    81.6051
_cell_angle_beta     98.3949
_cell_angle_gamma    133.996

_symmetry_space_group_name_H-M    "P 1"
_symmetry_Int_Tables_number       1

loop_
  _symmetry_equiv_pos_as_xyz
  'x, y, z'

loop_
  _atom_site_type_symbol
  _atom_site_label
  _atom_site_symmetry_multiplicity
  _atom_site_fract_x
  _atom_site_fract_y
  _atom_site_fract_z
  _atom_site_occupancy
  _atom_site_charge
Nd  Nd1       1.0  0.64950  0.23120  0.85895  1.0000 2.099936774
Nd  Nd2       1.0  0.76880  0.35050  0.35895  1.0000 2.099936774
Nd  Nd3       1.0  0.55980  0.39006  0.84321  1.0000 2.0714515951
Nd  Nd4       1.0  0.60994  0.44020  0.34321  1.0000 2.0714515951
Nd  Nd5       1.0  0.23120  0.64950  0.64105  1.0000 2.099936774
Nd  Nd6       1.0  0.35050  0.76880  0.14105  1.0000 2.099936774
Nd  Nd7       1.0  0.39006  0.55980  0.65679  1.0000 2.0714515951
Nd  Nd8       1.0  0.44020  0.60994  0.15679  1.0000 2.0714515951
H   H1        1.0  0.60460  0.41660  0.68900  1.0000 0.1406853099
H   H2        1.0  0.58340  0.39540  0.18900  1.0000 0.1406853099
H   H3        1.0  0.59890  0.20350  0.72300  1.0000 0.130545931
H   H4        1.0  0.79650  0.40110  0.22300  1.0000 0.130545931
H   H5        1.0  0.60220  0.19000  0.64990  1.0000 0.1187579083
H   H6        1.0  0.81000  0.39780  0.14990  1.0000 0.1187579083
H   H7        1.0  0.62810  0.21010  0.56880  1.0000 0.1187579083
H   H8        1.0  0.78990  0.37190  0.06880  1.0000 0.1187579083
H   H9        1.0  0.66130  0.46090  0.49570  1.0000 0.1406853099
H   H10       1.0  0.53910  0.33870  0.99570  1.0000 0.1406853099
H   H11       1.0  0.65570  0.24930  0.49420  1.0000 0.1187579083
H   H12       1.0  0.75070  0.34430  0.99420  1.0000 0.1187579083
H   H13       1.0  0.25040  0.09840  0.84060  1.0000 0.130545931
H   H14       1.0  0.90160  0.74960  0.34060  1.0000 0.130545931
H   H15       1.0  0.35470  0.97450  0.85210  1.0000 0.130545931
H   H16       1.0  0.02550  0.64530  0.35210  1.0000 0.130545931
H   H17       1.0  0.09160  0.94600  0.84080  1.0000 0.1187579083
H   H18       1.0  0.05400  0.90840  0.34080  1.0000 0.1187579083
H   H19       1.0  0.93290  0.77190  0.84440  1.0000 0.1187579083
H   H20       1.0  0.22810  0.06710  0.34440  1.0000 0.1187579083
H   H21       1.0  0.80260  0.60660  0.84930  1.0000 0.1187579083
H   H22       1.0  0.39340  0.19740  0.34930  1.0000 0.1187579083
H   H23       1.0  0.97920  0.56160  0.85800  1.0000 0.1406853099
H   H24       1.0  0.43840  0.02080  0.35800  1.0000 0.1406853099
H   H25       1.0  0.93780  0.27620  0.89860  1.0000 0.1406853099
H   H26       1.0  0.72380  0.06220  0.39860  1.0000 0.1406853099
H   H27       1.0  0.88890  0.29570  0.76710  1.0000 0.130545931
H   H28       1.0  0.70430  0.11110  0.26710  1.0000 0.130545931
H   H29       1.0  0.02590  0.33070  0.75420  1.0000 0.1187579083
H   H30       1.0  0.66930  0.97410  0.25420  1.0000 0.1187579083
H   H31       1.0  0.17480  0.35880  0.75330  1.0000 0.1187579083
H   H32       1.0  0.64120  0.82520  0.25330  1.0000 0.1187579083
H   H33       1.0  0.29160  0.34600  0.89670  1.0000 0.1406853099
H   H34       1.0  0.65400  0.70840  0.39670  1.0000 0.1406853099
H   H35       1.0  0.30900  0.37800  0.76310  1.0000 0.130545931
H   H36       1.0  0.62200  0.69100  0.26310  1.0000 0.130545931
H   H37       1.0  0.41660  0.60460  0.81100  1.0000 0.1406853099
H   H38       1.0  0.39540  0.58340  0.31100  1.0000 0.1406853099
H   H39       1.0  0.20350  0.59890  0.77700  1.0000 0.130545931
H   H40       1.0  0.40110  0.79650  0.27700  1.0000 0.130545931
H   H41       1.0  0.19000  0.60220  0.85010  1.0000 0.1187579083
H   H42       1.0  0.39780  0.81000  0.35010  1.0000 0.1187579083
H   H43       1.0  0.21010  0.62810  0.93120  1.0000 0.1187579083
H   H44       1.0  0.37190  0.78990  0.43120  1.0000 0.1187579083
H   H45       1.0  0.46090  0.66130  0.00430  1.0000 0.1406853099
H   H46       1.0  0.33870  0.53910  0.50430  1.0000 0.1406853099
H   H47       1.0  0.24930  0.65570  0.00580  1.0000 0.1187579083
H   H48       1.0  0.34430  0.75070  0.50580  1.0000 0.1187579083
H   H49       1.0  0.09840  0.25040  0.65940  1.0000 0.130545931
H   H50       1.0  0.74960  0.90160  0.15940  1.0000 0.130545931
H   H51       1.0  0.97450  0.35470  0.64790  1.0000 0.130545931
H   H52       1.0  0.64530  0.02550  0.14790  1.0000 0.130545931
H   H53       1.0  0.94600  0.09160  0.65920  1.0000 0.1187579083
H   H54       1.0  0.90840  0.05400  0.15920  1.0000 0.1187579083
H   H55       1.0  0.77190  0.93290  0.65560  1.0000 0.1187579083
H   H56       1.0  0.06710  0.22810  0.15560  1.0000 0.1187579083
H   H57       1.0  0.60660  0.80260  0.65070  1.0000 0.1187579083
H   H58       1.0  0.19740  0.39340  0.15070  1.0000 0.1187579083
H   H59       1.0  0.56160  0.97920  0.64200  1.0000 0.1406853099
H   H60       1.0  0.02080  0.43840  0.14200  1.0000 0.1406853099
H   H61       1.0  0.27620  0.93780  0.60140  1.0000 0.1406853099
H   H62       1.0  0.06220  0.72380  0.10140  1.0000 0.1406853099
H   H63       1.0  0.29570  0.88890  0.73290  1.0000 0.130545931
H   H64       1.0  0.11110  0.70430  0.23290  1.0000 0.130545931
H   H65       1.0  0.33070  0.02590  0.74580  1.0000 0.1187579083
H   H66       1.0  0.97410  0.66930  0.24580  1.0000 0.1187579083
H   H67       1.0  0.35880  0.17480  0.74670  1.0000 0.1187579083
H   H68       1.0  0.82520  0.64120  0.24670  1.0000 0.1187579083
H   H69       1.0  0.34600  0.29160  0.60330  1.0000 0.1406853099
H   H70       1.0  0.70840  0.65400  0.10330  1.0000 0.1406853099
H   H71       1.0  0.37800  0.30900  0.73690  1.0000 0.130545931
H   H72       1.0  0.69100  0.62200  0.23690  1.0000 0.130545931
C   C1        1.0  0.59262  0.31298  0.76190  1.0000 0.6392356661
C   C2        1.0  0.68702  0.40738  0.26190  1.0000 0.6392356661
C   C3        1.0  0.59828  0.30912  0.71370  1.0000 -0.0229430335
C   C4        1.0  0.69088  0.40172  0.21370  1.0000 -0.0229430335
C   C5        1.0  0.60624  0.37256  0.68150  1.0000 -0.1011024033
C   C6        1.0  0.62744  0.39376  0.18150  1.0000 -0.1011024033
C   C7        1.0  0.60083  0.24397  0.70110  1.0000 -0.0879884772
C   C8        1.0  0.75603  0.39917  0.20110  1.0000 -0.0879884772
C   C9        1.0  0.61692  0.36948  0.63800  1.0000 -0.1011024033
C   C10       1.0  0.63052  0.38308  0.13800  1.0000 -0.1011024033
C   C11       1.0  0.60617  0.23763  0.65780  1.0000 -0.1095012809
C   C12       1.0  0.76237  0.39383  0.15780  1.0000 -0.1095012809
C   C13       1.0  0.61782  0.30458  0.62540  1.0000 0.0579165202
C   C14       1.0  0.69542  0.38218  0.12540  1.0000 0.0579165202
C   C15       1.0  0.63212  0.31528  0.57780  1.0000 0.047976343
C   C16       1.0  0.68472  0.36788  0.07780  1.0000 0.047976343
C   C17       1.0  0.64079  0.38841  0.55450  1.0000 -0.074148095
C   C18       1.0  0.61159  0.35921  0.05450  1.0000 -0.074148095
C   C19       1.0  0.63615  0.26125  0.55450  1.0000 -0.1095012809
C   C20       1.0  0.73875  0.36385  0.05450  1.0000 -0.1095012809
C   C21       1.0  0.65597  0.41143  0.51030  1.0000 -0.1095012809
C   C22       1.0  0.58857  0.34403  0.01030  1.0000 -0.1095012809
C   C23       1.0  0.65223  0.28477  0.50980  1.0000 -0.0879884772
C   C24       1.0  0.71523  0.34777  0.00980  1.0000 -0.0879884772
C   C25       1.0  0.66324  0.35956  0.48769  1.0000 -0.0229430335
C   C26       1.0  0.64044  0.33676  0.98769  1.0000 -0.0229430335
C   C27       1.0  0.68343  0.38337  0.43870  1.0000 0.6505900529
C   C28       1.0  0.61663  0.31657  0.93870  1.0000 0.6505900529
C   C29       1.0  0.41725  0.14895  0.84840  1.0000 0.6505900529
C   C30       1.0  0.85105  0.58275  0.34840  1.0000 0.6505900529
C   C31       1.0  0.31576  0.05024  0.84660  1.0000 -0.0319869033
C   C32       1.0  0.94976  0.68424  0.34660  1.0000 -0.0319869033
C   C33       1.0  0.23930  0.04270  0.84300  1.0000 -0.0879884772
C   C34       1.0  0.95730  0.76070  0.34300  1.0000 -0.0879884772
C   C35       1.0  0.30253  0.96947  0.84940  1.0000 -0.1194890523
C   C36       1.0  0.03053  0.69747  0.34940  1.0000 -0.1194890523
C   C37       1.0  0.14360  0.95080  0.84290  1.0000 -0.1401044521
C   C38       1.0  0.04920  0.85640  0.34290  1.0000 -0.1401044521
C   C39       1.0  0.20760  0.88040  0.84800  1.0000 -0.1011024033
C   C40       1.0  0.11960  0.79240  0.34800  1.0000 -0.1011024033
C   C41       1.0  0.12745  0.86875  0.84570  1.0000 0.0195248348
C   C42       1.0  0.13125  0.87255  0.34570  1.0000 0.0195248348
C   C43       1.0  0.03573  0.76787  0.84740  1.0000 0.0195248348
C   C44       1.0  0.23213  0.96427  0.34740  1.0000 0.0195248348
C   C45       1.0  0.94275  0.73045  0.84670  1.0000 -0.1275900136
C   C46       1.0  0.26955  0.05725  0.34670  1.0000 -0.1275900136
C   C47       1.0  0.04597  0.70283  0.85140  1.0000 -0.0879884772
C   C48       1.0  0.29717  0.95403  0.35140  1.0000 -0.0879884772
C   C49       1.0  0.86483  0.63137  0.84940  1.0000 -0.1011024033
C   C50       1.0  0.36863  0.13517  0.34940  1.0000 -0.1011024033
C   C51       1.0  0.96946  0.60334  0.85450  1.0000 -0.1011024033
C   C52       1.0  0.39666  0.03054  0.35450  1.0000 -0.1011024033
C   C53       1.0  0.87752  0.56868  0.85240  1.0000 -0.0121663855
C   C54       1.0  0.43132  0.12248  0.35240  1.0000 -0.0121663855
C   C55       1.0  0.79025  0.46075  0.85370  1.0000 0.6254607048
C   C56       1.0  0.53925  0.20975  0.35370  1.0000 0.6254607048
C   C57       1.0  0.80898  0.25842  0.84160  1.0000 0.5662882633
C   C58       1.0  0.74158  0.19102  0.34160  1.0000 0.5662882633
C   C59       1.0  0.90114  0.28446  0.83390  1.0000 0.0134667783
C   C60       1.0  0.71554  0.09886  0.33390  1.0000 0.0134667783
C   C61       1.0  0.95558  0.28802  0.86960  1.0000 -0.1011024033
C   C62       1.0  0.71198  0.04442  0.36960  1.0000 -0.1011024033
C   C63       1.0  0.92725  0.29955  0.79110  1.0000 -0.074148095
C   C64       1.0  0.70045  0.07275  0.29110  1.0000 -0.074148095
C   C65       1.0  0.03817  0.30983  0.86140  1.0000 -0.1095012809
C   C66       1.0  0.69017  0.96183  0.36140  1.0000 -0.1095012809
C   C67       1.0  0.00890  0.32010  0.78320  1.0000 -0.1401044521
C   C68       1.0  0.67990  0.99110  0.28320  1.0000 -0.1401044521
C   C69       1.0  0.06441  0.32479  0.81850  1.0000 0.047976343
C   C70       1.0  0.67521  0.93559  0.31850  1.0000 0.047976343
C   C71       1.0  0.15347  0.34133  0.81820  1.0000 0.0388411815
C   C72       1.0  0.65867  0.84653  0.31820  1.0000 0.0388411815
C   C73       1.0  0.18973  0.33867  0.86030  1.0000 -0.1095012809
C   C74       1.0  0.66133  0.81027  0.36030  1.0000 -0.1095012809
C   C75       1.0  0.19843  0.35637  0.78190  1.0000 -0.1194890523
C   C76       1.0  0.64363  0.80157  0.28190  1.0000 -0.1194890523
C   C77       1.0  0.26870  0.34890  0.86800  1.0000 -0.0798936709
C   C78       1.0  0.65110  0.73130  0.36800  1.0000 -0.0798936709
C   C79       1.0  0.27851  0.36789  0.78770  1.0000 -0.0879884772
C   C80       1.0  0.63211  0.72149  0.28770  1.0000 -0.0879884772
C   C81       1.0  0.31285  0.36415  0.83030  1.0000 0.0195248348
C   C82       1.0  0.63585  0.68715  0.33030  1.0000 0.0195248348
C   C83       1.0  0.40062  0.37578  0.83690  1.0000 0.5629752782
C   C84       1.0  0.62422  0.59938  0.33690  1.0000 0.5629752782
C   C85       1.0  0.31298  0.59262  0.73810  1.0000 0.6392356661
C   C86       1.0  0.40738  0.68702  0.23810  1.0000 0.6392356661
C   C87       1.0  0.30912  0.59828  0.78630  1.0000 -0.0229430335
C   C88       1.0  0.40172  0.69088  0.28630  1.0000 -0.0229430335
C   C89       1.0  0.37256  0.60624  0.81850  1.0000 -0.1011024033
C   C90       1.0  0.39376  0.62744  0.31850  1.0000 -0.1011024033
C   C91       1.0  0.24397  0.60083  0.79890  1.0000 -0.0879884772
C   C92       1.0  0.39917  0.75603  0.29890  1.0000 -0.0798936709
C   C93       1.0  0.36948  0.61692  0.86200  1.0000 -0.1011024033
C   C94       1.0  0.38308  0.63052  0.36200  1.0000 -0.1011024033
C   C95       1.0  0.23763  0.60617  0.84220  1.0000 -0.1095012809
C   C96       1.0  0.39383  0.76237  0.34220  1.0000 -0.1095012809
C   C97       1.0  0.30458  0.61782  0.87460  1.0000 0.0579165202
C   C98       1.0  0.38218  0.69542  0.37460  1.0000 0.0579165202
C   C99       1.0  0.31528  0.63212  0.92220  1.0000 0.047976343
C   C100      1.0  0.36788  0.68472  0.42220  1.0000 0.047976343
C   C101      1.0  0.38841  0.64079  0.94550  1.0000 -0.0798936709
C   C102      1.0  0.35921  0.61159  0.44550  1.0000 -0.0798936709
C   C103      1.0  0.26125  0.63615  0.94550  1.0000 -0.1095012809
C   C104      1.0  0.36385  0.73875  0.44550  1.0000 -0.1095012809
C   C105      1.0  0.41143  0.65597  0.98970  1.0000 -0.1095012809
C   C106      1.0  0.34403  0.58857  0.48970  1.0000 -0.1095012809
C   C107      1.0  0.28477  0.65223  0.99020  1.0000 -0.0879884772
C   C108      1.0  0.34777  0.71523  0.49020  1.0000 -0.0879884772
C   C109      1.0  0.35956  0.66324  0.01231  1.0000 -0.0229430335
C   C110      1.0  0.33676  0.64044  0.51231  1.0000 -0.0229430335
C   C111      1.0  0.38337  0.68343  0.06130  1.0000 0.6505900529
C   C112      1.0  0.31657  0.61663  0.56130  1.0000 0.6505900529
C   C113      1.0  0.14895  0.41725  0.65160  1.0000 0.6505900529
C   C114      1.0  0.58275  0.85105  0.15160  1.0000 0.6505900529
C   C115      1.0  0.05024  0.31576  0.65340  1.0000 -0.0319869033
C   C116      1.0  0.68424  0.94976  0.15340  1.0000 -0.0319869033
C   C117      1.0  0.04270  0.23930  0.65700  1.0000 -0.0879884772
C   C118      1.0  0.76070  0.95730  0.15700  1.0000 -0.0879884772
C   C119      1.0  0.96947  0.30253  0.65060  1.0000 -0.1194890523
C   C120      1.0  0.69747  0.03053  0.15060  1.0000 -0.1194890523
C   C121      1.0  0.95080  0.14360  0.65710  1.0000 -0.1401044521
C   C122      1.0  0.85640  0.04920  0.15710  1.0000 -0.1401044521
C   C123      1.0  0.88040  0.20760  0.65200  1.0000 -0.1011024033
C   C124      1.0  0.79240  0.11960  0.15200  1.0000 -0.1011024033
C   C125      1.0  0.86875  0.12745  0.65430  1.0000 0.0195248348
C   C126      1.0  0.87255  0.13125  0.15430  1.0000 0.0195248348
C   C127      1.0  0.76787  0.03573  0.65260  1.0000 0.0195248348
C   C128      1.0  0.96427  0.23213  0.15260  1.0000 0.0195248348
C   C129      1.0  0.73045  0.94275  0.65330  1.0000 -0.1275900136
C   C130      1.0  0.05725  0.26955  0.15330  1.0000 -0.1275900136
C   C131      1.0  0.70283  0.04597  0.64860  1.0000 -0.0879884772
C   C132      1.0  0.95403  0.29717  0.14860  1.0000 -0.0879884772
C   C133      1.0  0.63137  0.86483  0.65060  1.0000 -0.1011024033
C   C134      1.0  0.13517  0.36863  0.15060  1.0000 -0.1011024033
C   C135      1.0  0.60334  0.96946  0.64550  1.0000 -0.1011024033
C   C136      1.0  0.03054  0.39666  0.14550  1.0000 -0.1011024033
C   C137      1.0  0.56868  0.87752  0.64760  1.0000 -0.0121663855
C   C138      1.0  0.12248  0.43132  0.14760  1.0000 -0.0121663855
C   C139      1.0  0.46075  0.79025  0.64630  1.0000 0.6254607048
C   C140      1.0  0.20975  0.53925  0.14630  1.0000 0.6254607048
C   C141      1.0  0.25842  0.80898  0.65840  1.0000 0.5662882633
C   C142      1.0  0.19102  0.74158  0.15840  1.0000 0.5629752782
C   C143      1.0  0.28446  0.90114  0.66610  1.0000 0.0134667783
C   C144      1.0  0.09886  0.71554  0.16610  1.0000 0.0134667783
C   C145      1.0  0.28802  0.95558  0.63040  1.0000 -0.1011024033
C   C146      1.0  0.04442  0.71198  0.13040  1.0000 -0.1011024033
C   C147      1.0  0.29955  0.92725  0.70890  1.0000 -0.0798936709
C   C148      1.0  0.07275  0.70045  0.20890  1.0000 -0.074148095
C   C149      1.0  0.30983  0.03817  0.63860  1.0000 -0.1095012809
C   C150      1.0  0.96183  0.69017  0.13860  1.0000 -0.1095012809
C   C151      1.0  0.32010  0.00890  0.71680  1.0000 -0.1401044521
C   C152      1.0  0.99110  0.67990  0.21680  1.0000 -0.1401044521
C   C153      1.0  0.32479  0.06441  0.68150  1.0000 0.047976343
C   C154      1.0  0.93559  0.67521  0.18150  1.0000 0.047976343
C   C155      1.0  0.34133  0.15347  0.68180  1.0000 0.0388411815
C   C156      1.0  0.84653  0.65867  0.18180  1.0000 0.0388411815
C   C157      1.0  0.33867  0.18973  0.63970  1.0000 -0.1095012809
C   C158      1.0  0.81027  0.66133  0.13970  1.0000 -0.1095012809
C   C159      1.0  0.35637  0.19843  0.71810  1.0000 -0.1194890523
C   C160      1.0  0.80157  0.64363  0.21810  1.0000 -0.1194890523
C   C161      1.0  0.34890  0.26870  0.63200  1.0000 -0.0798936709
C   C162      1.0  0.73130  0.65110  0.13200  1.0000 -0.0798936709
C   C163      1.0  0.36789  0.27851  0.71230  1.0000 -0.0879884772
C   C164      1.0  0.72149  0.63211  0.21230  1.0000 -0.0879884772
C   C165      1.0  0.36415  0.31285  0.66970  1.0000 0.0195248348
C   C166      1.0  0.68715  0.63585  0.16970  1.0000 0.0195248348
C   C167      1.0  0.37578  0.40062  0.66310  1.0000 0.5629752782
C   C168      1.0  0.59938  0.62422  0.16310  1.0000 0.5629752782
S   S1        1.0  0.63641  0.44849  0.59185  1.0000 0.9790536723
S   S2        1.0  0.55151  0.36359  0.09185  1.0000 0.9790536723
S   S3        1.0  0.16939  0.76535  0.84975  1.0000 0.9790536723
S   S4        1.0  0.23465  0.83061  0.34975  1.0000 0.9747497943
S   S5        1.0  0.12020  0.31864  0.90169  1.0000 0.9790536723
S   S6        1.0  0.68136  0.87980  0.40169  1.0000 0.9790536723
S   S7        1.0  0.44849  0.63641  0.90815  1.0000 0.9790536723
S   S8        1.0  0.36359  0.55151  0.40815  1.0000 0.9790536723
S   S9        1.0  0.76535  0.16939  0.65025  1.0000 0.9790536723
S   S10       1.0  0.83061  0.23465  0.15025  1.0000 0.9790536723
S   S11       1.0  0.31864  0.12020  0.59831  1.0000 0.9790536723
S   S12       1.0  0.87980  0.68136  0.09831  1.0000 0.9790536723
O   O1        1.0  0.57232  0.35808  0.77093  1.0000 -0.6393972728
O   O2        1.0  0.64192  0.42768  0.27093  1.0000 -0.6393972728
O   O3        1.0  0.60713  0.26887  0.78921  1.0000 -0.6856843028
O   O4        1.0  0.73113  0.39287  0.28921  1.0000 -0.6856843028
O   O5        1.0  0.55487  0.43873  0.58088  1.0000 -0.4945071929
O   O6        1.0  0.56127  0.44513  0.08088  1.0000 -0.4945071929
O   O7        1.0  0.72875  0.54425  0.59763  1.0000 -0.4740286562
O   O8        1.0  0.45575  0.27125  0.09763  1.0000 -0.4769952688
O   O9        1.0  0.67204  0.43596  0.41720  1.0000 -0.6589682418
O   O10       1.0  0.56404  0.32796  0.91720  1.0000 -0.6589682418
O   O11       1.0  0.71099  0.34881  0.42423  1.0000 -0.6795154307
O   O12       1.0  0.65119  0.28901  0.92423  1.0000 -0.6795154307
O   O13       1.0  0.42534  0.21986  0.83763  1.0000 -0.6535954866
O   O14       1.0  0.78014  0.57466  0.33763  1.0000 -0.6535954866
O   O15       1.0  0.48309  0.15091  0.86199  1.0000 -0.6856843028
O   O16       1.0  0.84909  0.51691  0.36199  1.0000 -0.6856843028
O   O17       1.0  0.18510  0.74990  0.80860  1.0000 -0.5237718657
O   O18       1.0  0.25010  0.81490  0.30860  1.0000 -0.5258131716
O   O19       1.0  0.20458  0.74882  0.89070  1.0000 -0.5237718657
O   O20       1.0  0.25118  0.79542  0.39070  1.0000 -0.5237718657
O   O21       1.0  0.70832  0.43188  0.85100  1.0000 -0.7328903172
O   O22       1.0  0.56812  0.29168  0.35100  1.0000 -0.7328903172
O   O23       1.0  0.80126  0.40534  0.85697  1.0000 -0.5422301832
O   O24       1.0  0.59466  0.19874  0.35697  1.0000 -0.5422301832
O   O25       1.0  0.78271  0.23569  0.88066  1.0000 -0.6589682418
O   O26       1.0  0.76431  0.21729  0.38066  1.0000 -0.6589682418
O   O27       1.0  0.76174  0.25886  0.80843  1.0000 -0.6299976576
O   O28       1.0  0.74114  0.23826  0.30843  1.0000 -0.6299976576
O   O29       1.0  0.07344  0.22836  0.92617  1.0000 -0.4769952688
O   O30       1.0  0.77164  0.92656  0.42617  1.0000 -0.4769952688
O   O31       1.0  0.17457  0.40283  0.92639  1.0000 -0.5026130769
O   O32       1.0  0.59717  0.82543  0.42639  1.0000 -0.5026130769
O   O33       1.0  0.42672  0.36388  0.87516  1.0000 -0.6140226218
O   O34       1.0  0.63612  0.57328  0.37516  1.0000 -0.6140226218
O   O35       1.0  0.44348  0.39652  0.80343  1.0000 -0.6299976576
O   O36       1.0  0.60348  0.55652  0.30343  1.0000 -0.6299976576
O   O37       1.0  0.35808  0.57232  0.72907  1.0000 -0.6393972728
O   O38       1.0  0.42768  0.64192  0.22907  1.0000 -0.6393972728
O   O39       1.0  0.26887  0.60713  0.71079  1.0000 -0.6856843028
O   O40       1.0  0.39287  0.73113  0.21079  1.0000 -0.6856843028
O   O41       1.0  0.43873  0.55487  0.91912  1.0000 -0.4945071929
O   O42       1.0  0.44513  0.56127  0.41912  1.0000 -0.5026130769
O   O43       1.0  0.54425  0.72875  0.90237  1.0000 -0.4769952688
O   O44       1.0  0.27125  0.45575  0.40237  1.0000 -0.4769952688
O   O45       1.0  0.43596  0.67204  0.08280  1.0000 -0.6589682418
O   O46       1.0  0.32796  0.56404  0.58280  1.0000 -0.6589682418
O   O47       1.0  0.34881  0.71099  0.07577  1.0000 -0.6795154307
O   O48       1.0  0.28901  0.65119  0.57577  1.0000 -0.6795154307
O   O49       1.0  0.21986  0.42534  0.66237  1.0000 -0.6535954866
O   O50       1.0  0.57466  0.78014  0.16237  1.0000 -0.6535954866
O   O51       1.0  0.15091  0.48309  0.63801  1.0000 -0.6856843028
O   O52       1.0  0.51691  0.84909  0.13801  1.0000 -0.6856843028
O   O53       1.0  0.74990  0.18510  0.69140  1.0000 -0.5237718657
O   O54       1.0  0.81490  0.25010  0.19140  1.0000 -0.5237718657
O   O55       1.0  0.74882  0.20458  0.60930  1.0000 -0.5237718657
O   O56       1.0  0.79542  0.25118  0.10930  1.0000 -0.5237718657
O   O57       1.0  0.43188  0.70832  0.64900  1.0000 -0.7328903172
O   O58       1.0  0.29168  0.56812  0.14900  1.0000 -0.7328903172
O   O59       1.0  0.40534  0.80126  0.64303  1.0000 -0.5422301832
O   O60       1.0  0.19874  0.59466  0.14303  1.0000 -0.5422301832
O   O61       1.0  0.23569  0.78271  0.61934  1.0000 -0.6589682418
O   O62       1.0  0.21729  0.76431  0.11934  1.0000 -0.6589682418
O   O63       1.0  0.25886  0.76174  0.69157  1.0000 -0.6299976576
O   O64       1.0  0.23826  0.74114  0.19157  1.0000 -0.6299976576
O   O65       1.0  0.22836  0.07344  0.57383  1.0000 -0.4769952688
O   O66       1.0  0.92656  0.77164  0.07383  1.0000 -0.4769952688
O   O67       1.0  0.40283  0.17457  0.57361  1.0000 -0.5026130769
O   O68       1.0  0.82543  0.59717  0.07361  1.0000 -0.5026130769
O   O69       1.0  0.36388  0.42672  0.62484  1.0000 -0.6140226218
O   O70       1.0  0.57328  0.63612  0.12484  1.0000 -0.6140226218
O   O71       1.0  0.39652  0.44348  0.69657  1.0000 -0.6299976576
O   O72       1.0  0.55652  0.60348  0.19657  1.0000 -0.6299976576
