# DDEC6 charges by PACMAN v1.1 (https://github.com/mtap-research/PACMAN-charge/)
data_2009[ZnPtAu][pth]3[ASR]1
_chemical_formula_sum              "Zn3 H108 Pt6 Au6 C60 S12 N12 O24"
_cell_length_a       12.458
_cell_length_b       12.458
_cell_length_c       24.673
_cell_angle_alpha    90
_cell_angle_beta     90
_cell_angle_gamma    120

_symmetry_space_group_name_H-M    "P 1"
_symmetry_Int_Tables_number       1

loop_
  _symmetry_equiv_pos_as_xyz
  'x, y, z'

loop_
  _atom_site_type_symbol
  _atom_site_label
  _atom_site_symmetry_multiplicity
  _atom_site_fract_x
  _atom_site_fract_y
  _atom_site_fract_z
  _atom_site_occupancy
  _atom_site_charge
Zn  Zn1       1.0  0.00000  0.00000  0.33333  1.0000 0.970124158
Zn  Zn2       1.0  0.00000  0.00000  0.66667  1.0000 0.970124158
Zn  Zn3       1.0  0.00000  0.00000  0.00000  1.0000 0.970124158
H   H1        1.0  0.64780  0.72490  0.24470  1.0000 0.2988376943
H   H2        1.0  0.35220  0.27510  0.24470  1.0000 0.2988376943
H   H3        1.0  0.27510  0.92290  0.57803  1.0000 0.2988376943
H   H4        1.0  0.07710  0.35220  0.91137  1.0000 0.2988376943
H   H5        1.0  0.92290  0.64780  0.91137  1.0000 0.2988376943
H   H6        1.0  0.72490  0.07710  0.57803  1.0000 0.2988376943
H   H7        1.0  0.92290  0.27510  0.75530  1.0000 0.2988376943
H   H8        1.0  0.35220  0.07710  0.42197  1.0000 0.2988376943
H   H9        1.0  0.72490  0.64780  0.08863  1.0000 0.2988376943
H   H10       1.0  0.27510  0.35220  0.08863  1.0000 0.2988376943
H   H11       1.0  0.64780  0.92290  0.42197  1.0000 0.2988376943
H   H12       1.0  0.07710  0.72490  0.75530  1.0000 0.2988376943
H   H13       1.0  0.67170  0.69680  0.30040  1.0000 0.2931995817
H   H14       1.0  0.32830  0.30320  0.30040  1.0000 0.2931995817
H   H15       1.0  0.30320  0.97490  0.63373  1.0000 0.2931995817
H   H16       1.0  0.02510  0.32830  0.96707  1.0000 0.2931995817
H   H17       1.0  0.97490  0.67170  0.96707  1.0000 0.2931995817
H   H18       1.0  0.69680  0.02510  0.63373  1.0000 0.2931995817
H   H19       1.0  0.97490  0.30320  0.69960  1.0000 0.2931995817
H   H20       1.0  0.32830  0.02510  0.36627  1.0000 0.2931995817
H   H21       1.0  0.69680  0.67170  0.03293  1.0000 0.2931995817
H   H22       1.0  0.30320  0.32830  0.03293  1.0000 0.2931995817
H   H23       1.0  0.67170  0.97490  0.36627  1.0000 0.2931995817
H   H24       1.0  0.02510  0.69680  0.69960  1.0000 0.2931995817
H   H25       1.0  0.76700  0.65830  0.20500  1.0000 0.108874808
H   H26       1.0  0.23300  0.34170  0.20500  1.0000 0.108874808
H   H27       1.0  0.34170  0.10870  0.53833  1.0000 0.108874808
H   H28       1.0  0.89130  0.23300  0.87167  1.0000 0.108874808
H   H29       1.0  0.10870  0.76700  0.87167  1.0000 0.108874808
H   H30       1.0  0.65830  0.89130  0.53833  1.0000 0.108874808
H   H31       1.0  0.10870  0.34170  0.79500  1.0000 0.108874808
H   H32       1.0  0.23300  0.89130  0.46167  1.0000 0.108874808
H   H33       1.0  0.65830  0.76700  0.12833  1.0000 0.108874808
H   H34       1.0  0.34170  0.23300  0.12833  1.0000 0.108874808
H   H35       1.0  0.76700  0.10870  0.46167  1.0000 0.108874808
H   H36       1.0  0.89130  0.65830  0.79500  1.0000 0.108874808
H   H37       1.0  0.86640  0.53210  0.20550  1.0000 0.1395828261
H   H38       1.0  0.13360  0.46790  0.20550  1.0000 0.1395828261
H   H39       1.0  0.46790  0.33430  0.53883  1.0000 0.1395828261
H   H40       1.0  0.66570  0.13360  0.87217  1.0000 0.1395828261
H   H41       1.0  0.33430  0.86640  0.87217  1.0000 0.1395828261
H   H42       1.0  0.53210  0.66570  0.53883  1.0000 0.1395828261
H   H43       1.0  0.33430  0.46790  0.79450  1.0000 0.1395828261
H   H44       1.0  0.13360  0.66570  0.46117  1.0000 0.1395828261
H   H45       1.0  0.53210  0.86640  0.12783  1.0000 0.1395828261
H   H46       1.0  0.46790  0.13360  0.12783  1.0000 0.1395828261
H   H47       1.0  0.86640  0.33430  0.46117  1.0000 0.1395828261
H   H48       1.0  0.66570  0.53210  0.79450  1.0000 0.1395828261
H   H49       1.0  0.88150  0.47240  0.26040  1.0000 0.1395828261
H   H50       1.0  0.11850  0.52760  0.26040  1.0000 0.1395828261
H   H51       1.0  0.52760  0.40910  0.59373  1.0000 0.1395828261
H   H52       1.0  0.59090  0.11850  0.92707  1.0000 0.1395828261
H   H53       1.0  0.40910  0.88150  0.92707  1.0000 0.1395828261
H   H54       1.0  0.47240  0.59090  0.59373  1.0000 0.1395828261
H   H55       1.0  0.40910  0.52760  0.73960  1.0000 0.1395828261
H   H56       1.0  0.11850  0.59090  0.40627  1.0000 0.1395828261
H   H57       1.0  0.47240  0.88150  0.07293  1.0000 0.1395828261
H   H58       1.0  0.52760  0.11850  0.07293  1.0000 0.1395828261
H   H59       1.0  0.88150  0.40910  0.40627  1.0000 0.1395828261
H   H60       1.0  0.59090  0.47240  0.73960  1.0000 0.1395828261
H   H61       1.0  0.96280  0.61880  0.25080  1.0000 0.1503377846
H   H62       1.0  0.03720  0.38120  0.25080  1.0000 0.1503377846
H   H63       1.0  0.38120  0.34400  0.58413  1.0000 0.1503377846
H   H64       1.0  0.65600  0.03720  0.91747  1.0000 0.1503377846
H   H65       1.0  0.34400  0.96280  0.91747  1.0000 0.1503377846
H   H66       1.0  0.61880  0.65600  0.58413  1.0000 0.1503377846
H   H67       1.0  0.34400  0.38120  0.74920  1.0000 0.1503377846
H   H68       1.0  0.03720  0.65600  0.41587  1.0000 0.1503377846
H   H69       1.0  0.61880  0.96280  0.08253  1.0000 0.1503377846
H   H70       1.0  0.38120  0.03720  0.08253  1.0000 0.1503377846
H   H71       1.0  0.96280  0.34400  0.41587  1.0000 0.1503377846
H   H72       1.0  0.65600  0.61880  0.74920  1.0000 0.1503377846
H   H73       1.0  0.79290  0.49860  0.34760  1.0000 0.1395828261
H   H74       1.0  0.20710  0.50140  0.34760  1.0000 0.1395828261
H   H75       1.0  0.50140  0.29430  0.68093  1.0000 0.1395828261
H   H76       1.0  0.70570  0.20710  0.01427  1.0000 0.1395828261
H   H77       1.0  0.29430  0.79290  0.01427  1.0000 0.1395828261
H   H78       1.0  0.49860  0.70570  0.68093  1.0000 0.1395828261
H   H79       1.0  0.29430  0.50140  0.65240  1.0000 0.1395828261
H   H80       1.0  0.20710  0.70570  0.31907  1.0000 0.1395828261
H   H81       1.0  0.49860  0.79290  0.98573  1.0000 0.1395828261
H   H82       1.0  0.50140  0.20710  0.98573  1.0000 0.1395828261
H   H83       1.0  0.79290  0.29430  0.31907  1.0000 0.1395828261
H   H84       1.0  0.70570  0.49860  0.65240  1.0000 0.1395828261
H   H85       1.0  0.72920  0.58270  0.34850  1.0000 0.1395828261
H   H86       1.0  0.27080  0.41730  0.34850  1.0000 0.1395828261
H   H87       1.0  0.41730  0.14650  0.68183  1.0000 0.1395828261
H   H88       1.0  0.85350  0.27080  0.01517  1.0000 0.1395828261
H   H89       1.0  0.14650  0.72920  0.01517  1.0000 0.1395828261
H   H90       1.0  0.58270  0.85350  0.68183  1.0000 0.1395828261
H   H91       1.0  0.14650  0.41730  0.65150  1.0000 0.1395828261
H   H92       1.0  0.27080  0.85350  0.31817  1.0000 0.1395828261
H   H93       1.0  0.58270  0.72920  0.98483  1.0000 0.1395828261
H   H94       1.0  0.41730  0.27080  0.98483  1.0000 0.1395828261
H   H95       1.0  0.72920  0.14650  0.31817  1.0000 0.1395828261
H   H96       1.0  0.85350  0.58270  0.65150  1.0000 0.1395828261
H   H97       1.0  0.87630  0.64590  0.34200  1.0000 0.1573711289
H   H98       1.0  0.12370  0.35410  0.34200  1.0000 0.1573711289
H   H99       1.0  0.35410  0.23040  0.67533  1.0000 0.1573711289
H   H100      1.0  0.76960  0.12370  0.00867  1.0000 0.1573711289
H   H101      1.0  0.23040  0.87630  0.00867  1.0000 0.1573711289
H   H102      1.0  0.64590  0.76960  0.67533  1.0000 0.1573711289
H   H103      1.0  0.23040  0.35410  0.65800  1.0000 0.1573711289
H   H104      1.0  0.12370  0.76960  0.32467  1.0000 0.1573711289
H   H105      1.0  0.64590  0.87630  0.99133  1.0000 0.1573711289
H   H106      1.0  0.35410  0.12370  0.99133  1.0000 0.1573711289
H   H107      1.0  0.87630  0.23040  0.32467  1.0000 0.1573711289
H   H108      1.0  0.76960  0.64590  0.65800  1.0000 0.1573711289
Pt  Pt1       1.0  0.50000  0.50000  0.26166  1.0000 0.073528423
Pt  Pt2       1.0  0.50000  0.00000  0.59499  1.0000 0.073528423
Pt  Pt3       1.0  0.00000  0.50000  0.92833  1.0000 0.073528423
Pt  Pt4       1.0  0.00000  0.50000  0.73834  1.0000 0.073528423
Pt  Pt5       1.0  0.50000  0.00000  0.40501  1.0000 0.073528423
Pt  Pt6       1.0  0.50000  0.50000  0.07167  1.0000 0.073528423
Au  Au1       1.0  0.60689  0.39311  0.16667  1.0000 -0.1084422371
Au  Au2       1.0  0.39311  0.60689  0.16667  1.0000 -0.1084422371
Au  Au3       1.0  0.60689  0.21378  0.50000  1.0000 -0.1084422371
Au  Au4       1.0  0.78622  0.39311  0.83333  1.0000 -0.1084422371
Au  Au5       1.0  0.21378  0.60689  0.83333  1.0000 -0.1084422371
Au  Au6       1.0  0.39311  0.78622  0.50000  1.0000 -0.1084422371
C   C1        1.0  0.78170  0.56180  0.27080  1.0000 0.2030645016
C   C2        1.0  0.21830  0.43820  0.27080  1.0000 0.2030645016
C   C3        1.0  0.43820  0.21990  0.60413  1.0000 0.2030645016
C   C4        1.0  0.78010  0.21830  0.93747  1.0000 0.2030645016
C   C5        1.0  0.21990  0.78170  0.93747  1.0000 0.2030645016
C   C6        1.0  0.56180  0.78010  0.60413  1.0000 0.2030645016
C   C7        1.0  0.21990  0.43820  0.72920  1.0000 0.2030645016
C   C8        1.0  0.21830  0.78010  0.39587  1.0000 0.2030645016
C   C9        1.0  0.56180  0.78170  0.06253  1.0000 0.2030645016
C   C10       1.0  0.43820  0.21830  0.06253  1.0000 0.2030645016
C   C11       1.0  0.78170  0.21990  0.39587  1.0000 0.2030645016
C   C12       1.0  0.78010  0.56180  0.72920  1.0000 0.2030645016
C   C13       1.0  0.77260  0.66900  0.24530  1.0000 -0.0802850807
C   C14       1.0  0.22740  0.33100  0.24530  1.0000 -0.0802850807
C   C15       1.0  0.33100  0.10360  0.57863  1.0000 -0.0802850807
C   C16       1.0  0.89640  0.22740  0.91197  1.0000 -0.0802850807
C   C17       1.0  0.10360  0.77260  0.91197  1.0000 -0.0802850807
C   C18       1.0  0.66900  0.89640  0.57863  1.0000 -0.0802850807
C   C19       1.0  0.10360  0.33100  0.75470  1.0000 -0.0802850807
C   C20       1.0  0.22740  0.89640  0.42137  1.0000 -0.0802850807
C   C21       1.0  0.66900  0.77260  0.08803  1.0000 -0.0802850807
C   C22       1.0  0.33100  0.22740  0.08803  1.0000 -0.0802850807
C   C23       1.0  0.77260  0.10360  0.42137  1.0000 -0.0802850807
C   C24       1.0  0.89640  0.66900  0.75470  1.0000 -0.0802850807
C   C25       1.0  0.88190  0.54480  0.24450  1.0000 -0.4601537408
C   C26       1.0  0.11810  0.45520  0.24450  1.0000 -0.4601537408
C   C27       1.0  0.45520  0.33710  0.57783  1.0000 -0.4601537408
C   C28       1.0  0.66290  0.11810  0.91117  1.0000 -0.4601537408
C   C29       1.0  0.33710  0.88190  0.91117  1.0000 -0.4601537408
C   C30       1.0  0.54480  0.66290  0.57783  1.0000 -0.4601537408
C   C31       1.0  0.33710  0.45520  0.75550  1.0000 -0.4601537408
C   C32       1.0  0.11810  0.66290  0.42217  1.0000 -0.4601537408
C   C33       1.0  0.54480  0.88190  0.08883  1.0000 -0.4601537408
C   C34       1.0  0.45520  0.11810  0.08883  1.0000 -0.4601537408
C   C35       1.0  0.88190  0.33710  0.42217  1.0000 -0.4601537408
C   C36       1.0  0.66290  0.54480  0.75550  1.0000 -0.4601537408
C   C37       1.0  0.79640  0.57330  0.33290  1.0000 -0.4601537408
C   C38       1.0  0.20360  0.42670  0.33290  1.0000 -0.4601537408
C   C39       1.0  0.42670  0.22310  0.66623  1.0000 -0.4601537408
C   C40       1.0  0.77690  0.20360  0.99957  1.0000 -0.4601537408
C   C41       1.0  0.22310  0.79640  0.99957  1.0000 -0.4601537408
C   C42       1.0  0.57330  0.77690  0.66623  1.0000 -0.4601537408
C   C43       1.0  0.22310  0.42670  0.66710  1.0000 -0.4601537408
C   C44       1.0  0.20360  0.77690  0.33377  1.0000 -0.4601537408
C   C45       1.0  0.57330  0.79640  0.00043  1.0000 -0.4601537408
C   C46       1.0  0.42670  0.20360  0.00043  1.0000 -0.4601537408
C   C47       1.0  0.79640  0.22310  0.33377  1.0000 -0.4601537408
C   C48       1.0  0.77690  0.57330  0.66710  1.0000 -0.4601537408
C   C49       1.0  0.88760  0.79400  0.25900  1.0000 0.5690654842
C   C50       1.0  0.11240  0.20600  0.25900  1.0000 0.5690654842
C   C51       1.0  0.20600  0.09360  0.59233  1.0000 0.5690654842
C   C52       1.0  0.90640  0.11240  0.92567  1.0000 0.5690654842
C   C53       1.0  0.09360  0.88760  0.92567  1.0000 0.5690654842
C   C54       1.0  0.79400  0.90640  0.59233  1.0000 0.5690654842
C   C55       1.0  0.09360  0.20600  0.74100  1.0000 0.5690654842
C   C56       1.0  0.11240  0.90640  0.40767  1.0000 0.5690654842
C   C57       1.0  0.79400  0.88760  0.07433  1.0000 0.5690654842
C   C58       1.0  0.20600  0.11240  0.07433  1.0000 0.5690654842
C   C59       1.0  0.88760  0.09360  0.40767  1.0000 0.5690654842
C   C60       1.0  0.90640  0.79400  0.74100  1.0000 0.5690654842
S   S1        1.0  0.62949  0.41791  0.25890  1.0000 -0.1084422371
S   S2        1.0  0.37051  0.58209  0.25890  1.0000 -0.1084422371
S   S3        1.0  0.58209  0.21158  0.59223  1.0000 -0.1084422371
S   S4        1.0  0.78842  0.37051  0.92557  1.0000 -0.1084422371
S   S5        1.0  0.21158  0.62949  0.92557  1.0000 -0.1084422371
S   S6        1.0  0.41791  0.78842  0.59223  1.0000 -0.1084422371
S   S7        1.0  0.21158  0.58209  0.74110  1.0000 -0.1084422371
S   S8        1.0  0.37051  0.78842  0.40777  1.0000 -0.1039313572
S   S9        1.0  0.41791  0.62949  0.07443  1.0000 -0.1084422371
S   S10       1.0  0.58209  0.37051  0.07443  1.0000 -0.1084422371
S   S11       1.0  0.62949  0.21158  0.40777  1.0000 -0.1084422371
S   S12       1.0  0.78842  0.41791  0.74110  1.0000 -0.1084422371
N   N1        1.0  0.65880  0.66940  0.26510  1.0000 -0.3800190187
N   N2        1.0  0.34120  0.33060  0.26510  1.0000 -0.3800190187
N   N3        1.0  0.33060  0.98940  0.59843  1.0000 -0.3800190187
N   N4        1.0  0.01060  0.34120  0.93177  1.0000 -0.3800190187
N   N5        1.0  0.98940  0.65880  0.93177  1.0000 -0.3800190187
N   N6        1.0  0.66940  0.01060  0.59843  1.0000 -0.3800190187
N   N7        1.0  0.98940  0.33060  0.73490  1.0000 -0.3800190187
N   N8        1.0  0.34120  0.01060  0.40157  1.0000 -0.3800190187
N   N9        1.0  0.66940  0.65880  0.06823  1.0000 -0.3800190187
N   N10       1.0  0.33060  0.34120  0.06823  1.0000 -0.3800190187
N   N11       1.0  0.65880  0.98940  0.40157  1.0000 -0.3800190187
N   N12       1.0  0.01060  0.66940  0.73490  1.0000 -0.3800190187
O   O1        1.0  0.87560  0.84760  0.30060  1.0000 -0.5732343964
O   O2        1.0  0.12440  0.15240  0.30060  1.0000 -0.5732343964
O   O3        1.0  0.15240  0.02800  0.63393  1.0000 -0.5732343964
O   O4        1.0  0.97200  0.12440  0.96727  1.0000 -0.5732343964
O   O5        1.0  0.02800  0.87560  0.96727  1.0000 -0.5732343964
O   O6        1.0  0.84760  0.97200  0.63393  1.0000 -0.5732343964
O   O7        1.0  0.02800  0.15240  0.69940  1.0000 -0.5732343964
O   O8        1.0  0.12440  0.97200  0.36607  1.0000 -0.5732343964
O   O9        1.0  0.84760  0.87560  0.03273  1.0000 -0.5732343964
O   O10       1.0  0.15240  0.12440  0.03273  1.0000 -0.5732343964
O   O11       1.0  0.87560  0.02800  0.36607  1.0000 -0.5732343964
O   O12       1.0  0.97200  0.84760  0.69940  1.0000 -0.5732343964
O   O13       1.0  0.98120  0.83060  0.23150  1.0000 -0.5022441121
O   O14       1.0  0.01880  0.16940  0.23150  1.0000 -0.5022441121
O   O15       1.0  0.16940  0.15060  0.56483  1.0000 -0.5022441121
O   O16       1.0  0.84940  0.01880  0.89817  1.0000 -0.5022441121
O   O17       1.0  0.15060  0.98120  0.89817  1.0000 -0.5022441121
O   O18       1.0  0.83060  0.84940  0.56483  1.0000 -0.5022441121
O   O19       1.0  0.15060  0.16940  0.76850  1.0000 -0.5022441121
O   O20       1.0  0.01880  0.84940  0.43517  1.0000 -0.5022441121
O   O21       1.0  0.83060  0.98120  0.10183  1.0000 -0.5022441121
O   O22       1.0  0.16940  0.01880  0.10183  1.0000 -0.5022441121
O   O23       1.0  0.98120  0.15060  0.43517  1.0000 -0.5022441121
O   O24       1.0  0.84940  0.83060  0.76850  1.0000 -0.5022441121
