# DDEC6 charges by PACMAN v1.1 (https://github.com/mtap-research/PACMAN-charge/)
data_2009[Eu][nan]3[ASR]1
_chemical_formula_sum              "Eu8 P12 H120 C108 N12 O60"
_cell_length_a       20.943
_cell_length_b       7.077
_cell_length_c       27.809
_cell_angle_alpha    90
_cell_angle_beta     107.309
_cell_angle_gamma    90

_symmetry_space_group_name_H-M    "P 1"
_symmetry_Int_Tables_number       1

loop_
  _symmetry_equiv_pos_as_xyz
  'x, y, z'

loop_
  _atom_site_type_symbol
  _atom_site_label
  _atom_site_symmetry_multiplicity
  _atom_site_fract_x
  _atom_site_fract_y
  _atom_site_fract_z
  _atom_site_occupancy
  _atom_site_charge
Eu  Eu1       1.0  0.91084  0.87283  0.66224  1.0000 2.218115541
Eu  Eu2       1.0  0.08916  0.37283  0.83776  1.0000 2.218115541
Eu  Eu3       1.0  0.08916  0.12717  0.33776  1.0000 2.218115541
Eu  Eu4       1.0  0.91084  0.62717  0.16224  1.0000 2.218115541
Eu  Eu5       1.0  0.74800  0.08672  0.20815  1.0000 2.1715190139
Eu  Eu6       1.0  0.25200  0.58672  0.29185  1.0000 2.1715190139
Eu  Eu7       1.0  0.25200  0.91328  0.79185  1.0000 2.1715190139
Eu  Eu8       1.0  0.74800  0.41328  0.70815  1.0000 2.1715190139
P   P1        1.0  0.91817  0.95947  0.27312  1.0000 1.4447589841
P   P2        1.0  0.08183  0.45947  0.22688  1.0000 1.4447589841
P   P3        1.0  0.08183  0.04053  0.72688  1.0000 1.4447589841
P   P4        1.0  0.91817  0.54053  0.77312  1.0000 1.4447589841
P   P5        1.0  0.75199  0.91352  0.68109  1.0000 1.3701832023
P   P6        1.0  0.24801  0.41352  0.81891  1.0000 1.3701832023
P   P7        1.0  0.24801  0.08648  0.31891  1.0000 1.3701832023
P   P8        1.0  0.75199  0.58648  0.18109  1.0000 1.3701832023
P   P9        1.0  0.86350  0.37760  0.62721  1.0000 1.4034418788
P   P10       1.0  0.13650  0.87760  0.87279  1.0000 1.4034418788
P   P11       1.0  0.13650  0.62240  0.37279  1.0000 1.4034418788
P   P12       1.0  0.86350  0.12240  0.12721  1.0000 1.4034418788
H   H1        1.0  0.98780  0.65060  0.32350  1.0000 0.2681792107
H   H2        1.0  0.01220  0.15060  0.17650  1.0000 0.2681792107
H   H3        1.0  0.01220  0.34940  0.67650  1.0000 0.2681792107
H   H4        1.0  0.98780  0.84940  0.82350  1.0000 0.2681792107
H   H5        1.0  0.62210  0.81000  0.68730  1.0000 0.2803111717
H   H6        1.0  0.37790  0.31000  0.81270  1.0000 0.2803111717
H   H7        1.0  0.37790  0.19000  0.31270  1.0000 0.2803111717
H   H8        1.0  0.62210  0.69000  0.18730  1.0000 0.2803111717
H   H9        1.0  0.62020  0.01530  0.68930  1.0000 0.2803111717
H   H10       1.0  0.37980  0.51530  0.81070  1.0000 0.2803111717
H   H11       1.0  0.37980  0.98470  0.31070  1.0000 0.2803111717
H   H12       1.0  0.62020  0.48470  0.18930  1.0000 0.2803111717
H   H13       1.0  0.79450  0.07320  0.55110  1.0000 0.2803111717
H   H14       1.0  0.20550  0.57320  0.94890  1.0000 0.2803111717
H   H15       1.0  0.20550  0.92680  0.44890  1.0000 0.2803111717
H   H16       1.0  0.79450  0.42680  0.05110  1.0000 0.2803111717
H   H17       1.0  0.76560  0.16110  0.58680  1.0000 0.2803111717
H   H18       1.0  0.23440  0.66110  0.91320  1.0000 0.2803111717
H   H19       1.0  0.23440  0.83890  0.41320  1.0000 0.2803111717
H   H20       1.0  0.76560  0.33890  0.08680  1.0000 0.2803111717
H   H21       1.0  0.90390  0.88360  0.35060  1.0000 0.1401898651
H   H22       1.0  0.09610  0.38360  0.14940  1.0000 0.1401898651
H   H23       1.0  0.09610  0.11640  0.64940  1.0000 0.1401898651
H   H24       1.0  0.90390  0.61640  0.85060  1.0000 0.1401898651
H   H25       1.0  0.85900  0.75160  0.30860  1.0000 0.1401898651
H   H26       1.0  0.14100  0.25160  0.19140  1.0000 0.1401898651
H   H27       1.0  0.14100  0.24840  0.69140  1.0000 0.1401898651
H   H28       1.0  0.85900  0.74840  0.80860  1.0000 0.1401898651
H   H29       1.0  0.98180  0.43230  0.38300  1.0000 0.1207565063
H   H30       1.0  0.01820  0.93230  0.11700  1.0000 0.1207565063
H   H31       1.0  0.01820  0.56770  0.61700  1.0000 0.1207565063
H   H32       1.0  0.98180  0.06770  0.88300  1.0000 0.1207565063
H   H33       1.0  0.90440  0.44250  0.35720  1.0000 0.1207565063
H   H34       1.0  0.09560  0.94250  0.14280  1.0000 0.1207565063
H   H35       1.0  0.09560  0.55750  0.64280  1.0000 0.1207565063
H   H36       1.0  0.90440  0.05750  0.85720  1.0000 0.1207565063
H   H37       1.0  0.83750  0.54920  0.40560  1.0000 0.1095673096
H   H38       1.0  0.16250  0.04920  0.09440  1.0000 0.1095673096
H   H39       1.0  0.16250  0.45080  0.59440  1.0000 0.1095673096
H   H40       1.0  0.83750  0.95080  0.90560  1.0000 0.1095673096
H   H41       1.0  0.82420  0.67910  0.47850  1.0000 0.1095673096
H   H42       1.0  0.17580  0.17910  0.02150  1.0000 0.1095673096
H   H43       1.0  0.17580  0.32090  0.52150  1.0000 0.1095673096
H   H44       1.0  0.82420  0.82090  0.97850  1.0000 0.1095673096
H   H45       1.0  0.01710  0.82000  0.52360  1.0000 0.1207565063
H   H46       1.0  0.98290  0.32000  0.97640  1.0000 0.1207565063
H   H47       1.0  0.98290  0.18000  0.47640  1.0000 0.1207565063
H   H48       1.0  0.01710  0.68000  0.02360  1.0000 0.1207565063
H   H49       1.0  0.03030  0.70050  0.45000  1.0000 0.1296187191
H   H50       1.0  0.96970  0.20050  0.05000  1.0000 0.1296187191
H   H51       1.0  0.96970  0.29950  0.55000  1.0000 0.1296187191
H   H52       1.0  0.03030  0.79950  0.95000  1.0000 0.1296187191
H   H53       1.0  0.65790  0.82400  0.61630  1.0000 0.1401898651
H   H54       1.0  0.34210  0.32400  0.88370  1.0000 0.1401898651
H   H55       1.0  0.34210  0.17600  0.38370  1.0000 0.1401898651
H   H56       1.0  0.65790  0.67600  0.11630  1.0000 0.1401898651
H   H57       1.0  0.65960  0.04440  0.62180  1.0000 0.1296187191
H   H58       1.0  0.34040  0.54440  0.87820  1.0000 0.1296187191
H   H59       1.0  0.34040  0.95560  0.37820  1.0000 0.1296187191
H   H60       1.0  0.65960  0.45560  0.12180  1.0000 0.1296187191
H   H61       1.0  0.53710  0.02510  0.61230  1.0000 0.1207565063
H   H62       1.0  0.46290  0.52510  0.88770  1.0000 0.1207565063
H   H63       1.0  0.46290  0.97490  0.38770  1.0000 0.1207565063
H   H64       1.0  0.53710  0.47490  0.11230  1.0000 0.1207565063
H   H65       1.0  0.53800  0.80320  0.61210  1.0000 0.1207565063
H   H66       1.0  0.46200  0.30320  0.88790  1.0000 0.1207565063
H   H67       1.0  0.46200  0.19680  0.38790  1.0000 0.1207565063
H   H68       1.0  0.53800  0.69680  0.11210  1.0000 0.1207565063
H   H69       1.0  0.49280  0.63080  0.67260  1.0000 0.1207565063
H   H70       1.0  0.50720  0.13080  0.82740  1.0000 0.1207565063
H   H71       1.0  0.50720  0.36920  0.32740  1.0000 0.1207565063
H   H72       1.0  0.49280  0.86920  0.17260  1.0000 0.1207565063
H   H73       1.0  0.42860  0.63020  0.72780  1.0000 0.1095673096
H   H74       1.0  0.57140  0.13020  0.77220  1.0000 0.1095673096
H   H75       1.0  0.57140  0.36980  0.27220  1.0000 0.1095673096
H   H76       1.0  0.42860  0.86980  0.22780  1.0000 0.1095673096
H   H77       1.0  0.40850  0.19260  0.71180  1.0000 0.1207565063
H   H78       1.0  0.59150  0.69260  0.78820  1.0000 0.1207565063
H   H79       1.0  0.59150  0.80740  0.28820  1.0000 0.1207565063
H   H80       1.0  0.40850  0.30740  0.21180  1.0000 0.1207565063
H   H81       1.0  0.47320  0.19050  0.65760  1.0000 0.1207565063
H   H82       1.0  0.52680  0.69050  0.84240  1.0000 0.1207565063
H   H83       1.0  0.52680  0.80950  0.34240  1.0000 0.1207565063
H   H84       1.0  0.47320  0.30950  0.15760  1.0000 0.1207565063
H   H85       1.0  0.76720  0.99030  0.38270  1.0000 0.1296187191
H   H86       1.0  0.23280  0.49030  0.11730  1.0000 0.1296187191
H   H87       1.0  0.23280  0.00970  0.61730  1.0000 0.1296187191
H   H88       1.0  0.76720  0.50970  0.88270  1.0000 0.1296187191
H   H89       1.0  0.74930  0.95050  0.46090  1.0000 0.1207565063
H   H90       1.0  0.25070  0.45050  0.03910  1.0000 0.1207565063
H   H91       1.0  0.25070  0.04950  0.53910  1.0000 0.1207565063
H   H92       1.0  0.74930  0.54950  0.96090  1.0000 0.1207565063
H   H93       1.0  0.68190  0.29400  0.52450  1.0000 0.1207565063
H   H94       1.0  0.31810  0.79400  0.97550  1.0000 0.1207565063
H   H95       1.0  0.31810  0.70600  0.47550  1.0000 0.1207565063
H   H96       1.0  0.68190  0.20600  0.02450  1.0000 0.1207565063
H   H97       1.0  0.68200  0.07400  0.51770  1.0000 0.1296187191
H   H98       1.0  0.31800  0.57400  0.98230  1.0000 0.1296187191
H   H99       1.0  0.31800  0.92600  0.48230  1.0000 0.1296187191
H   H100      1.0  0.68200  0.42600  0.01770  1.0000 0.1296187191
H   H101      1.0  0.79240  0.45460  0.54720  1.0000 0.1473774713
H   H102      1.0  0.20760  0.95460  0.95280  1.0000 0.1473774713
H   H103      1.0  0.20760  0.54540  0.45280  1.0000 0.1473774713
H   H104      1.0  0.79240  0.04540  0.04720  1.0000 0.1473774713
H   H105      1.0  0.84960  0.31950  0.54170  1.0000 0.1473774713
H   H106      1.0  0.15040  0.81950  0.95830  1.0000 0.1473774713
H   H107      1.0  0.15040  0.68050  0.45830  1.0000 0.1473774713
H   H108      1.0  0.84960  0.18050  0.04170  1.0000 0.1473774713
H   H109      1.0  0.68160  0.48010  0.45500  1.0000 0.1207565063
H   H110      1.0  0.31840  0.98010  0.04500  1.0000 0.1207565063
H   H111      1.0  0.31840  0.51990  0.54500  1.0000 0.1207565063
H   H112      1.0  0.68160  0.01990  0.95500  1.0000 0.1207565063
H   H113      1.0  0.69550  0.51870  0.37560  1.0000 0.1207565063
H   H114      1.0  0.30450  0.01870  0.12440  1.0000 0.1207565063
H   H115      1.0  0.30450  0.48130  0.62440  1.0000 0.1207565063
H   H116      1.0  0.69550  0.98130  0.87560  1.0000 0.1207565063
H   H117      1.0  0.75040  0.45230  0.27800  1.0000 0.3765326466
H   H118      1.0  0.24960  0.95230  0.22200  1.0000 0.3765326466
H   H119      1.0  0.24960  0.54770  0.72200  1.0000 0.3765326466
H   H120      1.0  0.75040  0.04770  0.77800  1.0000 0.3765326466
C   C1        1.0  0.90300  0.80850  0.32120  1.0000 -0.3914924909
C   C2        1.0  0.09700  0.30850  0.17880  1.0000 -0.3914924909
C   C3        1.0  0.09700  0.19150  0.67880  1.0000 -0.3914924909
C   C4        1.0  0.90300  0.69150  0.82120  1.0000 -0.3914924909
C   C5        1.0  0.94380  0.51740  0.37321  1.0000 -0.1410586485
C   C6        1.0  0.05620  0.01740  0.12679  1.0000 -0.1410586485
C   C7        1.0  0.05620  0.48260  0.62679  1.0000 -0.1410586485
C   C8        1.0  0.94380  0.98260  0.87321  1.0000 -0.1410586485
C   C9        1.0  0.93500  0.60890  0.41976  1.0000 0.1207565063
C   C10       1.0  0.06500  0.10890  0.08024  1.0000 0.1207565063
C   C11       1.0  0.06500  0.39110  0.58024  1.0000 0.1207565063
C   C12       1.0  0.93500  0.89110  0.91976  1.0000 0.1207565063
C   C13       1.0  0.87400  0.60480  0.42900  1.0000 -0.168897574
C   C14       1.0  0.12600  0.10480  0.07100  1.0000 -0.168897574
C   C15       1.0  0.12600  0.39520  0.57100  1.0000 -0.168897574
C   C16       1.0  0.87400  0.89520  0.92900  1.0000 -0.168897574
C   C17       1.0  0.86590  0.68280  0.47310  1.0000 -0.1169030342
C   C18       1.0  0.13410  0.18280  0.02690  1.0000 -0.1169030342
C   C19       1.0  0.13410  0.31720  0.52690  1.0000 -0.1169030342
C   C20       1.0  0.86590  0.81720  0.97310  1.0000 -0.1169030342
C   C21       1.0  0.91880  0.76470  0.50820  1.0000 -0.0266850341
C   C22       1.0  0.08120  0.26470  0.99180  1.0000 -0.0266850341
C   C23       1.0  0.08120  0.23530  0.49180  1.0000 -0.0266850341
C   C24       1.0  0.91880  0.73530  0.00820  1.0000 -0.0266850341
C   C25       1.0  0.98060  0.76760  0.49960  1.0000 -0.0907835115
C   C26       1.0  0.01940  0.26760  0.00040  1.0000 -0.0907835115
C   C27       1.0  0.01940  0.23240  0.50040  1.0000 -0.0907835115
C   C28       1.0  0.98060  0.73240  0.99960  1.0000 -0.0907835115
C   C29       1.0  0.98870  0.69370  0.45570  1.0000 -0.1319783391
C   C30       1.0  0.01130  0.19370  0.04430  1.0000 -0.1319783391
C   C31       1.0  0.01130  0.30630  0.54430  1.0000 -0.1319783391
C   C32       1.0  0.98870  0.80630  0.95570  1.0000 -0.1319783391
C   C33       1.0  0.91110  0.84300  0.55670  1.0000 0.5607973959
C   C34       1.0  0.08890  0.34300  0.94330  1.0000 0.5607973959
C   C35       1.0  0.08890  0.15700  0.44330  1.0000 0.5607973959
C   C36       1.0  0.91110  0.65700  0.05670  1.0000 0.5607973959
C   C37       1.0  0.66570  0.92660  0.64045  1.0000 -0.4239667628
C   C38       1.0  0.33430  0.42660  0.85955  1.0000 -0.4239667628
C   C39       1.0  0.33430  0.07340  0.35955  1.0000 -0.4239667628
C   C40       1.0  0.66570  0.57340  0.14045  1.0000 -0.4239667628
C   C41       1.0  0.54450  0.91380  0.63360  1.0000 -0.1319783391
C   C42       1.0  0.45550  0.41380  0.86640  1.0000 -0.1319783391
C   C43       1.0  0.45550  0.08620  0.36640  1.0000 -0.1319783391
C   C44       1.0  0.54450  0.58620  0.13360  1.0000 -0.1319783391
C   C45       1.0  0.49510  0.91120  0.66350  1.0000 0.0947291747
C   C46       1.0  0.50490  0.41120  0.83650  1.0000 0.0947291747
C   C47       1.0  0.50490  0.08880  0.33650  1.0000 0.0947291747
C   C48       1.0  0.49510  0.58880  0.16350  1.0000 0.0947291747
C   C49       1.0  0.47790  0.74480  0.68200  1.0000 -0.168897574
C   C50       1.0  0.52210  0.24480  0.81800  1.0000 -0.168897574
C   C51       1.0  0.52210  0.25520  0.31800  1.0000 -0.168897574
C   C52       1.0  0.47790  0.75520  0.18200  1.0000 -0.168897574
C   C53       1.0  0.43860  0.74360  0.71470  1.0000 -0.0952021702
C   C54       1.0  0.56140  0.24360  0.78530  1.0000 -0.0952021702
C   C55       1.0  0.56140  0.25640  0.28530  1.0000 -0.0952021702
C   C56       1.0  0.43860  0.75640  0.21470  1.0000 -0.0952021702
C   C57       1.0  0.41440  0.91390  0.72740  1.0000 -0.0398990923
C   C58       1.0  0.58560  0.41390  0.77260  1.0000 -0.0398990923
C   C59       1.0  0.58560  0.08610  0.27260  1.0000 -0.0398990923
C   C60       1.0  0.41440  0.58610  0.22740  1.0000 -0.0398990923
C   C61       1.0  0.42680  0.07950  0.70510  1.0000 -0.0952021702
C   C62       1.0  0.57320  0.57950  0.79490  1.0000 -0.0952021702
C   C63       1.0  0.57320  0.92050  0.29490  1.0000 -0.0952021702
C   C64       1.0  0.42680  0.42050  0.20510  1.0000 -0.0952021702
C   C65       1.0  0.46610  0.07890  0.67300  1.0000 -0.168897574
C   C66       1.0  0.53390  0.57890  0.82700  1.0000 -0.168897574
C   C67       1.0  0.53390  0.92110  0.32700  1.0000 -0.168897574
C   C68       1.0  0.46610  0.42110  0.17300  1.0000 -0.168897574
C   C69       1.0  0.37610  0.91640  0.76490  1.0000 0.5607973959
C   C70       1.0  0.62390  0.41640  0.73510  1.0000 0.5607973959
C   C71       1.0  0.62390  0.08360  0.23510  1.0000 0.5607973959
C   C72       1.0  0.37610  0.58360  0.26490  1.0000 0.5607973959
C   C73       1.0  0.74540  0.27840  0.32190  1.0000 0.5731751647
C   C74       1.0  0.25460  0.77840  0.17810  1.0000 0.5731751647
C   C75       1.0  0.25460  0.72160  0.67810  1.0000 0.5731751647
C   C76       1.0  0.74540  0.22160  0.82190  1.0000 0.5731751647
C   C77       1.0  0.73380  0.25980  0.37210  1.0000 -0.0398990923
C   C78       1.0  0.26620  0.75980  0.12790  1.0000 -0.0398990923
C   C79       1.0  0.26620  0.74020  0.62790  1.0000 -0.0398990923
C   C80       1.0  0.73380  0.24020  0.87210  1.0000 -0.0398990923
C   C81       1.0  0.74980  0.08870  0.39710  1.0000 -0.0749511022
C   C82       1.0  0.25020  0.58870  0.10290  1.0000 -0.0749511022
C   C83       1.0  0.25020  0.91130  0.60290  1.0000 -0.0749511022
C   C84       1.0  0.74980  0.41130  0.89710  1.0000 -0.0749511022
C   C85       1.0  0.73960  0.06550  0.44410  1.0000 -0.1618354853
C   C86       1.0  0.26040  0.56550  0.05590  1.0000 -0.1618354853
C   C87       1.0  0.26040  0.93450  0.55590  1.0000 -0.1618354853
C   C88       1.0  0.73960  0.43450  0.94410  1.0000 -0.1618354853
C   C89       1.0  0.71510  0.21430  0.46560  1.0000 0.1030463826
C   C90       1.0  0.28490  0.71430  0.03440  1.0000 0.1030463826
C   C91       1.0  0.28490  0.78570  0.53440  1.0000 0.1030463826
C   C92       1.0  0.71510  0.28570  0.96560  1.0000 0.1030463826
C   C93       1.0  0.70720  0.18870  0.51720  1.0000 -0.1410586485
C   C94       1.0  0.29280  0.68870  0.98280  1.0000 -0.1410586485
C   C95       1.0  0.29280  0.81130  0.48280  1.0000 -0.1410586485
C   C96       1.0  0.70720  0.31130  0.01720  1.0000 -0.1410586485
C   C97       1.0  0.81830  0.34270  0.56072  1.0000 -0.402508733
C   C98       1.0  0.18170  0.84270  0.93928  1.0000 -0.402508733
C   C99       1.0  0.18170  0.65730  0.43928  1.0000 -0.402508733
C   C100      1.0  0.81830  0.15730  0.06072  1.0000 -0.402508733
C   C101      1.0  0.69870  0.38160  0.44040  1.0000 -0.168897574
C   C102      1.0  0.30130  0.88160  0.05960  1.0000 -0.168897574
C   C103      1.0  0.30130  0.61840  0.55960  1.0000 -0.168897574
C   C104      1.0  0.69870  0.11840  0.94040  1.0000 -0.168897574
C   C105      1.0  0.70740  0.40550  0.39290  1.0000 -0.0952021702
C   C106      1.0  0.29260  0.90550  0.10710  1.0000 -0.0952021702
C   C107      1.0  0.29260  0.59450  0.60710  1.0000 -0.0952021702
C   C108      1.0  0.70740  0.09450  0.89290  1.0000 -0.0952021702
N   N1        1.0  0.95460  0.65740  0.33565  1.0000 -0.2062492643
N   N2        1.0  0.04540  0.15740  0.16435  1.0000 -0.2062492643
N   N3        1.0  0.04540  0.34260  0.66435  1.0000 -0.2062492643
N   N4        1.0  0.95460  0.84260  0.83565  1.0000 -0.2062492643
N   N5        1.0  0.61500  0.91560  0.66843  1.0000 -0.1319783391
N   N6        1.0  0.38500  0.41560  0.83157  1.0000 -0.1319783391
N   N7        1.0  0.38500  0.08440  0.33157  1.0000 -0.1319783391
N   N8        1.0  0.61500  0.58440  0.16843  1.0000 -0.1319783391
N   N9        1.0  0.77310  0.17690  0.55687  1.0000 -0.1410586485
N   N10       1.0  0.22690  0.67690  0.94313  1.0000 -0.1410586485
N   N11       1.0  0.22690  0.82310  0.44313  1.0000 -0.1410586485
N   N12       1.0  0.77310  0.32310  0.05687  1.0000 -0.1410586485
O   O1        1.0  0.96220  0.87440  0.59296  1.0000 -0.6123490158
O   O2        1.0  0.03780  0.37440  0.90704  1.0000 -0.6123490158
O   O3        1.0  0.03780  0.12560  0.40704  1.0000 -0.6123490158
O   O4        1.0  0.96220  0.62560  0.09296  1.0000 -0.6123490158
O   O5        1.0  0.85240  0.86770  0.55983  1.0000 -0.6301003966
O   O6        1.0  0.14760  0.36770  0.94017  1.0000 -0.6301003966
O   O7        1.0  0.14760  0.13230  0.44017  1.0000 -0.6301003966
O   O8        1.0  0.85240  0.63230  0.05983  1.0000 -0.6301003966
O   O9        1.0  0.98020  0.07280  0.29843  1.0000 -0.8782147044
O   O10       1.0  0.01980  0.57280  0.20157  1.0000 -0.8782147044
O   O11       1.0  0.01980  0.92720  0.70157  1.0000 -0.8782147044
O   O12       1.0  0.98020  0.42720  0.79843  1.0000 -0.8782147044
O   O13       1.0  0.85723  0.08760  0.25671  1.0000 -0.8782147044
O   O14       1.0  0.14277  0.58760  0.24329  1.0000 -0.8782147044
O   O15       1.0  0.14277  0.91240  0.74329  1.0000 -0.8782147044
O   O16       1.0  0.85723  0.41240  0.75671  1.0000 -0.8782147044
O   O17       1.0  0.92920  0.82850  0.23348  1.0000 -0.8879811092
O   O18       1.0  0.07080  0.32850  0.26652  1.0000 -0.8879811092
O   O19       1.0  0.07080  0.17150  0.76652  1.0000 -0.8879811092
O   O20       1.0  0.92920  0.67150  0.73348  1.0000 -0.8879811092
O   O21       1.0  0.79474  0.92710  0.64596  1.0000 -0.9148323808
O   O22       1.0  0.20526  0.42710  0.85404  1.0000 -0.9148323808
O   O23       1.0  0.20526  0.07290  0.35404  1.0000 -0.9148323808
O   O24       1.0  0.79474  0.57290  0.14596  1.0000 -0.9148323808
O   O25       1.0  0.76037  0.73180  0.71030  1.0000 -0.9240117345
O   O26       1.0  0.23963  0.23180  0.78970  1.0000 -0.9240117345
O   O27       1.0  0.23963  0.26820  0.28970  1.0000 -0.9303026173
O   O28       1.0  0.76037  0.76820  0.21030  1.0000 -0.9303026173
O   O29       1.0  0.76038  0.08190  0.71663  1.0000 -0.8879811092
O   O30       1.0  0.23962  0.58190  0.78337  1.0000 -0.8879811092
O   O31       1.0  0.23962  0.91810  0.28337  1.0000 -0.8879811092
O   O32       1.0  0.76038  0.41810  0.21663  1.0000 -0.8879811092
O   O33       1.0  0.36163  0.76440  0.78262  1.0000 -0.6472773898
O   O34       1.0  0.63837  0.26440  0.71738  1.0000 -0.6472773898
O   O35       1.0  0.63837  0.23560  0.21738  1.0000 -0.6472773898
O   O36       1.0  0.36163  0.73560  0.28262  1.0000 -0.6472773898
O   O37       1.0  0.35440  0.07160  0.77606  1.0000 -0.6472773898
O   O38       1.0  0.64560  0.57160  0.72394  1.0000 -0.6472773898
O   O39       1.0  0.64560  0.92840  0.22394  1.0000 -0.6472773898
O   O40       1.0  0.35440  0.42840  0.27606  1.0000 -0.6472773898
O   O41       1.0  0.74590  0.45240  0.30628  1.0000 -0.4556999702
O   O42       1.0  0.25410  0.95240  0.19372  1.0000 -0.4556999702
O   O43       1.0  0.25410  0.54760  0.69372  1.0000 -0.4556999702
O   O44       1.0  0.74590  0.04760  0.80628  1.0000 -0.4556999702
O   O45       1.0  0.75330  0.13950  0.29794  1.0000 -0.5797914538
O   O46       1.0  0.24670  0.63950  0.20206  1.0000 -0.5797914538
O   O47       1.0  0.24670  0.86050  0.70206  1.0000 -0.5797914538
O   O48       1.0  0.75330  0.36050  0.79794  1.0000 -0.5797914538
O   O49       1.0  0.90180  0.56020  0.63088  1.0000 -0.8879811092
O   O50       1.0  0.09820  0.06020  0.86912  1.0000 -0.8879811092
O   O51       1.0  0.09820  0.43980  0.36912  1.0000 -0.8879811092
O   O52       1.0  0.90180  0.93980  0.13088  1.0000 -0.8879811092
O   O53       1.0  0.90947  0.20730  0.64263  1.0000 -0.8782147044
O   O54       1.0  0.09053  0.70730  0.85737  1.0000 -0.8782147044
O   O55       1.0  0.09053  0.79270  0.35737  1.0000 -0.8782147044
O   O56       1.0  0.90947  0.29270  0.14263  1.0000 -0.8782147044
O   O57       1.0  0.80634  0.38090  0.65022  1.0000 -0.9303026173
O   O58       1.0  0.19366  0.88090  0.84978  1.0000 -0.9303026173
O   O59       1.0  0.19366  0.61910  0.34978  1.0000 -0.9303026173
O   O60       1.0  0.80634  0.11910  0.15022  1.0000 -0.9303026173
