# DDEC6 charges by PACMAN v1.1 (https://github.com/mtap-research/PACMAN-charge/)
data_2009[Zn][pcu]3[ASR]4
_chemical_formula_sum              "Zn8 H128 C176 N8 O32"
_cell_length_a       20.1319
_cell_length_b       20.1319
_cell_length_c       20.42
_cell_angle_alpha    61.4721
_cell_angle_beta     118.528
_cell_angle_gamma    114.661

_symmetry_space_group_name_H-M    "P 1"
_symmetry_Int_Tables_number       1

loop_
  _symmetry_equiv_pos_as_xyz
  'x, y, z'

loop_
  _atom_site_type_symbol
  _atom_site_label
  _atom_site_symmetry_multiplicity
  _atom_site_fract_x
  _atom_site_fract_y
  _atom_site_fract_z
  _atom_site_occupancy
  _atom_site_charge
Zn  Zn1       1.0  0.17537  0.35333  0.51605  1.0000 0.8234805364
Zn  Zn2       1.0  0.64667  0.82463  0.01605  1.0000 0.8234805364
Zn  Zn3       1.0  0.04396  0.42748  0.41856  1.0000 0.8234805364
Zn  Zn4       1.0  0.57252  0.95604  0.91856  1.0000 0.8234805364
Zn  Zn5       1.0  0.35333  0.17537  0.98395  1.0000 0.8234805364
Zn  Zn6       1.0  0.82463  0.64667  0.48395  1.0000 0.8234805364
Zn  Zn7       1.0  0.42748  0.04396  0.08144  1.0000 0.8234805364
Zn  Zn8       1.0  0.95604  0.57252  0.58144  1.0000 0.8234805364
H   H1        1.0  0.31840  0.49400  0.35920  1.0000 0.1296703728
H   H2        1.0  0.50600  0.68160  0.85920  1.0000 0.1296703728
H   H3        1.0  0.16160  0.61760  0.27000  1.0000 0.1296703728
H   H4        1.0  0.38240  0.83840  0.77000  1.0000 0.1296703728
H   H5        1.0  0.22370  0.71570  0.18470  1.0000 0.1209825679
H   H6        1.0  0.28430  0.77630  0.68470  1.0000 0.1209825679
H   H7        1.0  0.31410  0.81010  0.09390  1.0000 0.1296703728
H   H8        1.0  0.18990  0.68590  0.59390  1.0000 0.1296703728
H   H9        1.0  0.40570  0.86950  0.03170  1.0000 0.1209825679
H   H10       1.0  0.13050  0.59430  0.53170  1.0000 0.1209825679
H   H11       1.0  0.50540  0.68880  0.16940  1.0000 0.1296703728
H   H12       1.0  0.31120  0.49460  0.66940  1.0000 0.1296703728
H   H13       1.0  0.43810  0.53570  0.22970  1.0000 0.1209825679
H   H14       1.0  0.46430  0.56190  0.72970  1.0000 0.1209825679
H   H15       1.0  0.38000  0.48300  0.27620  1.0000 0.1209825679
H   H16       1.0  0.51700  0.62000  0.77620  1.0000 0.1209825679
H   H17       1.0  0.34930  0.53470  0.18640  1.0000 0.1296703728
H   H18       1.0  0.46530  0.65070  0.68640  1.0000 0.1296703728
H   H19       1.0  0.52350  0.60530  0.32790  1.0000 0.1209825679
H   H20       1.0  0.39470  0.47650  0.82790  1.0000 0.1209825679
H   H21       1.0  0.48810  0.64870  0.34540  1.0000 0.1209825679
H   H22       1.0  0.35130  0.51190  0.84540  1.0000 0.1209825679
H   H23       1.0  0.47040  0.55740  0.38020  1.0000 0.1296703728
H   H24       1.0  0.44260  0.52960  0.88020  1.0000 0.1296703728
H   H25       1.0  0.70870  0.09130  0.75640  1.0000 0.1296703728
H   H26       1.0  0.90870  0.29130  0.25640  1.0000 0.1296703728
H   H27       1.0  0.81960  0.92080  0.91320  1.0000 0.1296703728
H   H28       1.0  0.07920  0.18040  0.41320  1.0000 0.1296703728
H   H29       1.0  0.91140  0.97720  0.85550  1.0000 0.1209825679
H   H30       1.0  0.02280  0.08860  0.35550  1.0000 0.1209825679
H   H31       1.0  0.00680  0.07120  0.77020  1.0000 0.1209825679
H   H32       1.0  0.92880  0.99320  0.27020  1.0000 0.1209825679
H   H33       1.0  0.06980  0.16420  0.68340  1.0000 0.1209825679
H   H34       1.0  0.83580  0.93020  0.18340  1.0000 0.1209825679
H   H35       1.0  0.89700  0.27500  0.56790  1.0000 0.1296703728
H   H36       1.0  0.72500  0.10300  0.06790  1.0000 0.1296703728
H   H37       1.0  0.76580  0.24140  0.68170  1.0000 0.1296703728
H   H38       1.0  0.75860  0.23420  0.18170  1.0000 0.1296703728
H   H39       1.0  0.82540  0.29260  0.63690  1.0000 0.1390515958
H   H40       1.0  0.70740  0.17460  0.13690  1.0000 0.1390515958
H   H41       1.0  0.85540  0.24840  0.72900  1.0000 0.1296703728
H   H42       1.0  0.75160  0.14460  0.22900  1.0000 0.1296703728
H   H43       1.0  0.69260  0.16280  0.59450  1.0000 0.1296703728
H   H44       1.0  0.83720  0.30740  0.09450  1.0000 0.1296703728
H   H45       1.0  0.73420  0.11820  0.58590  1.0000 0.1296703728
H   H46       1.0  0.88180  0.26580  0.08590  1.0000 0.1296703728
H   H47       1.0  0.74850  0.20910  0.54530  1.0000 0.1296703728
H   H48       1.0  0.79090  0.25150  0.04530  1.0000 0.1296703728
H   H49       1.0  0.43510  0.98870  0.90510  1.0000 0.1209825679
H   H50       1.0  0.01130  0.56490  0.40510  1.0000 0.1209825679
H   H51       1.0  0.35250  0.06950  0.82170  1.0000 0.1390515958
H   H52       1.0  0.93050  0.64750  0.32170  1.0000 0.1390515958
H   H53       1.0  0.48180  0.18140  0.68610  1.0000 0.1390515958
H   H54       1.0  0.81860  0.51820  0.18610  1.0000 0.1390515958
H   H55       1.0  0.55780  0.09460  0.76950  1.0000 0.1209825679
H   H56       1.0  0.90540  0.44220  0.26950  1.0000 0.1209825679
H   H57       1.0  0.32940  0.19060  0.77190  1.0000 0.1390515958
H   H58       1.0  0.80940  0.67060  0.27190  1.0000 0.1390515958
H   H59       1.0  0.24710  0.27130  0.68580  1.0000 0.1082863285
H   H60       1.0  0.72870  0.75290  0.18580  1.0000 0.1082863285
H   H61       1.0  0.28860  0.29920  0.50930  1.0000 0.1296703728
H   H62       1.0  0.70080  0.71140  0.00930  1.0000 0.1296703728
H   H63       1.0  0.36490  0.21050  0.58800  1.0000 0.1296703728
H   H64       1.0  0.78950  0.63510  0.08800  1.0000 0.1296703728
H   H65       1.0  0.49400  0.31840  0.14080  1.0000 0.1296703728
H   H66       1.0  0.68160  0.50600  0.64080  1.0000 0.1296703728
H   H67       1.0  0.61760  0.16160  0.23000  1.0000 0.1296703728
H   H68       1.0  0.83840  0.38240  0.73000  1.0000 0.1296703728
H   H69       1.0  0.71570  0.22370  0.31530  1.0000 0.1209825679
H   H70       1.0  0.77630  0.28430  0.81530  1.0000 0.1209825679
H   H71       1.0  0.81010  0.31410  0.40610  1.0000 0.1296703728
H   H72       1.0  0.68590  0.18990  0.90610  1.0000 0.1296703728
H   H73       1.0  0.86950  0.40570  0.46830  1.0000 0.1209825679
H   H74       1.0  0.59430  0.13050  0.96830  1.0000 0.1209825679
H   H75       1.0  0.68880  0.50540  0.33060  1.0000 0.1296703728
H   H76       1.0  0.49460  0.31120  0.83060  1.0000 0.1296703728
H   H77       1.0  0.53570  0.43810  0.27030  1.0000 0.1209825679
H   H78       1.0  0.56190  0.46430  0.77030  1.0000 0.1209825679
H   H79       1.0  0.48300  0.38000  0.22380  1.0000 0.1209825679
H   H80       1.0  0.62000  0.51700  0.72380  1.0000 0.1209825679
H   H81       1.0  0.53470  0.34930  0.31360  1.0000 0.1296703728
H   H82       1.0  0.65070  0.46530  0.81360  1.0000 0.1296703728
H   H83       1.0  0.60530  0.52350  0.17210  1.0000 0.1209825679
H   H84       1.0  0.47650  0.39470  0.67210  1.0000 0.1209825679
H   H85       1.0  0.64870  0.48810  0.15460  1.0000 0.1209825679
H   H86       1.0  0.51190  0.35130  0.65460  1.0000 0.1209825679
H   H87       1.0  0.55740  0.47040  0.11980  1.0000 0.1296703728
H   H88       1.0  0.52960  0.44260  0.61980  1.0000 0.1296703728
H   H89       1.0  0.09130  0.70870  0.74360  1.0000 0.1296703728
H   H90       1.0  0.29130  0.90870  0.24360  1.0000 0.1296703728
H   H91       1.0  0.92080  0.81960  0.58680  1.0000 0.1296703728
H   H92       1.0  0.18040  0.07920  0.08680  1.0000 0.1296703728
H   H93       1.0  0.97720  0.91140  0.64450  1.0000 0.1209825679
H   H94       1.0  0.08860  0.02280  0.14450  1.0000 0.1209825679
H   H95       1.0  0.07120  0.00680  0.72980  1.0000 0.1209825679
H   H96       1.0  0.99320  0.92880  0.22980  1.0000 0.1209825679
H   H97       1.0  0.16420  0.06980  0.81660  1.0000 0.1209825679
H   H98       1.0  0.93020  0.83580  0.31660  1.0000 0.1209825679
H   H99       1.0  0.27500  0.89700  0.93210  1.0000 0.1296703728
H   H100      1.0  0.10300  0.72500  0.43210  1.0000 0.1296703728
H   H101      1.0  0.24140  0.76580  0.81830  1.0000 0.1296703728
H   H102      1.0  0.23420  0.75860  0.31830  1.0000 0.1296703728
H   H103      1.0  0.29260  0.82540  0.86310  1.0000 0.1390515958
H   H104      1.0  0.17460  0.70740  0.36310  1.0000 0.1390515958
H   H105      1.0  0.24840  0.85540  0.77100  1.0000 0.1296703728
H   H106      1.0  0.14460  0.75160  0.27100  1.0000 0.1296703728
H   H107      1.0  0.16280  0.69260  0.90550  1.0000 0.1296703728
H   H108      1.0  0.30740  0.83720  0.40550  1.0000 0.1296703728
H   H109      1.0  0.11820  0.73420  0.91410  1.0000 0.1296703728
H   H110      1.0  0.26580  0.88180  0.41410  1.0000 0.1296703728
H   H111      1.0  0.20910  0.74850  0.95470  1.0000 0.1296703728
H   H112      1.0  0.25150  0.79090  0.45470  1.0000 0.1296703728
H   H113      1.0  0.98870  0.43510  0.59490  1.0000 0.1209825679
H   H114      1.0  0.56490  0.01130  0.09490  1.0000 0.1209825679
H   H115      1.0  0.06950  0.35250  0.67830  1.0000 0.1390515958
H   H116      1.0  0.64750  0.93050  0.17830  1.0000 0.1390515958
H   H117      1.0  0.18140  0.48180  0.81390  1.0000 0.1390515958
H   H118      1.0  0.51820  0.81860  0.31390  1.0000 0.1390515958
H   H119      1.0  0.09460  0.55780  0.73050  1.0000 0.1209825679
H   H120      1.0  0.44220  0.90540  0.23050  1.0000 0.1209825679
H   H121      1.0  0.19060  0.32940  0.72810  1.0000 0.1390515958
H   H122      1.0  0.67060  0.80940  0.22810  1.0000 0.1390515958
H   H123      1.0  0.27130  0.24710  0.81420  1.0000 0.1082863285
H   H124      1.0  0.75290  0.72870  0.31420  1.0000 0.1082863285
H   H125      1.0  0.29920  0.28860  0.99070  1.0000 0.1296703728
H   H126      1.0  0.71140  0.70080  0.49070  1.0000 0.1296703728
H   H127      1.0  0.21050  0.36490  0.91200  1.0000 0.1296703728
H   H128      1.0  0.63510  0.78950  0.41200  1.0000 0.1296703728
C   C1        1.0  0.29900  0.53780  0.32310  1.0000 -0.1512871428
C   C2        1.0  0.46220  0.70100  0.82310  1.0000 -0.1512871428
C   C3        1.0  0.23210  0.54630  0.32190  1.0000 -0.028716447
C   C4        1.0  0.45370  0.76790  0.82190  1.0000 -0.028716447
C   C5        1.0  0.20550  0.61250  0.26990  1.0000 -0.1194711168
C   C6        1.0  0.38750  0.79450  0.76990  1.0000 -0.1194711168
C   C7        1.0  0.24180  0.67080  0.21850  1.0000 -0.1512871428
C   C8        1.0  0.32920  0.75820  0.71850  1.0000 -0.1512871428
C   C9        1.0  0.35180  0.78560  0.10850  1.0000 -0.1512871428
C   C10       1.0  0.21440  0.64820  0.60850  1.0000 -0.1512871428
C   C11       1.0  0.40690  0.82070  0.07160  1.0000 -0.1194711168
C   C12       1.0  0.17930  0.59310  0.57160  1.0000 -0.1194711168
C   C13       1.0  0.46350  0.78490  0.09280  1.0000 -0.038306198
C   C14       1.0  0.21510  0.53650  0.59280  1.0000 -0.038306198
C   C15       1.0  0.46690  0.71270  0.15390  1.0000 -0.1512871428
C   C16       1.0  0.28730  0.53310  0.65390  1.0000 -0.1512871428
C   C17       1.0  0.40650  0.59910  0.26030  1.0000 0.178987817
C   C18       1.0  0.40090  0.59350  0.76030  1.0000 0.178987817
C   C19       1.0  0.33480  0.59540  0.27020  1.0000 0.0197930341
C   C20       1.0  0.40460  0.66520  0.77020  1.0000 0.0197930341
C   C21       1.0  0.30650  0.66270  0.21690  1.0000 0.0127021662
C   C22       1.0  0.33730  0.69350  0.71690  1.0000 0.0127021662
C   C23       1.0  0.35470  0.71310  0.16740  1.0000 0.0197930341
C   C24       1.0  0.28690  0.64530  0.66740  1.0000 0.0197930341
C   C25       1.0  0.41370  0.67750  0.19080  1.0000 0.0197930341
C   C26       1.0  0.32250  0.58630  0.69080  1.0000 0.0197930341
C   C27       1.0  0.39210  0.53190  0.23590  1.0000 -0.4377698962
C   C28       1.0  0.46810  0.60790  0.73590  1.0000 -0.4377698962
C   C29       1.0  0.47900  0.60300  0.33550  1.0000 -0.4527433281
C   C30       1.0  0.39700  0.52100  0.83550  1.0000 -0.4527433281
C   C31       1.0  0.19140  0.48460  0.37830  1.0000 0.5816724721
C   C32       1.0  0.51540  0.80860  0.87830  1.0000 0.5816724721
C   C33       1.0  0.52060  0.82380  0.05060  1.0000 0.5684839162
C   C34       1.0  0.17620  0.47940  0.55060  1.0000 0.5684839162
C   C35       1.0  0.74900  0.06840  0.77490  1.0000 -0.1512871428
C   C36       1.0  0.93160  0.25100  0.27490  1.0000 -0.1512871428
C   C37       1.0  0.75520  0.99920  0.84110  1.0000 -0.028716447
C   C38       1.0  0.00080  0.24480  0.34110  1.0000 -0.028716447
C   C39       1.0  0.81600  0.96680  0.86940  1.0000 -0.1194711168
C   C40       1.0  0.03320  0.18400  0.36940  1.0000 -0.1194711168
C   C41       1.0  0.87060  0.00000  0.83520  1.0000 -0.1512871428
C   C42       1.0  0.00000  0.12940  0.33520  1.0000 -0.1512871428
C   C43       1.0  0.98540  0.11260  0.72980  1.0000 -0.1512871428
C   C44       1.0  0.88740  0.01460  0.22980  1.0000 -0.1512871428
C   C45       1.0  0.02280  0.16780  0.67790  1.0000 -0.1353338835
C   C46       1.0  0.83220  0.97720  0.17790  1.0000 -0.1353338835
C   C47       1.0  0.99070  0.23010  0.61630  1.0000 -0.028716447
C   C48       1.0  0.76990  0.00930  0.11630  1.0000 -0.028716447
C   C49       1.0  0.91940  0.23440  0.60880  1.0000 -0.1683103878
C   C50       1.0  0.76560  0.08060  0.10880  1.0000 -0.1683103878
C   C51       1.0  0.80770  0.17490  0.66540  1.0000 0.178987817
C   C52       1.0  0.82510  0.19230  0.16540  1.0000 0.178987817
C   C53       1.0  0.80210  0.10170  0.73810  1.0000 0.0255396218
C   C54       1.0  0.89830  0.19790  0.23810  1.0000 0.0255396218
C   C55       1.0  0.86550  0.06870  0.76910  1.0000 0.0197930341
C   C56       1.0  0.93130  0.13450  0.26910  1.0000 0.0197930341
C   C57       1.0  0.91590  0.11790  0.72260  1.0000 0.0197930341
C   C58       1.0  0.88210  0.08410  0.22260  1.0000 0.0197930341
C   C59       1.0  0.88300  0.17940  0.66150  1.0000 0.0197930341
C   C60       1.0  0.82060  0.11700  0.16150  1.0000 0.0197930341
C   C61       1.0  0.81420  0.24600  0.67960  1.0000 -0.4527433281
C   C62       1.0  0.75400  0.18580  0.17960  1.0000 -0.4527433281
C   C63       1.0  0.73940  0.16540  0.59090  1.0000 -0.4377698962
C   C64       1.0  0.83460  0.26060  0.09090  1.0000 -0.4377698962
C   C65       1.0  0.69680  0.96240  0.88260  1.0000 0.5858725282
C   C66       1.0  0.03760  0.30320  0.38260  1.0000 0.5858725282
C   C67       1.0  0.03260  0.29120  0.56060  1.0000 0.5633256707
C   C68       1.0  0.70880  0.96740  0.06060  1.0000 0.5633256707
C   C69       1.0  0.44430  0.02770  0.85940  1.0000 0.0883484251
C   C70       1.0  0.97230  0.55570  0.35940  1.0000 0.0883484251
C   C71       1.0  0.39460  0.07660  0.80970  1.0000 -0.177966385
C   C72       1.0  0.92340  0.60540  0.30970  1.0000 -0.177966385
C   C73       1.0  0.40720  0.13500  0.74350  1.0000 0.1082863285
C   C74       1.0  0.86500  0.59280  0.24350  1.0000 0.1082863285
C   C75       1.0  0.47010  0.14150  0.73010  1.0000 -0.2008010325
C   C76       1.0  0.85850  0.52990  0.23010  1.0000 -0.2008010325
C   C77       1.0  0.51620  0.08960  0.78110  1.0000 0.0883484251
C   C78       1.0  0.91040  0.48380  0.28110  1.0000 0.0883484251
C   C79       1.0  0.35540  0.18860  0.69070  1.0000 0.1082863285
C   C80       1.0  0.81140  0.64460  0.19070  1.0000 0.1082863285
C   C81       1.0  0.32020  0.20940  0.71770  1.0000 -0.1903969784
C   C82       1.0  0.79060  0.67980  0.21770  1.0000 -0.1903969784
C   C83       1.0  0.27070  0.25850  0.66530  1.0000 0.0801158074
C   C84       1.0  0.74150  0.72930  0.16530  1.0000 0.0801158074
C   C85       1.0  0.29360  0.27360  0.56270  1.0000 0.0883484251
C   C86       1.0  0.72640  0.70640  0.06270  1.0000 0.0883484251
C   C87       1.0  0.34190  0.22210  0.61030  1.0000 -0.2008010325
C   C88       1.0  0.77790  0.65810  0.11030  1.0000 -0.2008010325
C   C89       1.0  0.53780  0.29900  0.17690  1.0000 -0.1512871428
C   C90       1.0  0.70100  0.46220  0.67690  1.0000 -0.1512871428
C   C91       1.0  0.54630  0.23210  0.17810  1.0000 -0.028716447
C   C92       1.0  0.76790  0.45370  0.67810  1.0000 -0.028716447
C   C93       1.0  0.61250  0.20550  0.23010  1.0000 -0.1194711168
C   C94       1.0  0.79450  0.38750  0.73010  1.0000 -0.1194711168
C   C95       1.0  0.67080  0.24180  0.28150  1.0000 -0.1512871428
C   C96       1.0  0.75820  0.32920  0.78150  1.0000 -0.1512871428
C   C97       1.0  0.78560  0.35180  0.39150  1.0000 -0.1512871428
C   C98       1.0  0.64820  0.21440  0.89150  1.0000 -0.1512871428
C   C99       1.0  0.82070  0.40690  0.42840  1.0000 -0.1194711168
C   C100      1.0  0.59310  0.17930  0.92840  1.0000 -0.1194711168
C   C101      1.0  0.78490  0.46350  0.40720  1.0000 -0.038306198
C   C102      1.0  0.53650  0.21510  0.90720  1.0000 -0.038306198
C   C103      1.0  0.71270  0.46690  0.34610  1.0000 -0.1512871428
C   C104      1.0  0.53310  0.28730  0.84610  1.0000 -0.1512871428
C   C105      1.0  0.59910  0.40650  0.23970  1.0000 0.178987817
C   C106      1.0  0.59350  0.40090  0.73970  1.0000 0.178987817
C   C107      1.0  0.59540  0.33480  0.22980  1.0000 0.0197930341
C   C108      1.0  0.66520  0.40460  0.72980  1.0000 0.0197930341
C   C109      1.0  0.66270  0.30650  0.28310  1.0000 0.0127021662
C   C110      1.0  0.69350  0.33730  0.78310  1.0000 0.0127021662
C   C111      1.0  0.71310  0.35470  0.33260  1.0000 0.0197930341
C   C112      1.0  0.64530  0.28690  0.83260  1.0000 0.0197930341
C   C113      1.0  0.67750  0.41370  0.30920  1.0000 0.0197930341
C   C114      1.0  0.58630  0.32250  0.80920  1.0000 0.0197930341
C   C115      1.0  0.53190  0.39210  0.26410  1.0000 -0.4377698962
C   C116      1.0  0.60790  0.46810  0.76410  1.0000 -0.4377698962
C   C117      1.0  0.60300  0.47900  0.16450  1.0000 -0.4527433281
C   C118      1.0  0.52100  0.39700  0.66450  1.0000 -0.4527433281
C   C119      1.0  0.48460  0.19140  0.12170  1.0000 0.5816724721
C   C120      1.0  0.80860  0.51540  0.62170  1.0000 0.5816724721
C   C121      1.0  0.82380  0.52060  0.44940  1.0000 0.5684839162
C   C122      1.0  0.47940  0.17620  0.94940  1.0000 0.5684839162
C   C123      1.0  0.06840  0.74900  0.72510  1.0000 -0.1557469395
C   C124      1.0  0.25100  0.93160  0.22510  1.0000 -0.1557469395
C   C125      1.0  0.99920  0.75520  0.65890  1.0000 -0.028716447
C   C126      1.0  0.24480  0.00080  0.15890  1.0000 -0.028716447
C   C127      1.0  0.96680  0.81600  0.63060  1.0000 -0.1194711168
C   C128      1.0  0.18400  0.03320  0.13060  1.0000 -0.1194711168
C   C129      1.0  0.00000  0.87060  0.66480  1.0000 -0.1512871428
C   C130      1.0  0.12940  0.00000  0.16480  1.0000 -0.1512871428
C   C131      1.0  0.11260  0.98540  0.77020  1.0000 -0.1512871428
C   C132      1.0  0.01460  0.88740  0.27020  1.0000 -0.1512871428
C   C133      1.0  0.16780  0.02280  0.82210  1.0000 -0.1353338835
C   C134      1.0  0.97720  0.83220  0.32210  1.0000 -0.1353338835
C   C135      1.0  0.23010  0.99070  0.88370  1.0000 -0.028716447
C   C136      1.0  0.00930  0.76990  0.38370  1.0000 -0.028716447
C   C137      1.0  0.23440  0.91940  0.89120  1.0000 -0.1683103878
C   C138      1.0  0.08060  0.76560  0.39120  1.0000 -0.1683103878
C   C139      1.0  0.17490  0.80770  0.83460  1.0000 0.178987817
C   C140      1.0  0.19230  0.82510  0.33460  1.0000 0.178987817
C   C141      1.0  0.10170  0.80210  0.76190  1.0000 0.0197930341
C   C142      1.0  0.19790  0.89830  0.26190  1.0000 0.0197930341
C   C143      1.0  0.06870  0.86550  0.73090  1.0000 0.0197930341
C   C144      1.0  0.13450  0.93130  0.23090  1.0000 0.0197930341
C   C145      1.0  0.11790  0.91590  0.77740  1.0000 0.0197930341
C   C146      1.0  0.08410  0.88210  0.27740  1.0000 0.0197930341
C   C147      1.0  0.17940  0.88300  0.83850  1.0000 0.0197930341
C   C148      1.0  0.11700  0.82060  0.33850  1.0000 0.0197930341
C   C149      1.0  0.24600  0.81420  0.82040  1.0000 -0.4527433281
C   C150      1.0  0.18580  0.75400  0.32040  1.0000 -0.4527433281
C   C151      1.0  0.16540  0.73940  0.90910  1.0000 -0.4377698962
C   C152      1.0  0.26060  0.83460  0.40910  1.0000 -0.4377698962
C   C153      1.0  0.96240  0.69680  0.61740  1.0000 0.5858725282
C   C154      1.0  0.30320  0.03760  0.11740  1.0000 0.5858725282
C   C155      1.0  0.29120  0.03260  0.93940  1.0000 0.5633256707
C   C156      1.0  0.96740  0.70880  0.43940  1.0000 0.5633256707
C   C157      1.0  0.02770  0.44430  0.64060  1.0000 0.0883484251
C   C158      1.0  0.55570  0.97230  0.14060  1.0000 0.0883484251
C   C159      1.0  0.07660  0.39460  0.69030  1.0000 -0.177966385
C   C160      1.0  0.60540  0.92340  0.19030  1.0000 -0.177966385
C   C161      1.0  0.13500  0.40720  0.75650  1.0000 0.1082863285
C   C162      1.0  0.59280  0.86500  0.25650  1.0000 0.1082863285
C   C163      1.0  0.14150  0.47010  0.76990  1.0000 -0.2008010325
C   C164      1.0  0.52990  0.85850  0.26990  1.0000 -0.2008010325
C   C165      1.0  0.08960  0.51620  0.71890  1.0000 0.0883484251
C   C166      1.0  0.48380  0.91040  0.21890  1.0000 0.0883484251
C   C167      1.0  0.18860  0.35540  0.80930  1.0000 0.1082863285
C   C168      1.0  0.64460  0.81140  0.30930  1.0000 0.1082863285
C   C169      1.0  0.20940  0.32020  0.78230  1.0000 -0.1903969784
C   C170      1.0  0.67980  0.79060  0.28230  1.0000 -0.1903969784
C   C171      1.0  0.25850  0.27070  0.83470  1.0000 0.0801158074
C   C172      1.0  0.72930  0.74150  0.33470  1.0000 0.0801158074
C   C173      1.0  0.27360  0.29360  0.93730  1.0000 0.0883484251
C   C174      1.0  0.70640  0.72640  0.43730  1.0000 0.0883484251
C   C175      1.0  0.22210  0.34190  0.88970  1.0000 -0.2008010325
C   C176      1.0  0.65810  0.77790  0.38970  1.0000 -0.2008010325
N   N1        1.0  0.50424  0.03336  0.84530  1.0000 -0.2008010325
N   N2        1.0  0.96664  0.49576  0.34530  1.0000 -0.2008010325
N   N3        1.0  0.25528  0.28772  0.58900  1.0000 -0.1903969784
N   N4        1.0  0.71228  0.74472  0.08900  1.0000 -0.1903969784
N   N5        1.0  0.03336  0.50424  0.65470  1.0000 -0.2008010325
N   N6        1.0  0.49576  0.96664  0.15470  1.0000 -0.2008010325
N   N7        1.0  0.28772  0.25528  0.91100  1.0000 -0.1903969784
N   N8        1.0  0.74472  0.71228  0.41100  1.0000 -0.1903969784
O   O1        1.0  0.22569  0.43211  0.43430  1.0000 -0.5401470449
O   O2        1.0  0.56789  0.77431  0.93430  1.0000 -0.5401470449
O   O3        1.0  0.12729  0.48971  0.36730  1.0000 -0.5401470449
O   O4        1.0  0.51029  0.87271  0.86730  1.0000 -0.5401470449
O   O5        1.0  0.51669  0.89031  0.99880  1.0000 -0.5481065478
O   O6        1.0  0.10969  0.48331  0.49880  1.0000 -0.5401470449
O   O7        1.0  0.56758  0.78722  0.06920  1.0000 -0.5275531587
O   O8        1.0  0.21278  0.43242  0.56920  1.0000 -0.5275531587
O   O9        1.0  0.64573  0.99587  0.85890  1.0000 -0.5275531587
O   O10       1.0  0.00413  0.35427  0.35890  1.0000 -0.5275531587
O   O11       1.0  0.70385  0.89835  0.93810  1.0000 -0.5481065478
O   O12       1.0  0.10165  0.29615  0.43810  1.0000 -0.5481065478
O   O13       1.0  0.99726  0.33974  0.50100  1.0000 -0.5244954106
O   O14       1.0  0.66026  0.00274  0.00100  1.0000 -0.5244954106
O   O15       1.0  0.10101  0.28959  0.57930  1.0000 -0.5481065478
O   O16       1.0  0.71041  0.89899  0.07930  1.0000 -0.5481065478
O   O17       1.0  0.43211  0.22569  0.06570  1.0000 -0.5401470449
O   O18       1.0  0.77431  0.56789  0.56570  1.0000 -0.5401470449
O   O19       1.0  0.48971  0.12729  0.13270  1.0000 -0.5401470449
O   O20       1.0  0.87271  0.51029  0.63270  1.0000 -0.5401470449
O   O21       1.0  0.89031  0.51669  0.50120  1.0000 -0.5481065478
O   O22       1.0  0.48331  0.10969  0.00120  1.0000 -0.5401470449
O   O23       1.0  0.78722  0.56758  0.43080  1.0000 -0.5275531587
O   O24       1.0  0.43242  0.21278  0.93080  1.0000 -0.5275531587
O   O25       1.0  0.99587  0.64573  0.64110  1.0000 -0.5275531587
O   O26       1.0  0.35427  0.00413  0.14110  1.0000 -0.5275531587
O   O27       1.0  0.89835  0.70385  0.56190  1.0000 -0.5481065478
O   O28       1.0  0.29615  0.10165  0.06190  1.0000 -0.5481065478
O   O29       1.0  0.33974  0.99726  0.99900  1.0000 -0.5244954106
O   O30       1.0  0.00274  0.66026  0.49900  1.0000 -0.5244954106
O   O31       1.0  0.28959  0.10101  0.92070  1.0000 -0.5481065478
O   O32       1.0  0.89899  0.71041  0.42070  1.0000 -0.5481065478
