# DDEC6 charges by PACMAN v1.1 (https://github.com/mtap-research/PACMAN-charge/)
data_2009[Dy][pts]3[ASR]1
_chemical_formula_sum              "Dy4 H24 C30 N12 O24"
_cell_length_a       10.5621
_cell_length_b       10.5621
_cell_length_c       14.802
_cell_angle_alpha    89.4032
_cell_angle_beta     90.5968
_cell_angle_gamma    74.2389

_symmetry_space_group_name_H-M    "P 1"
_symmetry_Int_Tables_number       1

loop_
  _symmetry_equiv_pos_as_xyz
  'x, y, z'

loop_
  _atom_site_type_symbol
  _atom_site_label
  _atom_site_symmetry_multiplicity
  _atom_site_fract_x
  _atom_site_fract_y
  _atom_site_fract_z
  _atom_site_occupancy
  _atom_site_charge
Dy  Dy1       1.0  0.42673  0.17643  0.44291  1.0000 2.0229543682
Dy  Dy2       1.0  0.17643  0.42673  0.05709  1.0000 2.0229543682
Dy  Dy3       1.0  0.57327  0.82357  0.55709  1.0000 2.0229543682
Dy  Dy4       1.0  0.82357  0.57327  0.94291  1.0000 2.0229543682
H   H1        1.0  0.35340  0.05300  0.74560  1.0000 0.1495901645
H   H2        1.0  0.05300  0.35340  0.75440  1.0000 0.1495901645
H   H3        1.0  0.64660  0.94700  0.25440  1.0000 0.1495901645
H   H4        1.0  0.94700  0.64660  0.24560  1.0000 0.1495901645
H   H5        1.0  0.20920  0.06100  0.71360  1.0000 0.1495901645
H   H6        1.0  0.06100  0.20920  0.78640  1.0000 0.1495901645
H   H7        1.0  0.79080  0.93900  0.28640  1.0000 0.1438631319
H   H8        1.0  0.93900  0.79080  0.21360  1.0000 0.1495901645
H   H9        1.0  0.79330  0.13890  0.69990  1.0000 0.1319785054
H   H10       1.0  0.13890  0.79330  0.80010  1.0000 0.1319785054
H   H11       1.0  0.20670  0.86110  0.30010  1.0000 0.1319785054
H   H12       1.0  0.86110  0.20670  0.19990  1.0000 0.1319785054
H   H13       1.0  0.67530  0.11230  0.75280  1.0000 0.1438631319
H   H14       1.0  0.11230  0.67530  0.74720  1.0000 0.1438631319
H   H15       1.0  0.32470  0.88770  0.24720  1.0000 0.1438631319
H   H16       1.0  0.88770  0.32470  0.25280  1.0000 0.1438631319
H   H17       1.0  0.80200  0.34360  0.67010  1.0000 0.1319785054
H   H18       1.0  0.34360  0.80200  0.82990  1.0000 0.1319785054
H   H19       1.0  0.19800  0.65640  0.32990  1.0000 0.1319785054
H   H20       1.0  0.65640  0.19800  0.17010  1.0000 0.1319785054
H   H21       1.0  0.67410  0.46010  0.65990  1.0000 0.1438631319
H   H22       1.0  0.46010  0.67410  0.84010  1.0000 0.1438631319
H   H23       1.0  0.32590  0.53990  0.34010  1.0000 0.1438631319
H   H24       1.0  0.53990  0.32590  0.15990  1.0000 0.1438631319
C   C1        1.0  0.31270  0.31270  0.75000  1.0000 0.4723379151
C   C2        1.0  0.68730  0.68730  0.25000  1.0000 0.4723379151
C   C3        1.0  0.51360  0.34500  0.73150  1.0000 0.4723379151
C   C4        1.0  0.34500  0.51360  0.76850  1.0000 0.4723379151
C   C5        1.0  0.48640  0.65500  0.26850  1.0000 0.4723379151
C   C6        1.0  0.65500  0.48640  0.23150  1.0000 0.4723379151
C   C7        1.0  0.27840  0.10520  0.71110  1.0000 -0.2361463073
C   C8        1.0  0.10520  0.27840  0.78890  1.0000 -0.2361463073
C   C9        1.0  0.72160  0.89480  0.28890  1.0000 -0.2361463073
C   C10       1.0  0.89480  0.72160  0.21110  1.0000 -0.2361463073
C   C11       1.0  0.31850  0.11730  0.61140  1.0000 0.6527958747
C   C12       1.0  0.11730  0.31850  0.88860  1.0000 0.6527958747
C   C13       1.0  0.68150  0.88270  0.38860  1.0000 0.6527958747
C   C14       1.0  0.88270  0.68150  0.11140  1.0000 0.6527958747
C   C15       1.0  0.69820  0.15720  0.70060  1.0000 -0.2623954479
C   C16       1.0  0.15720  0.69820  0.79940  1.0000 -0.2623954479
C   C17       1.0  0.30180  0.84280  0.29940  1.0000 -0.2623954479
C   C18       1.0  0.84280  0.30180  0.20060  1.0000 -0.2623954479
C   C19       1.0  0.65320  0.10200  0.61650  1.0000 0.6824590649
C   C20       1.0  0.10200  0.65320  0.88350  1.0000 0.6824590649
C   C21       1.0  0.34680  0.89800  0.38350  1.0000 0.6824590649
C   C22       1.0  0.89800  0.34680  0.11650  1.0000 0.6824590649
C   C23       1.0  0.72090  0.38870  0.69960  1.0000 -0.2480801035
C   C24       1.0  0.38870  0.72090  0.80040  1.0000 -0.2480801035
C   C25       1.0  0.27910  0.61130  0.30040  1.0000 -0.2480801035
C   C26       1.0  0.61130  0.27910  0.19960  1.0000 -0.2480801035
C   C27       1.0  0.75470  0.44590  0.78600  1.0000 0.5927758004
C   C28       1.0  0.44590  0.75470  0.71400  1.0000 0.5927758004
C   C29       1.0  0.24530  0.55410  0.21400  1.0000 0.5927758004
C   C30       1.0  0.55410  0.24530  0.28600  1.0000 0.5927758004
N   N1        1.0  0.44040  0.25800  0.73080  1.0000 -0.5308397476
N   N2        1.0  0.25800  0.44040  0.76920  1.0000 -0.5308397476
N   N3        1.0  0.55960  0.74200  0.26920  1.0000 -0.5308397476
N   N4        1.0  0.74200  0.55960  0.23080  1.0000 -0.5308397476
N   N5        1.0  0.47250  0.47250  0.75000  1.0000 -0.523649222
N   N6        1.0  0.52750  0.52750  0.25000  1.0000 -0.523649222
N   N7        1.0  0.23310  0.23310  0.75000  1.0000 -0.0411419951
N   N8        1.0  0.76690  0.76690  0.25000  1.0000 -0.0411419951
N   N9        1.0  0.64190  0.29790  0.71050  1.0000 -0.0622816646
N   N10       1.0  0.29790  0.64190  0.78950  1.0000 -0.0655444142
N   N11       1.0  0.35810  0.70210  0.28950  1.0000 -0.0622816646
N   N12       1.0  0.70210  0.35810  0.21050  1.0000 -0.0622816646
O   O1        1.0  0.40910  0.02470  0.58010  1.0000 -0.7198409204
O   O2        1.0  0.02470  0.40910  0.91990  1.0000 -0.7198409204
O   O3        1.0  0.59090  0.97530  0.41990  1.0000 -0.7198409204
O   O4        1.0  0.97530  0.59090  0.08010  1.0000 -0.7198409204
O   O5        1.0  0.26050  0.21210  0.56510  1.0000 -0.5917340027
O   O6        1.0  0.21210  0.26050  0.93490  1.0000 -0.5917340027
O   O7        1.0  0.73950  0.78790  0.43490  1.0000 -0.5917340027
O   O8        1.0  0.78790  0.73950  0.06510  1.0000 -0.5917340027
O   O9        1.0  0.68210  0.97650  0.61510  1.0000 -0.6827450458
O   O10       1.0  0.97650  0.68210  0.88490  1.0000 -0.6827450458
O   O11       1.0  0.31790  0.02350  0.38490  1.0000 -0.6827450458
O   O12       1.0  0.02350  0.31790  0.11510  1.0000 -0.6827450458
O   O13       1.0  0.59420  0.17640  0.55430  1.0000 -0.6494528342
O   O14       1.0  0.17640  0.59420  0.94570  1.0000 -0.6494528342
O   O15       1.0  0.40580  0.82360  0.44570  1.0000 -0.6494528342
O   O16       1.0  0.82360  0.40580  0.05430  1.0000 -0.6494528342
O   O17       1.0  0.79530  0.54850  0.77920  1.0000 -0.6494528342
O   O18       1.0  0.54850  0.79530  0.72080  1.0000 -0.6494528342
O   O19       1.0  0.20470  0.45150  0.22080  1.0000 -0.6494528342
O   O20       1.0  0.45150  0.20470  0.27920  1.0000 -0.6494528342
O   O21       1.0  0.74940  0.39600  0.86070  1.0000 -0.5957724813
O   O22       1.0  0.39600  0.74940  0.63930  1.0000 -0.5917340027
O   O23       1.0  0.25060  0.60400  0.13930  1.0000 -0.5917340027
O   O24       1.0  0.60400  0.25060  0.36070  1.0000 -0.5917340027
