# DDEC6 charges by PACMAN v1.1 (https://github.com/mtap-research/PACMAN-charge/)
data_2009[Gd][sxb]3[ASR]1
_chemical_formula_sum              "Gd8 H72 C168 S12 O72"
_cell_length_a       19.0203
_cell_length_b       19.0203
_cell_length_c       30.0846
_cell_angle_alpha    82.6676
_cell_angle_beta     97.3324
_cell_angle_gamma    133.885

_symmetry_space_group_name_H-M    "P 1"
_symmetry_Int_Tables_number       1

loop_
  _symmetry_equiv_pos_as_xyz
  'x, y, z'

loop_
  _atom_site_type_symbol
  _atom_site_label
  _atom_site_symmetry_multiplicity
  _atom_site_fract_x
  _atom_site_fract_y
  _atom_site_fract_z
  _atom_site_occupancy
  _atom_site_charge
Gd  Gd1       1.0  0.63792  0.22064  0.85664  1.0000 2.0357028057
Gd  Gd2       1.0  0.77936  0.36208  0.35664  1.0000 2.0357028057
Gd  Gd3       1.0  0.55381  0.38214  0.84312  1.0000 2.0080751588
Gd  Gd4       1.0  0.61786  0.44618  0.34312  1.0000 2.0080751588
Gd  Gd5       1.0  0.22064  0.63792  0.64336  1.0000 2.0357028057
Gd  Gd6       1.0  0.36208  0.77936  0.14336  1.0000 2.0357028057
Gd  Gd7       1.0  0.38215  0.55382  0.65688  1.0000 2.0080751588
Gd  Gd8       1.0  0.44618  0.61785  0.15688  1.0000 2.0080751588
H   H1        1.0  0.59600  0.40860  0.68970  1.0000 0.1391188704
H   H2        1.0  0.59140  0.40400  0.18970  1.0000 0.1391188704
H   H3        1.0  0.57380  0.18160  0.71880  1.0000 0.1210400273
H   H4        1.0  0.81840  0.42620  0.21880  1.0000 0.1210400273
H   H5        1.0  0.57960  0.17200  0.64400  1.0000 0.1210400273
H   H6        1.0  0.82800  0.42040  0.14400  1.0000 0.1210400273
H   H7        1.0  0.60350  0.19130  0.56200  1.0000 0.1210400273
H   H8        1.0  0.80870  0.39650  0.06200  1.0000 0.1210400273
H   H9        1.0  0.65890  0.45970  0.49510  1.0000 0.1474772205
H   H10       1.0  0.54030  0.34110  0.99510  1.0000 0.1474772205
H   H11       1.0  0.64280  0.24000  0.48830  1.0000 0.1210400273
H   H12       1.0  0.76000  0.35720  0.98830  1.0000 0.1210400273
H   H13       1.0  0.23790  0.08790  0.84530  1.0000 0.1391188704
H   H14       1.0  0.91210  0.76210  0.34530  1.0000 0.1391188704
H   H15       1.0  0.34650  0.96710  0.85170  1.0000 0.1391188704
H   H16       1.0  0.03290  0.65350  0.35170  1.0000 0.1391188704
H   H17       1.0  0.08160  0.93660  0.84850  1.0000 0.1210400273
H   H18       1.0  0.06340  0.91840  0.34850  1.0000 0.1210400273
H   H19       1.0  0.92360  0.76060  0.85260  1.0000 0.1210400273
H   H20       1.0  0.23940  0.07640  0.35260  1.0000 0.1210400273
H   H21       1.0  0.79350  0.59550  0.85390  1.0000 0.1210400273
H   H22       1.0  0.40450  0.20650  0.35390  1.0000 0.1210400273
H   H23       1.0  0.97150  0.55070  0.85860  1.0000 0.1391188704
H   H24       1.0  0.44930  0.02850  0.35860  1.0000 0.1391188704
H   H25       1.0  0.91990  0.25550  0.89820  1.0000 0.1391188704
H   H26       1.0  0.74450  0.08010  0.39820  1.0000 0.1391188704
H   H27       1.0  0.87860  0.28260  0.76580  1.0000 0.1271460388
H   H28       1.0  0.71740  0.12140  0.26580  1.0000 0.1271460388
H   H29       1.0  0.01800  0.31680  0.75300  1.0000 0.1140256931
H   H30       1.0  0.68320  0.98200  0.25300  1.0000 0.1140256931
H   H31       1.0  0.17070  0.34910  0.75260  1.0000 0.1210400273
H   H32       1.0  0.65090  0.82930  0.25260  1.0000 0.1210400273
H   H33       1.0  0.27660  0.32780  0.89780  1.0000 0.1391188704
H   H34       1.0  0.67220  0.72340  0.39780  1.0000 0.1391188704
H   H35       1.0  0.30850  0.37410  0.76450  1.0000 0.1271460388
H   H36       1.0  0.62590  0.69150  0.26450  1.0000 0.1271460388
H   H37       1.0  0.40860  0.59600  0.81030  1.0000 0.1391188704
H   H38       1.0  0.40400  0.59140  0.31030  1.0000 0.1391188704
H   H39       1.0  0.18160  0.57380  0.78120  1.0000 0.1210400273
H   H40       1.0  0.42620  0.81840  0.28120  1.0000 0.1210400273
H   H41       1.0  0.17200  0.57960  0.85600  1.0000 0.1210400273
H   H42       1.0  0.42040  0.82800  0.35600  1.0000 0.1210400273
H   H43       1.0  0.19130  0.60350  0.93800  1.0000 0.1210400273
H   H44       1.0  0.39650  0.80870  0.43800  1.0000 0.1210400273
H   H45       1.0  0.45970  0.65890  0.00490  1.0000 0.1474772205
H   H46       1.0  0.34110  0.54030  0.50490  1.0000 0.1474772205
H   H47       1.0  0.24000  0.64280  0.01170  1.0000 0.1210400273
H   H48       1.0  0.35720  0.76000  0.51170  1.0000 0.1210400273
H   H49       1.0  0.08790  0.23790  0.65470  1.0000 0.1391188704
H   H50       1.0  0.76210  0.91210  0.15470  1.0000 0.1391188704
H   H51       1.0  0.96710  0.34650  0.64830  1.0000 0.1391188704
H   H52       1.0  0.65350  0.03290  0.14830  1.0000 0.1391188704
H   H53       1.0  0.93660  0.08160  0.65150  1.0000 0.1210400273
H   H54       1.0  0.91840  0.06340  0.15150  1.0000 0.1210400273
H   H55       1.0  0.76060  0.92360  0.64740  1.0000 0.1210400273
H   H56       1.0  0.07640  0.23940  0.14740  1.0000 0.1210400273
H   H57       1.0  0.59550  0.79350  0.64610  1.0000 0.1210400273
H   H58       1.0  0.20650  0.40450  0.14610  1.0000 0.1210400273
H   H59       1.0  0.55070  0.97150  0.64140  1.0000 0.1391188704
H   H60       1.0  0.02850  0.44930  0.14140  1.0000 0.1391188704
H   H61       1.0  0.25550  0.91990  0.60180  1.0000 0.1391188704
H   H62       1.0  0.08010  0.74450  0.10180  1.0000 0.1391188704
H   H63       1.0  0.28260  0.87860  0.73420  1.0000 0.1271460388
H   H64       1.0  0.12140  0.71740  0.23420  1.0000 0.1271460388
H   H65       1.0  0.31680  0.01800  0.74700  1.0000 0.1140256931
H   H66       1.0  0.98200  0.68320  0.24700  1.0000 0.1140256931
H   H67       1.0  0.34910  0.17070  0.74740  1.0000 0.1210400273
H   H68       1.0  0.82930  0.65090  0.24740  1.0000 0.1210400273
H   H69       1.0  0.32780  0.27660  0.60220  1.0000 0.1391188704
H   H70       1.0  0.72340  0.67220  0.10220  1.0000 0.1391188704
H   H71       1.0  0.37410  0.30850  0.73550  1.0000 0.1271460388
H   H72       1.0  0.69150  0.62590  0.23550  1.0000 0.1271460388
C   C1        1.0  0.58168  0.30052  0.76138  1.0000 0.6416539957
C   C2        1.0  0.69948  0.41832  0.26138  1.0000 0.6416539957
C   C3        1.0  0.58460  0.29520  0.71218  1.0000 -0.0294182115
C   C4        1.0  0.70480  0.41540  0.21218  1.0000 -0.0294182115
C   C5        1.0  0.59449  0.36231  0.68095  1.0000 -0.101503496
C   C6        1.0  0.63769  0.40551  0.18095  1.0000 -0.101503496
C   C7        1.0  0.58007  0.22573  0.69780  1.0000 -0.0808274323
C   C8        1.0  0.77427  0.41993  0.19780  1.0000 -0.0808274323
C   C9        1.0  0.60190  0.35710  0.63633  1.0000 -0.0928631207
C   C10       1.0  0.64290  0.39810  0.13633  1.0000 -0.0928631207
C   C11       1.0  0.58459  0.22041  0.65294  1.0000 -0.1170310586
C   C12       1.0  0.77959  0.41541  0.15294  1.0000 -0.1170310586
C   C13       1.0  0.59656  0.28684  0.62177  1.0000 0.049556025
C   C14       1.0  0.71316  0.40344  0.12177  1.0000 0.049556025
C   C15       1.0  0.61256  0.29984  0.57371  1.0000 0.049556025
C   C16       1.0  0.70016  0.38744  0.07371  1.0000 0.049556025
C   C17       1.0  0.62861  0.37899  0.55277  1.0000 -0.0808274323
C   C18       1.0  0.62101  0.37139  0.05277  1.0000 -0.0808274323
C   C19       1.0  0.61637  0.24603  0.54907  1.0000 -0.109151761
C   C20       1.0  0.75397  0.38363  0.04907  1.0000 -0.109151761
C   C21       1.0  0.65005  0.40735  0.50859  1.0000 -0.101503496
C   C22       1.0  0.59265  0.34995  0.00859  1.0000 -0.101503496
C   C23       1.0  0.63950  0.27550  0.50499  1.0000 -0.0808274323
C   C24       1.0  0.72450  0.36050  0.00499  1.0000 -0.0808274323
C   C25       1.0  0.65800  0.35600  0.48452  1.0000 -0.0294182115
C   C26       1.0  0.64400  0.34200  0.98452  1.0000 -0.0294182115
C   C27       1.0  0.68721  0.38659  0.43668  1.0000 0.6480373998
C   C28       1.0  0.61341  0.31279  0.93668  1.0000 0.6480373998
C   C29       1.0  0.40900  0.14360  0.84864  1.0000 0.6480373998
C   C30       1.0  0.85640  0.59100  0.34864  1.0000 0.6480373998
C   C31       1.0  0.30742  0.04318  0.84871  1.0000 -0.0294182115
C   C32       1.0  0.95682  0.69258  0.34871  1.0000 -0.0294182115
C   C33       1.0  0.22800  0.03240  0.84730  1.0000 -0.0928631207
C   C34       1.0  0.96760  0.77200  0.34730  1.0000 -0.0928631207
C   C35       1.0  0.29369  0.96151  0.85072  1.0000 -0.109151761
C   C36       1.0  0.03849  0.70631  0.35072  1.0000 -0.109151761
C   C37       1.0  0.13438  0.94242  0.84870  1.0000 -0.1394922092
C   C38       1.0  0.05758  0.86562  0.34870  1.0000 -0.1394922092
C   C39       1.0  0.20014  0.87226  0.85129  1.0000 -0.101503496
C   C40       1.0  0.12774  0.79986  0.35129  1.0000 -0.101503496
C   C41       1.0  0.12044  0.86056  0.85060  1.0000 0.0313453886
C   C42       1.0  0.13944  0.87956  0.35060  1.0000 0.0313453886
C   C43       1.0  0.02585  0.75635  0.85321  1.0000 0.0229173607
C   C44       1.0  0.24365  0.97415  0.35321  1.0000 0.0229173607
C   C45       1.0  0.93371  0.71909  0.85320  1.0000 -0.1283122573
C   C46       1.0  0.28091  0.06629  0.35320  1.0000 -0.1283122573
C   C47       1.0  0.03855  0.69265  0.85461  1.0000 -0.101503496
C   C48       1.0  0.30735  0.96145  0.35461  1.0000 -0.0928631207
C   C49       1.0  0.85632  0.62048  0.85400  1.0000 -0.101503496
C   C50       1.0  0.37952  0.14368  0.35400  1.0000 -0.101503496
C   C51       1.0  0.96114  0.59226  0.85644  1.0000 -0.101503496
C   C52       1.0  0.40774  0.03886  0.35644  1.0000 -0.101503496
C   C53       1.0  0.86846  0.55614  0.85494  1.0000 -0.015936652
C   C54       1.0  0.44386  0.13154  0.35494  1.0000 -0.015936652
C   C55       1.0  0.78017  0.44763  0.85355  1.0000 0.63012908
C   C56       1.0  0.55237  0.21983  0.35355  1.0000 0.63012908
C   C57       1.0  0.79382  0.24198  0.83962  1.0000 0.5667201091
C   C58       1.0  0.75802  0.20618  0.33962  1.0000 0.5667201091
C   C59       1.0  0.88470  0.26470  0.83268  1.0000 0.0025659936
C   C60       1.0  0.73530  0.11530  0.33268  1.0000 0.0025659936
C   C61       1.0  0.93887  0.26753  0.86905  1.0000 -0.0928631207
C   C62       1.0  0.73247  0.06113  0.36905  1.0000 -0.0928631207
C   C63       1.0  0.91506  0.28374  0.79001  1.0000 -0.0808274323
C   C64       1.0  0.71626  0.08494  0.29001  1.0000 -0.0808274323
C   C65       1.0  0.02098  0.28842  0.86109  1.0000 -0.109151761
C   C66       1.0  0.71158  0.97902  0.36109  1.0000 -0.109151761
C   C67       1.0  0.99866  0.30454  0.78207  1.0000 -0.1394922092
C   C68       1.0  0.69546  0.00134  0.28207  1.0000 -0.1394922092
C   C69       1.0  0.05218  0.30662  0.81847  1.0000 0.0429822465
C   C70       1.0  0.69338  0.94782  0.31847  1.0000 0.0429822465
C   C71       1.0  0.14128  0.32452  0.81840  1.0000 0.0429822465
C   C72       1.0  0.67548  0.85872  0.31840  1.0000 0.0429822465
C   C73       1.0  0.17601  0.31959  0.86112  1.0000 -0.101503496
C   C74       1.0  0.68041  0.82399  0.36112  1.0000 -0.101503496
C   C75       1.0  0.19190  0.34510  0.78155  1.0000 -0.1283122573
C   C76       1.0  0.65490  0.80810  0.28155  1.0000 -0.1283122573
C   C77       1.0  0.25599  0.33241  0.86873  1.0000 -0.0808274323
C   C78       1.0  0.66759  0.74401  0.36873  1.0000 -0.0808274323
C   C79       1.0  0.27392  0.35948  0.78891  1.0000 -0.0808274323
C   C80       1.0  0.64052  0.72608  0.28891  1.0000 -0.0808274323
C   C81       1.0  0.30647  0.35253  0.83205  1.0000 -0.0009041357
C   C82       1.0  0.64747  0.69353  0.33205  1.0000 -0.0009041357
C   C83       1.0  0.39465  0.36695  0.83827  1.0000 0.5633990814
C   C84       1.0  0.63305  0.60535  0.33827  1.0000 0.5633990814
C   C85       1.0  0.30052  0.58168  0.73862  1.0000 0.6416539957
C   C86       1.0  0.41832  0.69948  0.23862  1.0000 0.6416539957
C   C87       1.0  0.29520  0.58460  0.78782  1.0000 -0.0294182115
C   C88       1.0  0.41540  0.70480  0.28782  1.0000 -0.0294182115
C   C89       1.0  0.36231  0.59449  0.81905  1.0000 -0.101503496
C   C90       1.0  0.40551  0.63769  0.31905  1.0000 -0.101503496
C   C91       1.0  0.22573  0.58007  0.80220  1.0000 -0.0808274323
C   C92       1.0  0.41993  0.77427  0.30220  1.0000 -0.0808274323
C   C93       1.0  0.35710  0.60190  0.86367  1.0000 -0.0928631207
C   C94       1.0  0.39810  0.64290  0.36367  1.0000 -0.0928631207
C   C95       1.0  0.22041  0.58459  0.84706  1.0000 -0.1170310586
C   C96       1.0  0.41541  0.77959  0.34706  1.0000 -0.1170310586
C   C97       1.0  0.28684  0.59656  0.87823  1.0000 0.049556025
C   C98       1.0  0.40344  0.71316  0.37823  1.0000 0.049556025
C   C99       1.0  0.29984  0.61256  0.92629  1.0000 0.049556025
C   C100      1.0  0.38744  0.70016  0.42629  1.0000 0.049556025
C   C101      1.0  0.37899  0.62861  0.94723  1.0000 -0.0808274323
C   C102      1.0  0.37139  0.62101  0.44723  1.0000 -0.0746312107
C   C103      1.0  0.24603  0.61637  0.95093  1.0000 -0.109151761
C   C104      1.0  0.38363  0.75397  0.45093  1.0000 -0.109151761
C   C105      1.0  0.40735  0.65005  0.99141  1.0000 -0.101503496
C   C106      1.0  0.34995  0.59265  0.49141  1.0000 -0.101503496
C   C107      1.0  0.27550  0.63950  0.99501  1.0000 -0.0808274323
C   C108      1.0  0.36050  0.72450  0.49501  1.0000 -0.0808274323
C   C109      1.0  0.35600  0.65800  0.01548  1.0000 -0.0294182115
C   C110      1.0  0.34200  0.64400  0.51548  1.0000 -0.0294182115
C   C111      1.0  0.38659  0.68721  0.06332  1.0000 0.6480373998
C   C112      1.0  0.31279  0.61341  0.56332  1.0000 0.6480373998
C   C113      1.0  0.14360  0.40900  0.65136  1.0000 0.6480373998
C   C114      1.0  0.59100  0.85640  0.15136  1.0000 0.6480373998
C   C115      1.0  0.04318  0.30742  0.65129  1.0000 -0.0294182115
C   C116      1.0  0.69258  0.95682  0.15129  1.0000 -0.0294182115
C   C117      1.0  0.03240  0.22800  0.65270  1.0000 -0.0928631207
C   C118      1.0  0.77200  0.96760  0.15270  1.0000 -0.0928631207
C   C119      1.0  0.96151  0.29369  0.64928  1.0000 -0.109151761
C   C120      1.0  0.70631  0.03849  0.14928  1.0000 -0.109151761
C   C121      1.0  0.94242  0.13438  0.65130  1.0000 -0.1394922092
C   C122      1.0  0.86562  0.05758  0.15130  1.0000 -0.1283122573
C   C123      1.0  0.87226  0.20014  0.64871  1.0000 -0.101503496
C   C124      1.0  0.79986  0.12774  0.14871  1.0000 -0.101503496
C   C125      1.0  0.86056  0.12044  0.64940  1.0000 0.0313453886
C   C126      1.0  0.87956  0.13944  0.14940  1.0000 0.0313453886
C   C127      1.0  0.75635  0.02585  0.64679  1.0000 0.0229173607
C   C128      1.0  0.97415  0.24365  0.14679  1.0000 0.0229173607
C   C129      1.0  0.71909  0.93371  0.64680  1.0000 -0.1283122573
C   C130      1.0  0.06629  0.28091  0.14680  1.0000 -0.1283122573
C   C131      1.0  0.69265  0.03855  0.64539  1.0000 -0.0928631207
C   C132      1.0  0.96145  0.30735  0.14539  1.0000 -0.0928631207
C   C133      1.0  0.62048  0.85632  0.64600  1.0000 -0.101503496
C   C134      1.0  0.14368  0.37952  0.14600  1.0000 -0.101503496
C   C135      1.0  0.59226  0.96114  0.64356  1.0000 -0.101503496
C   C136      1.0  0.03886  0.40774  0.14356  1.0000 -0.101503496
C   C137      1.0  0.55614  0.86846  0.64506  1.0000 -0.015936652
C   C138      1.0  0.13154  0.44386  0.14506  1.0000 -0.015936652
C   C139      1.0  0.44763  0.78017  0.64645  1.0000 0.63012908
C   C140      1.0  0.21983  0.55237  0.14645  1.0000 0.63012908
C   C141      1.0  0.24198  0.79382  0.66038  1.0000 0.5667201091
C   C142      1.0  0.20618  0.75802  0.16038  1.0000 0.5633990814
C   C143      1.0  0.26470  0.88470  0.66732  1.0000 0.0025659936
C   C144      1.0  0.11530  0.73530  0.16732  1.0000 0.0025659936
C   C145      1.0  0.26753  0.93887  0.63095  1.0000 -0.0928631207
C   C146      1.0  0.06113  0.73247  0.13095  1.0000 -0.0928631207
C   C147      1.0  0.28374  0.91506  0.70999  1.0000 -0.0808274323
C   C148      1.0  0.08494  0.71626  0.20999  1.0000 -0.0808274323
C   C149      1.0  0.28842  0.02098  0.63891  1.0000 -0.109151761
C   C150      1.0  0.97902  0.71158  0.13891  1.0000 -0.109151761
C   C151      1.0  0.30454  0.99866  0.71793  1.0000 -0.1394922092
C   C152      1.0  0.00134  0.69546  0.21793  1.0000 -0.1394922092
C   C153      1.0  0.30662  0.05218  0.68153  1.0000 0.0429822465
C   C154      1.0  0.94782  0.69338  0.18153  1.0000 0.0429822465
C   C155      1.0  0.32452  0.14128  0.68160  1.0000 0.0429822465
C   C156      1.0  0.85872  0.67548  0.18160  1.0000 0.0429822465
C   C157      1.0  0.31959  0.17601  0.63888  1.0000 -0.101503496
C   C158      1.0  0.82399  0.68041  0.13888  1.0000 -0.101503496
C   C159      1.0  0.34510  0.19190  0.71845  1.0000 -0.1283122573
C   C160      1.0  0.80810  0.65490  0.21845  1.0000 -0.1283122573
C   C161      1.0  0.33241  0.25599  0.63127  1.0000 -0.0808274323
C   C162      1.0  0.74401  0.66759  0.13127  1.0000 -0.0808274323
C   C163      1.0  0.35948  0.27392  0.71109  1.0000 -0.0808274323
C   C164      1.0  0.72608  0.64052  0.21109  1.0000 -0.0808274323
C   C165      1.0  0.35253  0.30647  0.66795  1.0000 -0.0009041357
C   C166      1.0  0.69353  0.64747  0.16795  1.0000 -0.0009041357
C   C167      1.0  0.36695  0.39465  0.66173  1.0000 0.5633990814
C   C168      1.0  0.60535  0.63305  0.16173  1.0000 0.5633990814
S   S1        1.0  0.62459  0.43837  0.59157  1.0000 0.9738517612
S   S2        1.0  0.56163  0.37541  0.09157  1.0000 0.9738517612
S   S3        1.0  0.16247  0.75675  0.85191  1.0000 0.9828408767
S   S4        1.0  0.24325  0.83753  0.35191  1.0000 0.9828408767
S   S5        1.0  0.10015  0.29335  0.90200  1.0000 0.98882639
S   S6        1.0  0.70665  0.89985  0.40200  1.0000 0.98882639
S   S7        1.0  0.43837  0.62459  0.90843  1.0000 0.9828408767
S   S8        1.0  0.37541  0.56163  0.40843  1.0000 0.9738517612
S   S9        1.0  0.75675  0.16247  0.64809  1.0000 0.9828408767
S   S10       1.0  0.83753  0.24325  0.14809  1.0000 0.9828408767
S   S11       1.0  0.29335  0.10015  0.59800  1.0000 0.98882639
S   S12       1.0  0.89985  0.70665  0.09800  1.0000 0.98882639
O   O1        1.0  0.56154  0.34546  0.77196  1.0000 -0.6290801804
O   O2        1.0  0.65454  0.43846  0.27196  1.0000 -0.6290801804
O   O3        1.0  0.60122  0.25858  0.78736  1.0000 -0.6796479191
O   O4        1.0  0.74142  0.39878  0.28736  1.0000 -0.6796479191
O   O5        1.0  0.54363  0.43057  0.58114  1.0000 -0.4941680323
O   O6        1.0  0.56943  0.45637  0.08114  1.0000 -0.4941680323
O   O7        1.0  0.71866  0.53414  0.59840  1.0000 -0.4773148488
O   O8        1.0  0.46586  0.28134  0.09840  1.0000 -0.4773148488
O   O9        1.0  0.67927  0.44273  0.41564  1.0000 -0.6543189476
O   O10       1.0  0.55727  0.32073  0.91564  1.0000 -0.6543189476
O   O11       1.0  0.71717  0.35383  0.42175  1.0000 -0.6543189476
O   O12       1.0  0.64617  0.28283  0.92175  1.0000 -0.6543189476
O   O13       1.0  0.41684  0.21436  0.83779  1.0000 -0.6290801804
O   O14       1.0  0.78564  0.58316  0.33779  1.0000 -0.6290801804
O   O15       1.0  0.47758  0.14882  0.85993  1.0000 -0.6796479191
O   O16       1.0  0.85118  0.52242  0.35993  1.0000 -0.6796479191
O   O17       1.0  0.17776  0.74184  0.80939  1.0000 -0.5132899559
O   O18       1.0  0.25816  0.82224  0.30939  1.0000 -0.5132899559
O   O19       1.0  0.19940  0.74020  0.89191  1.0000 -0.5132899559
O   O20       1.0  0.25980  0.80060  0.39191  1.0000 -0.5132899559
O   O21       1.0  0.69812  0.42032  0.84988  1.0000 -0.7358634065
O   O22       1.0  0.57968  0.30188  0.34988  1.0000 -0.7358634065
O   O23       1.0  0.79327  0.39173  0.85572  1.0000 -0.5657451938
O   O24       1.0  0.60827  0.20673  0.35572  1.0000 -0.5657451938
O   O25       1.0  0.76617  0.22123  0.87935  1.0000 -0.6581399034
O   O26       1.0  0.77877  0.23383  0.37935  1.0000 -0.6581399034
O   O27       1.0  0.74852  0.24448  0.80664  1.0000 -0.6078128929
O   O28       1.0  0.75552  0.25148  0.30664  1.0000 -0.6078128929
O   O29       1.0  0.05116  0.19944  0.92360  1.0000 -0.460661527
O   O30       1.0  0.80056  0.94884  0.42360  1.0000 -0.460661527
O   O31       1.0  0.15168  0.37452  0.92988  1.0000 -0.4968634735
O   O32       1.0  0.62548  0.84832  0.42988  1.0000 -0.4968634735
O   O33       1.0  0.41854  0.35126  0.87641  1.0000 -0.6078128929
O   O34       1.0  0.64874  0.58146  0.37641  1.0000 -0.6078128929
O   O35       1.0  0.44248  0.39292  0.80458  1.0000 -0.6433432291
O   O36       1.0  0.60708  0.55752  0.30458  1.0000 -0.6433432291
O   O37       1.0  0.34546  0.56154  0.72804  1.0000 -0.6290801804
O   O38       1.0  0.43846  0.65454  0.22804  1.0000 -0.6290801804
O   O39       1.0  0.25858  0.60122  0.71264  1.0000 -0.6796479191
O   O40       1.0  0.39878  0.74142  0.21264  1.0000 -0.6796479191
O   O41       1.0  0.43057  0.54363  0.91886  1.0000 -0.4941680323
O   O42       1.0  0.45637  0.56943  0.41886  1.0000 -0.4941680323
O   O43       1.0  0.53414  0.71866  0.90160  1.0000 -0.4773148488
O   O44       1.0  0.28134  0.46586  0.40160  1.0000 -0.4773148488
O   O45       1.0  0.44273  0.67927  0.08436  1.0000 -0.6543189476
O   O46       1.0  0.32073  0.55727  0.58436  1.0000 -0.6543189476
O   O47       1.0  0.35383  0.71717  0.07825  1.0000 -0.6543189476
O   O48       1.0  0.28283  0.64617  0.57825  1.0000 -0.6543189476
O   O49       1.0  0.21436  0.41684  0.66221  1.0000 -0.6290801804
O   O50       1.0  0.58316  0.78564  0.16221  1.0000 -0.6290801804
O   O51       1.0  0.14882  0.47758  0.64007  1.0000 -0.6796479191
O   O52       1.0  0.52242  0.85118  0.14007  1.0000 -0.6796479191
O   O53       1.0  0.74184  0.17776  0.69061  1.0000 -0.5132899559
O   O54       1.0  0.82224  0.25816  0.19061  1.0000 -0.5156123231
O   O55       1.0  0.74020  0.19940  0.60809  1.0000 -0.5132899559
O   O56       1.0  0.80060  0.25980  0.10809  1.0000 -0.5132899559
O   O57       1.0  0.42032  0.69812  0.65012  1.0000 -0.7358634065
O   O58       1.0  0.30188  0.57968  0.15012  1.0000 -0.7358634065
O   O59       1.0  0.39173  0.79327  0.64428  1.0000 -0.5657451938
O   O60       1.0  0.20673  0.60827  0.14428  1.0000 -0.5657451938
O   O61       1.0  0.22123  0.76617  0.62065  1.0000 -0.6581399034
O   O62       1.0  0.23383  0.77877  0.12065  1.0000 -0.6581399034
O   O63       1.0  0.24448  0.74852  0.69336  1.0000 -0.6078128929
O   O64       1.0  0.25148  0.75552  0.19336  1.0000 -0.6078128929
O   O65       1.0  0.19944  0.05116  0.57640  1.0000 -0.460661527
O   O66       1.0  0.94884  0.80056  0.07640  1.0000 -0.460661527
O   O67       1.0  0.37452  0.15168  0.57012  1.0000 -0.4968634735
O   O68       1.0  0.84832  0.62548  0.07012  1.0000 -0.4968634735
O   O69       1.0  0.35126  0.41854  0.62359  1.0000 -0.6078128929
O   O70       1.0  0.58146  0.64874  0.12359  1.0000 -0.6078128929
O   O71       1.0  0.39292  0.44248  0.69542  1.0000 -0.6433432291
O   O72       1.0  0.55752  0.60708  0.19542  1.0000 -0.6433432291
