# DDEC6 charges by PACMAN v1.1 (https://github.com/mtap-research/PACMAN-charge/)
data_2009[Cu][dia]3[ASR]3
_chemical_formula_sum              "Cu4 H32 C56 O16"
_cell_length_a       14.3519
_cell_length_b       14.3519
_cell_length_c       14.3519
_cell_angle_alpha    101.717
_cell_angle_beta     101.717
_cell_angle_gamma    126.431

_symmetry_space_group_name_H-M    "P 1"
_symmetry_Int_Tables_number       1

loop_
  _symmetry_equiv_pos_as_xyz
  'x, y, z'

loop_
  _atom_site_type_symbol
  _atom_site_label
  _atom_site_symmetry_multiplicity
  _atom_site_fract_x
  _atom_site_fract_y
  _atom_site_fract_z
  _atom_site_occupancy
  _atom_site_charge
Cu  Cu1       1.0  0.13584  0.65887  0.60021  1.0000 0.8240416677
Cu  Cu2       1.0  0.05866  0.53563  0.39979  1.0000 0.8240416677
Cu  Cu3       1.0  0.78563  0.88584  0.97697  1.0000 0.8240416677
Cu  Cu4       1.0  0.90887  0.80866  0.02303  1.0000 0.8240416677
H   H1        1.0  0.68800  0.39210  0.27650  1.0000 0.1180938725
H   H2        1.0  0.11560  0.41150  0.72350  1.0000 0.1180938725
H   H3        1.0  0.66150  0.43800  0.79590  1.0000 0.1180938725
H   H4        1.0  0.64210  0.86560  0.20410  1.0000 0.1180938725
H   H5        1.0  0.48870  0.32620  0.22850  1.0000 0.1180938725
H   H6        1.0  0.09770  0.26020  0.77150  1.0000 0.1180938725
H   H7        1.0  0.51020  0.23870  0.66250  1.0000 0.1180938725
H   H8        1.0  0.57620  0.84770  0.33750  1.0000 0.1180938725
H   H9        1.0  0.55850  0.45920  0.53290  1.0000 0.1180938725
H   H10       1.0  0.92630  0.02560  0.46710  1.0000 0.1180938725
H   H11       1.0  0.27560  0.30850  0.59930  1.0000 0.1180938725
H   H12       1.0  0.70920  0.67630  0.40070  1.0000 0.1180938725
H   H13       1.0  0.75890  0.52950  0.57760  1.0000 0.1180938725
H   H14       1.0  0.95190  0.18130  0.42240  1.0000 0.1180938725
H   H15       1.0  0.43130  0.50890  0.72940  1.0000 0.1180938725
H   H16       1.0  0.77950  0.70190  0.27060  1.0000 0.1180938725
H   H17       1.0  0.41740  0.48660  0.45620  1.0000 0.1082905562
H   H18       1.0  0.03040  0.96120  0.54380  1.0000 0.1082905562
H   H19       1.0  0.21120  0.16740  0.43080  1.0000 0.1082905562
H   H20       1.0  0.73660  0.78040  0.56920  1.0000 0.1082905562
H   H21       1.0  0.21880  0.42250  0.41570  1.0000 0.1180938725
H   H22       1.0  0.00680  0.80310  0.58430  1.0000 0.1180938725
H   H23       1.0  0.05310  0.96880  0.29630  1.0000 0.1180938725
H   H24       1.0  0.67250  0.75680  0.70370  1.0000 0.1180938725
H   H25       1.0  0.05070  0.23750  0.26740  1.0000 0.1314500602
H   H26       1.0  0.97010  0.78330  0.73260  1.0000 0.1314500602
H   H27       1.0  0.03330  0.80070  0.31320  1.0000 0.1314500602
H   H28       1.0  0.48750  0.72010  0.68680  1.0000 0.1314500602
H   H29       1.0  0.28300  0.18380  0.21860  1.0000 0.1180938725
H   H30       1.0  0.96520  0.06440  0.78140  1.0000 0.1180938725
H   H31       1.0  0.31440  0.03300  0.59920  1.0000 0.1180938725
H   H32       1.0  0.43380  0.71520  0.40080  1.0000 0.1180938725
C   C1        1.0  0.87140  0.50860  0.46160  1.0000 0.5631249578
C   C2        1.0  0.04700  0.40980  0.53840  1.0000 0.5631249578
C   C3        1.0  0.65980  0.62140  0.86280  1.0000 0.5631249578
C   C4        1.0  0.75860  0.79700  0.13720  1.0000 0.5631249578
C   C5        1.0  0.74630  0.46540  0.43250  1.0000 -0.0818186551
C   C6        1.0  0.03290  0.31380  0.56750  1.0000 -0.0818186551
C   C7        1.0  0.56380  0.49630  0.78090  1.0000 -0.0818186551
C   C8        1.0  0.71540  0.78290  0.21910  1.0000 -0.0818186551
C   C9        1.0  0.66230  0.40560  0.32830  1.0000 -0.0818186551
C   C10       1.0  0.07730  0.33400  0.67170  1.0000 -0.0818186551
C   C11       1.0  0.58400  0.41230  0.75670  1.0000 -0.0818186551
C   C12       1.0  0.65560  0.82730  0.24330  1.0000 -0.0818186551
C   C13       1.0  0.54130  0.36540  0.29910  1.0000 -0.1503467057
C   C14       1.0  0.06630  0.24220  0.70090  1.0000 -0.1503467057
C   C15       1.0  0.49220  0.29130  0.67590  1.0000 -0.1503467057
C   C16       1.0  0.61540  0.81630  0.32410  1.0000 -0.1503467057
C   C17       1.0  0.49760  0.38210  0.37230  1.0000 0.0786568684
C   C18       1.0  0.00980  0.12530  0.62770  1.0000 0.0786568684
C   C19       1.0  0.37530  0.24760  0.61550  1.0000 0.0786568684
C   C20       1.0  0.63210  0.75980  0.38450  1.0000 0.0786568684
C   C21       1.0  0.58400  0.44570  0.48090  1.0000 -0.1503467057
C   C22       1.0  0.96480  0.10310  0.51910  1.0000 -0.1503467057
C   C23       1.0  0.35310  0.33400  0.63830  1.0000 -0.1503467057
C   C24       1.0  0.69570  0.71480  0.36170  1.0000 -0.1503467057
C   C25       1.0  0.70390  0.48640  0.50730  1.0000 -0.0818186551
C   C26       1.0  0.97910  0.19660  0.49270  1.0000 -0.0818186551
C   C27       1.0  0.44660  0.45390  0.71750  1.0000 -0.0818186551
C   C28       1.0  0.73640  0.72910  0.28250  1.0000 -0.0818186551
C   C29       1.0  0.37060  0.33850  0.34850  1.0000 0.0574507297
C   C30       1.0  0.99000  0.02210  0.65150  1.0000 0.0574507297
C   C31       1.0  0.27210  0.12060  0.53210  1.0000 0.0574507297
C   C32       1.0  0.58850  0.74000  0.46790  1.0000 0.0574507297
C   C33       1.0  0.34850  0.40930  0.40040  1.0000 -0.1405771008
C   C34       1.0  0.00890  0.94810  0.59960  1.0000 -0.1405771008
C   C35       1.0  0.19810  0.09850  0.43920  1.0000 -0.1405771008
C   C36       1.0  0.65930  0.75890  0.56080  1.0000 -0.1405771008
C   C37       1.0  0.23040  0.37380  0.37540  1.0000 -0.0886617272
C   C38       1.0  0.99840  0.85500  0.62460  1.0000 -0.0886617272
C   C39       1.0  0.10500  0.98040  0.35660  1.0000 -0.0886617272
C   C40       1.0  0.62380  0.74840  0.64340  1.0000 -0.0886617272
C   C41       1.0  0.13130  0.26370  0.28880  1.0000 -0.1098911582
C   C42       1.0  0.97490  0.84250  0.71120  1.0000 -0.1098911582
C   C43       1.0  0.09250  0.88130  0.36760  1.0000 -0.1098911582
C   C44       1.0  0.51370  0.72490  0.63240  1.0000 -0.1098911582
C   C45       1.0  0.15170  0.19300  0.23430  1.0000 -0.0015320695
C   C46       1.0  0.95870  0.91740  0.76570  1.0000 -0.0015320695
C   C47       1.0  0.16740  0.90170  0.45870  1.0000 -0.0015320695
C   C48       1.0  0.44300  0.70870  0.54130  1.0000 -0.0015320695
C   C49       1.0  0.27070  0.23080  0.26030  1.0000 -0.1503467057
C   C50       1.0  0.97050  0.01040  0.73970  1.0000 -0.1503467057
C   C51       1.0  0.26040  0.02070  0.53990  1.0000 -0.1503467057
C   C52       1.0  0.48080  0.72050  0.46010  1.0000 -0.1503467057
C   C53       1.0  0.03720  0.06260  0.14060  1.0000 0.5631249578
C   C54       1.0  0.92200  0.89660  0.85940  1.0000 0.5631249578
C   C55       1.0  0.14660  0.78720  0.47460  1.0000 0.5631249578
C   C56       1.0  0.31260  0.67200  0.52540  1.0000 0.5631249578
O   O1        1.0  0.95650  0.58850  0.54780  1.0000 -0.5007267563
O   O2        1.0  0.04070  0.40870  0.45220  1.0000 -0.5007267563
O   O3        1.0  0.65870  0.70650  0.86800  1.0000 -0.5007267563
O   O4        1.0  0.83850  0.79070  0.13200  1.0000 -0.5007267563
O   O5        1.0  0.89090  0.46440  0.38830  1.0000 -0.5180853574
O   O6        1.0  0.07610  0.50260  0.61170  1.0000 -0.5180853574
O   O7        1.0  0.75260  0.64090  0.92650  1.0000 -0.5180853574
O   O8        1.0  0.71440  0.82610  0.07350  1.0000 -0.5180853574
O   O9        1.0  0.05500  0.99040  0.11300  1.0000 -0.4780060245
O   O10       1.0  0.87740  0.94200  0.88700  1.0000 -0.4780060245
O   O11       1.0  0.19200  0.80500  0.56460  1.0000 -0.4780060245
O   O12       1.0  0.24040  0.62740  0.43540  1.0000 -0.4780060245
O   O13       1.0  0.93990  0.04550  0.10040  1.0000 -0.5007267563
O   O14       1.0  0.94510  0.83950  0.89960  1.0000 -0.5007267563
O   O15       1.0  0.08950  0.68990  0.39440  1.0000 -0.5007267563
O   O16       1.0  0.29550  0.69510  0.60560  1.0000 -0.5007267563
