# DDEC6 charges by PACMAN v1.1 (https://github.com/mtap-research/PACMAN-charge/)
data_2009[Cu][pts]3[ASR]1
_chemical_formula_sum              "Cu2 H16 C12 N12"
_cell_length_a       10.8116
_cell_length_b       10.8116
_cell_length_c       7.2158
_cell_angle_alpha    76.0708
_cell_angle_beta     103.929
_cell_angle_gamma    61.1589

_symmetry_space_group_name_H-M    "P 1"
_symmetry_Int_Tables_number       1

loop_
  _symmetry_equiv_pos_as_xyz
  'x, y, z'

loop_
  _atom_site_type_symbol
  _atom_site_label
  _atom_site_symmetry_multiplicity
  _atom_site_fract_x
  _atom_site_fract_y
  _atom_site_fract_z
  _atom_site_occupancy
  _atom_site_charge
Cu  Cu1       1.0  0.02169  0.02169  0.25000  1.0000 0.1419386894
Cu  Cu2       1.0  0.97831  0.97831  0.75000  1.0000 0.1419386894
H   H1        1.0  0.33530  0.99930  0.30400  1.0000 0.1002060882
H   H2        1.0  0.99930  0.33530  0.19600  1.0000 0.1002060882
H   H3        1.0  0.66470  0.00070  0.69600  1.0000 0.1002060882
H   H4        1.0  0.00070  0.66470  0.80400  1.0000 0.1002060882
H   H5        1.0  0.32740  0.87280  0.83740  1.0000 0.1198294789
H   H6        1.0  0.87280  0.32740  0.66260  1.0000 0.1198294789
H   H7        1.0  0.67260  0.12720  0.16260  1.0000 0.1198294789
H   H8        1.0  0.12720  0.67260  0.33740  1.0000 0.1198294789
H   H9        1.0  0.59360  0.83620  0.06630  1.0000 0.1002060882
H   H10       1.0  0.83620  0.59360  0.43370  1.0000 0.1002060882
H   H11       1.0  0.40640  0.16380  0.93370  1.0000 0.1002060882
H   H12       1.0  0.16380  0.40640  0.56630  1.0000 0.1002060882
H   H13       1.0  0.57680  0.91820  0.22270  1.0000 0.1002060882
H   H14       1.0  0.91820  0.57680  0.27730  1.0000 0.1002060882
H   H15       1.0  0.42320  0.08180  0.77730  1.0000 0.1002060882
H   H16       1.0  0.08180  0.42320  0.72270  1.0000 0.1002060882
C   C1        1.0  0.30528  0.97328  0.19430  1.0000 0.0100513317
C   C2        1.0  0.97328  0.30528  0.30570  1.0000 0.0100513317
C   C3        1.0  0.69472  0.02672  0.80570  1.0000 0.0100513317
C   C4        1.0  0.02672  0.69472  0.69430  1.0000 0.0100513317
C   C5        1.0  0.30056  0.90456  0.94020  1.0000 0.0269397453
C   C6        1.0  0.90456  0.30056  0.55980  1.0000 0.0269397453
C   C7        1.0  0.69944  0.09544  0.05980  1.0000 0.0269397453
C   C8        1.0  0.09544  0.69944  0.44020  1.0000 0.0269397453
C   C9        1.0  0.52259  0.92719  0.08490  1.0000 -0.1751153141
C   C10       1.0  0.92719  0.52259  0.41510  1.0000 -0.1751153141
C   C11       1.0  0.47741  0.07281  0.91510  1.0000 -0.1751153141
C   C12       1.0  0.07281  0.47741  0.58490  1.0000 -0.1751153141
N   N1        1.0  0.18144  0.97316  0.13440  1.0000 -0.1882288687
N   N2        1.0  0.97316  0.18144  0.36560  1.0000 -0.1882288687
N   N3        1.0  0.81856  0.02684  0.86560  1.0000 -0.1882288687
N   N4        1.0  0.02684  0.81856  0.63440  1.0000 -0.1882288687
N   N5        1.0  0.17827  0.92899  0.96980  1.0000 -0.1751153141
N   N6        1.0  0.92899  0.17827  0.53020  1.0000 -0.1751153141
N   N7        1.0  0.82173  0.07101  0.03020  1.0000 -0.1751153141
N   N8        1.0  0.07101  0.82173  0.46980  1.0000 -0.1751153141
N   N9        1.0  0.38388  0.93088  0.07680  1.0000 0.0100513317
N   N10       1.0  0.93088  0.38388  0.42320  1.0000 0.0100513317
N   N11       1.0  0.61612  0.06912  0.92320  1.0000 0.0100513317
N   N12       1.0  0.06912  0.61612  0.57680  1.0000 0.0100513317
