# DDEC6 charges by PACMAN v1.1 (https://github.com/mtap-research/PACMAN-charge/)
data_2009[EuAg][nan]3[ASR]1
_chemical_formula_sum              "Eu4 Ag4 H32 C56 N8 O32"
_cell_length_a       9.1581
_cell_length_b       22.3358
_cell_length_c       9.7109
_cell_angle_alpha    90
_cell_angle_beta     117.485
_cell_angle_gamma    90

_symmetry_space_group_name_H-M    "P 1"
_symmetry_Int_Tables_number       1

loop_
  _symmetry_equiv_pos_as_xyz
  'x, y, z'

loop_
  _atom_site_type_symbol
  _atom_site_label
  _atom_site_symmetry_multiplicity
  _atom_site_fract_x
  _atom_site_fract_y
  _atom_site_fract_z
  _atom_site_occupancy
  _atom_site_charge
Eu  Eu1       1.0  0.61790  0.00862  0.35660  1.0000 2.0708475969
Eu  Eu2       1.0  0.88210  0.50862  0.64340  1.0000 2.0708475969
Eu  Eu3       1.0  0.38210  0.99138  0.64340  1.0000 2.0708475969
Eu  Eu4       1.0  0.11790  0.49138  0.35660  1.0000 2.0708475969
Ag  Ag1       1.0  0.01655  0.85216  0.67970  1.0000 0.3355057699
Ag  Ag2       1.0  0.48345  0.35216  0.32030  1.0000 0.3355057699
Ag  Ag3       1.0  0.98345  0.14784  0.32030  1.0000 0.3355057699
Ag  Ag4       1.0  0.51655  0.64784  0.67970  1.0000 0.3342742584
H   H1        1.0  0.94040  0.92750  0.22180  1.0000 0.1312359161
H   H2        1.0  0.55960  0.42750  0.77820  1.0000 0.1312359161
H   H3        1.0  0.05960  0.07250  0.77820  1.0000 0.1312359161
H   H4        1.0  0.44040  0.57250  0.22180  1.0000 0.1312359161
H   H5        1.0  0.74330  0.86840  0.03090  1.0000 0.1442270614
H   H6        1.0  0.75670  0.36840  0.96910  1.0000 0.1442270614
H   H7        1.0  0.25670  0.13160  0.96910  1.0000 0.1442270614
H   H8        1.0  0.24330  0.63160  0.03090  1.0000 0.1442270614
H   H9        1.0  0.77820  0.84070  0.82160  1.0000 0.0983320716
H   H10       1.0  0.72180  0.34070  0.17840  1.0000 0.0983320716
H   H11       1.0  0.22180  0.15930  0.17840  1.0000 0.0983320716
H   H12       1.0  0.27820  0.65930  0.82160  1.0000 0.0983320716
H   H13       1.0  0.18230  0.93420  0.97120  1.0000 0.1209524534
H   H14       1.0  0.31770  0.43420  0.02880  1.0000 0.1209524534
H   H15       1.0  0.81770  0.06580  0.02880  1.0000 0.1209524534
H   H16       1.0  0.68230  0.56580  0.97120  1.0000 0.1209524534
H   H17       1.0  0.98890  0.71760  0.63950  1.0000 0.1079923399
H   H18       1.0  0.51110  0.21760  0.36050  1.0000 0.1079923399
H   H19       1.0  0.01110  0.28240  0.36050  1.0000 0.1079923399
H   H20       1.0  0.48890  0.78240  0.63950  1.0000 0.1079923399
H   H21       1.0  0.10090  0.65910  0.31110  1.0000 0.1494625136
H   H22       1.0  0.39910  0.15910  0.68890  1.0000 0.1494625136
H   H23       1.0  0.89910  0.34090  0.68890  1.0000 0.1494625136
H   H24       1.0  0.60090  0.84090  0.31110  1.0000 0.1494625136
H   H25       1.0  0.13750  0.75810  0.26170  1.0000 0.1312359161
H   H26       1.0  0.36250  0.25810  0.73830  1.0000 0.1312359161
H   H27       1.0  0.86250  0.24190  0.73830  1.0000 0.1312359161
H   H28       1.0  0.63750  0.74190  0.26170  1.0000 0.1312359161
H   H29       1.0  0.11040  0.83270  0.40860  1.0000 0.1209524534
H   H30       1.0  0.38960  0.33270  0.59140  1.0000 0.1209524534
H   H31       1.0  0.88960  0.16730  0.59140  1.0000 0.1209524534
H   H32       1.0  0.61040  0.66730  0.40860  1.0000 0.1209524534
C   C1        1.0  0.21960  0.97289  0.24290  1.0000 0.6324410997
C   C2        1.0  0.28040  0.47289  0.75710  1.0000 0.6324410997
C   C3        1.0  0.78040  0.02711  0.75710  1.0000 0.6324410997
C   C4        1.0  0.71960  0.52711  0.24290  1.0000 0.6324410997
C   C5        1.0  0.08480  0.93639  0.11720  1.0000 -0.0599264889
C   C6        1.0  0.41520  0.43639  0.88280  1.0000 -0.0599264889
C   C7        1.0  0.91520  0.06361  0.88280  1.0000 -0.0599264889
C   C8        1.0  0.58480  0.56361  0.11720  1.0000 -0.0599264889
C   C9        1.0  0.95140  0.91678  0.13450  1.0000 -0.0599264889
C   C10       1.0  0.54860  0.41678  0.86550  1.0000 -0.0599264889
C   C11       1.0  0.04860  0.08322  0.86550  1.0000 -0.0599264889
C   C12       1.0  0.45140  0.58322  0.13450  1.0000 -0.0599264889
C   C13       1.0  0.83500  0.88140  0.02190  1.0000 -0.1146264114
C   C14       1.0  0.66500  0.38140  0.97810  1.0000 -0.1146264114
C   C15       1.0  0.16500  0.11860  0.97810  1.0000 -0.1146264114
C   C16       1.0  0.33500  0.61860  0.02190  1.0000 -0.1146264114
C   C17       1.0  0.85620  0.86550  0.89620  1.0000 0.0647458788
C   C18       1.0  0.64380  0.36550  0.10380  1.0000 0.0647458788
C   C19       1.0  0.14380  0.13450  0.10380  1.0000 0.0647458788
C   C20       1.0  0.35620  0.63450  0.89620  1.0000 0.0647458788
C   C21       1.0  0.09470  0.91989  0.98500  1.0000 0.0539906062
C   C22       1.0  0.40530  0.41989  0.01500  1.0000 0.0539906062
C   C23       1.0  0.90530  0.08011  0.01500  1.0000 0.0539906062
C   C24       1.0  0.59470  0.58011  0.98500  1.0000 0.0539906062
C   C25       1.0  0.02090  0.72563  0.56340  1.0000 0.0286923647
C   C26       1.0  0.47910  0.22563  0.43660  1.0000 0.0286923647
C   C27       1.0  0.97910  0.27437  0.43660  1.0000 0.0286923647
C   C28       1.0  0.52090  0.77437  0.56340  1.0000 0.0286923647
C   C29       1.0  0.03990  0.67793  0.48210  1.0000 -0.0743350275
C   C30       1.0  0.46010  0.17793  0.51790  1.0000 -0.0743350275
C   C31       1.0  0.96010  0.32207  0.51790  1.0000 -0.0743350275
C   C32       1.0  0.53990  0.82207  0.48210  1.0000 -0.0743350275
C   C33       1.0  0.08600  0.69000  0.36770  1.0000 -0.0451989621
C   C34       1.0  0.41400  0.19000  0.63230  1.0000 -0.0451989621
C   C35       1.0  0.91400  0.31000  0.63230  1.0000 -0.0451989621
C   C36       1.0  0.58600  0.81000  0.36770  1.0000 -0.0451989621
C   C37       1.0  0.10930  0.74880  0.33980  1.0000 -0.1457514502
C   C38       1.0  0.39070  0.24880  0.66020  1.0000 -0.1449572929
C   C39       1.0  0.89070  0.25120  0.66020  1.0000 -0.1449572929
C   C40       1.0  0.60930  0.75120  0.33980  1.0000 -0.1449572929
C   C41       1.0  0.09100  0.79340  0.42720  1.0000 0.0730754919
C   C42       1.0  0.40900  0.29340  0.57280  1.0000 0.0730754919
C   C43       1.0  0.90900  0.20660  0.57280  1.0000 0.0730754919
C   C44       1.0  0.59100  0.70660  0.42720  1.0000 0.0730754919
C   C45       1.0  0.00780  0.61627  0.52120  1.0000 0.6097719334
C   C46       1.0  0.49220  0.11627  0.47880  1.0000 0.6097719334
C   C47       1.0  0.99220  0.38373  0.47880  1.0000 0.6097719334
C   C48       1.0  0.50780  0.88373  0.52120  1.0000 0.6097719334
C   C49       1.0  0.50810  0.96564  0.00830  1.0000 0.4801246151
C   C50       1.0  0.99190  0.46564  0.99170  1.0000 0.4801246151
C   C51       1.0  0.49190  0.03436  0.99170  1.0000 0.4801246151
C   C52       1.0  0.00810  0.53436  0.00830  1.0000 0.4801246151
C   C53       1.0  0.99680  0.96700  0.51990  1.0000 0.4801246151
C   C54       1.0  0.50320  0.46700  0.48010  1.0000 0.4801246151
C   C55       1.0  0.00320  0.03300  0.48010  1.0000 0.4801246151
C   C56       1.0  0.49680  0.53300  0.51990  1.0000 0.4801246151
N   N1        1.0  0.98380  0.88403  0.87490  1.0000 -0.1828928199
N   N2        1.0  0.51620  0.38403  0.12510  1.0000 -0.1828928199
N   N3        1.0  0.01620  0.11597  0.12510  1.0000 -0.1828928199
N   N4        1.0  0.48380  0.61597  0.87490  1.0000 -0.1828928199
N   N5        1.0  0.04620  0.78277  0.53840  1.0000 -0.1828928199
N   N6        1.0  0.45380  0.28277  0.46160  1.0000 -0.1828928199
N   N7        1.0  0.95380  0.21723  0.46160  1.0000 -0.1828928199
N   N8        1.0  0.54620  0.71723  0.53840  1.0000 -0.1828928199
O   O1        1.0  0.32390  0.99723  0.21010  1.0000 -0.6585814395
O   O2        1.0  0.17610  0.49723  0.78990  1.0000 -0.6585814395
O   O3        1.0  0.67610  0.00277  0.78990  1.0000 -0.6585814395
O   O4        1.0  0.82390  0.50277  0.21010  1.0000 -0.6585814395
O   O5        1.0  0.21760  0.97428  0.37010  1.0000 -0.651201997
O   O6        1.0  0.28240  0.47428  0.62990  1.0000 -0.651201997
O   O7        1.0  0.78240  0.02572  0.62990  1.0000 -0.651201997
O   O8        1.0  0.71760  0.52572  0.37010  1.0000 -0.651201997
O   O9        1.0  0.94530  0.61078  0.61090  1.0000 -0.6100333669
O   O10       1.0  0.55470  0.11078  0.38910  1.0000 -0.6100333669
O   O11       1.0  0.05470  0.38922  0.38910  1.0000 -0.6100333669
O   O12       1.0  0.44530  0.88922  0.61090  1.0000 -0.6100333669
O   O13       1.0  0.04580  0.57249  0.46200  1.0000 -0.7044973113
O   O14       1.0  0.45420  0.07249  0.53800  1.0000 -0.7050538399
O   O15       1.0  0.95420  0.42751  0.53800  1.0000 -0.7044973113
O   O16       1.0  0.54580  0.92751  0.46200  1.0000 -0.7044973113
O   O17       1.0  0.13170  0.94393  0.61630  1.0000 -0.5820069202
O   O18       1.0  0.36830  0.44393  0.38370  1.0000 -0.5820069202
O   O19       1.0  0.86830  0.05607  0.38370  1.0000 -0.5820069202
O   O20       1.0  0.63170  0.55607  0.61630  1.0000 -0.5820069202
O   O21       1.0  0.86170  0.94084  0.45840  1.0000 -0.565608237
O   O22       1.0  0.63830  0.44084  0.54160  1.0000 -0.565608237
O   O23       1.0  0.13830  0.05916  0.54160  1.0000 -0.565608237
O   O24       1.0  0.36170  0.55916  0.45840  1.0000 -0.565608237
O   O25       1.0  0.57850  0.94433  0.14240  1.0000 -0.6043334492
O   O26       1.0  0.92150  0.44433  0.85760  1.0000 -0.6043334492
O   O27       1.0  0.42150  0.05567  0.85760  1.0000 -0.6043334492
O   O28       1.0  0.07850  0.55567  0.14240  1.0000 -0.6043334492
O   O29       1.0  0.45010  0.93618  0.88370  1.0000 -0.5920461156
O   O30       1.0  0.04990  0.43618  0.11630  1.0000 -0.5920461156
O   O31       1.0  0.54990  0.06382  0.11630  1.0000 -0.5920461156
O   O32       1.0  0.95010  0.56382  0.88370  1.0000 -0.5920461156
