# DDEC6 charges by PACMAN v1.1 (https://github.com/mtap-research/PACMAN-charge/)
data_2010[Co][nan]3[ASR]11
_chemical_formula_sum              "Co16 H64 C128 O64"
_cell_length_a       22.3034
_cell_length_b       22.3034
_cell_length_c       22.3034
_cell_angle_alpha    93.6191
_cell_angle_beta     93.6191
_cell_angle_gamma    150.898

_symmetry_space_group_name_H-M    "P 1"
_symmetry_Int_Tables_number       1

loop_
  _symmetry_equiv_pos_as_xyz
  'x, y, z'

loop_
  _atom_site_type_symbol
  _atom_site_label
  _atom_site_symmetry_multiplicity
  _atom_site_fract_x
  _atom_site_fract_y
  _atom_site_fract_z
  _atom_site_occupancy
  _atom_site_charge
Co  Co1       1.0  0.18548  0.56720  0.84654  1.0000 0.9507199855
Co  Co2       1.0  0.72066  0.33894  0.15346  1.0000 0.9507199855
Co  Co3       1.0  0.58894  0.93548  0.11828  1.0000 0.9507199855
Co  Co4       1.0  0.81720  0.47066  0.88172  1.0000 0.9507199855
Co  Co5       1.0  0.06452  0.18280  0.65346  1.0000 0.9507199855
Co  Co6       1.0  0.52934  0.41106  0.34654  1.0000 0.9507199855
Co  Co7       1.0  0.66106  0.81452  0.38172  1.0000 0.9507199855
Co  Co8       1.0  0.43280  0.27934  0.61828  1.0000 0.9507199855
Co  Co9       1.0  0.97106  0.49110  0.85138  1.0000 1.0375037224
Co  Co10      1.0  0.63972  0.11968  0.14862  1.0000 1.0375037224
Co  Co11      1.0  0.36968  0.72106  0.97996  1.0000 1.0375037224
Co  Co12      1.0  0.74110  0.38972  0.02004  1.0000 1.0375037224
Co  Co13      1.0  0.27894  0.25890  0.64862  1.0000 1.0375037224
Co  Co14      1.0  0.61028  0.63032  0.35138  1.0000 1.0375037224
Co  Co15      1.0  0.88032  0.02894  0.52004  1.0000 1.0375037224
Co  Co16      1.0  0.50890  0.36028  0.47996  1.0000 1.0375037224
H   H1        1.0  0.68180  0.13670  0.70270  1.0000 0.1307917573
H   H2        1.0  0.43400  0.97910  0.29730  1.0000 0.1307917573
H   H3        1.0  0.22910  0.43180  0.04510  1.0000 0.1307917573
H   H4        1.0  0.38670  0.18400  0.95490  1.0000 0.1307917573
H   H5        1.0  0.56820  0.61330  0.79730  1.0000 0.1307917573
H   H6        1.0  0.81600  0.77090  0.20270  1.0000 0.1307917573
H   H7        1.0  0.02090  0.31820  0.45490  1.0000 0.1307917573
H   H8        1.0  0.86330  0.56600  0.54510  1.0000 0.1307917573
H   H9        1.0  0.56540  0.97340  0.62160  1.0000 0.1129766142
H   H10       1.0  0.35180  0.94380  0.37840  1.0000 0.1129766142
H   H11       1.0  0.19380  0.31540  0.09200  1.0000 0.1129766142
H   H12       1.0  0.22340  0.10180  0.90800  1.0000 0.1129766142
H   H13       1.0  0.68460  0.77660  0.87840  1.0000 0.1129766142
H   H14       1.0  0.89820  0.80620  0.12160  1.0000 0.1129766142
H   H15       1.0  0.05620  0.43460  0.40800  1.0000 0.1129766142
H   H16       1.0  0.02660  0.64820  0.59200  1.0000 0.1129766142
H   H17       1.0  0.65530  0.96810  0.58480  1.0000 0.1307917573
H   H18       1.0  0.38330  0.07050  0.41520  1.0000 0.1307917573
H   H19       1.0  0.32050  0.40530  0.18720  1.0000 0.1307917573
H   H20       1.0  0.21810  0.13330  0.81280  1.0000 0.1307917573
H   H21       1.0  0.59470  0.78190  0.91520  1.0000 0.1307917573
H   H22       1.0  0.86670  0.67950  0.08480  1.0000 0.1307917573
H   H23       1.0  0.92950  0.34470  0.31280  1.0000 0.1307917573
H   H24       1.0  0.03190  0.61670  0.68720  1.0000 0.1307917573
H   H25       1.0  0.97300  0.27780  0.71860  1.0000 0.1413210923
H   H26       1.0  0.55920  0.25440  0.28140  1.0000 0.1413210923
H   H27       1.0  0.50440  0.72300  0.19520  1.0000 0.1413210923
H   H28       1.0  0.52780  0.30920  0.80480  1.0000 0.1413210923
H   H29       1.0  0.27700  0.47220  0.78140  1.0000 0.1413210923
H   H30       1.0  0.69080  0.49560  0.21860  1.0000 0.1413210923
H   H31       1.0  0.74560  0.02700  0.30480  1.0000 0.1413210923
H   H32       1.0  0.72220  0.44080  0.69520  1.0000 0.1413210923
H   H33       1.0  0.12790  0.45060  0.03530  1.0000 0.1205355635
H   H34       1.0  0.41530  0.09260  0.96470  1.0000 0.1205355635
H   H35       1.0  0.34260  0.87790  0.17730  1.0000 0.1205355635
H   H36       1.0  0.70060  0.16530  0.82270  1.0000 0.1205355635
H   H37       1.0  0.12210  0.29940  0.46470  1.0000 0.1205355635
H   H38       1.0  0.83470  0.65740  0.53530  1.0000 0.1205355635
H   H39       1.0  0.90740  0.87210  0.32270  1.0000 0.1205355635
H   H40       1.0  0.54940  0.58470  0.67730  1.0000 0.1205355635
H   H41       1.0  0.06780  0.38870  0.12710  1.0000 0.1129766142
H   H42       1.0  0.26160  0.94070  0.87290  1.0000 0.1129766142
H   H43       1.0  0.19070  0.81780  0.17910  1.0000 0.1129766142
H   H44       1.0  0.63870  0.01160  0.82090  1.0000 0.1129766142
H   H45       1.0  0.18220  0.36130  0.37290  1.0000 0.1129766142
H   H46       1.0  0.98840  0.80930  0.62710  1.0000 0.1129766142
H   H47       1.0  0.05930  0.93220  0.32090  1.0000 0.1129766142
H   H48       1.0  0.61130  0.73840  0.67910  1.0000 0.1129766142
H   H49       1.0  0.94830  0.35790  0.16320  1.0000 0.1307917573
H   H50       1.0  0.19470  0.78510  0.83680  1.0000 0.1307917573
H   H51       1.0  0.03510  0.69830  0.09040  1.0000 0.1307917573
H   H52       1.0  0.60790  0.94470  0.90960  1.0000 0.1307917573
H   H53       1.0  0.30170  0.39210  0.33680  1.0000 0.1307917573
H   H54       1.0  0.05530  0.96490  0.66320  1.0000 0.1307917573
H   H55       1.0  0.21490  0.05170  0.40960  1.0000 0.1307917573
H   H56       1.0  0.64210  0.80530  0.59040  1.0000 0.1307917573
H   H57       1.0  0.96020  0.46430  0.01870  1.0000 0.1205355635
H   H58       1.0  0.44560  0.94150  0.98130  1.0000 0.1205355635
H   H59       1.0  0.19150  0.71020  0.99590  1.0000 0.1205355635
H   H60       1.0  0.71430  0.19560  0.00410  1.0000 0.1205355635
H   H61       1.0  0.28980  0.28570  0.48130  1.0000 0.1205355635
H   H62       1.0  0.80440  0.80850  0.51870  1.0000 0.1205355635
H   H63       1.0  0.05850  0.03980  0.50410  1.0000 0.1205355635
H   H64       1.0  0.53570  0.55440  0.49590  1.0000 0.1205355635
C   C1        1.0  0.91893  0.33114  0.77227  1.0000 0.5841375074
C   C2        1.0  0.55887  0.14666  0.22773  1.0000 0.5841375074
C   C3        1.0  0.39666  0.66893  0.08779  1.0000 0.5841375074
C   C4        1.0  0.58114  0.30887  0.91221  1.0000 0.5841375074
C   C5        1.0  0.33107  0.41886  0.72773  1.0000 0.5841375074
C   C6        1.0  0.69113  0.60334  0.27227  1.0000 0.5841375074
C   C7        1.0  0.85334  0.08107  0.41221  1.0000 0.5841375074
C   C8        1.0  0.66886  0.44113  0.58779  1.0000 0.5841375074
C   C9        1.0  0.83973  0.22417  0.71870  1.0000 -0.0320491457
C   C10       1.0  0.50547  0.12103  0.28130  1.0000 -0.0320491457
C   C11       1.0  0.37103  0.58973  0.11556  1.0000 -0.0320491457
C   C12       1.0  0.47417  0.25547  0.88444  1.0000 -0.0320491457
C   C13       1.0  0.41027  0.52583  0.78130  1.0000 -0.0320491457
C   C14       1.0  0.74453  0.62897  0.21870  1.0000 -0.0320491457
C   C15       1.0  0.87897  0.16027  0.38444  1.0000 -0.0320491457
C   C16       1.0  0.77583  0.49453  0.61556  1.0000 -0.0320491457
C   C17       1.0  0.71734  0.13290  0.68944  1.0000 -0.099433797
C   C18       1.0  0.44346  0.02790  0.31056  1.0000 -0.099433797
C   C19       1.0  0.27790  0.46734  0.08444  1.0000 -0.099433797
C   C20       1.0  0.38290  0.19346  0.91556  1.0000 -0.099433797
C   C21       1.0  0.53266  0.61710  0.81056  1.0000 -0.099433797
C   C22       1.0  0.80654  0.72210  0.18944  1.0000 -0.099433797
C   C23       1.0  0.97210  0.28266  0.41556  1.0000 -0.099433797
C   C24       1.0  0.86710  0.55654  0.58444  1.0000 -0.099433797
C   C25       1.0  0.64860  0.03640  0.64040  1.0000 -0.099433797
C   C26       1.0  0.39600  0.00820  0.35960  1.0000 -0.099433797
C   C27       1.0  0.25820  0.39860  0.11220  1.0000 -0.099433797
C   C28       1.0  0.28640  0.14600  0.88780  1.0000 -0.099433797
C   C29       1.0  0.60140  0.71360  0.85960  1.0000 -0.099433797
C   C30       1.0  0.85400  0.74180  0.14040  1.0000 -0.1055545254
C   C31       1.0  0.99180  0.35140  0.38780  1.0000 -0.1055545254
C   C32       1.0  0.96360  0.60400  0.61220  1.0000 -0.099433797
C   C33       1.0  0.70163  0.03202  0.61885  1.0000 -0.099433797
C   C34       1.0  0.41317  0.08278  0.38115  1.0000 -0.099433797
C   C35       1.0  0.33278  0.45163  0.16961  1.0000 -0.099433797
C   C36       1.0  0.28202  0.16317  0.83039  1.0000 -0.099433797
C   C37       1.0  0.54837  0.71798  0.88115  1.0000 -0.099433797
C   C38       1.0  0.83683  0.66722  0.11885  1.0000 -0.099433797
C   C39       1.0  0.91722  0.29837  0.33039  1.0000 -0.099433797
C   C40       1.0  0.96798  0.58683  0.66961  1.0000 -0.099433797
C   C41       1.0  0.82368  0.12292  0.64800  1.0000 -0.0320491457
C   C42       1.0  0.47492  0.17568  0.35200  1.0000 -0.0320491457
C   C43       1.0  0.42568  0.57368  0.20076  1.0000 -0.0320491457
C   C44       1.0  0.37292  0.22492  0.79924  1.0000 -0.0320491457
C   C45       1.0  0.42632  0.62708  0.85200  1.0000 -0.0320491457
C   C46       1.0  0.77508  0.57432  0.14800  1.0000 -0.0320491457
C   C47       1.0  0.82432  0.17632  0.29924  1.0000 -0.0320491457
C   C48       1.0  0.87708  0.52508  0.70076  1.0000 -0.0320491457
C   C49       1.0  0.89157  0.21768  0.69825  1.0000 -0.099433797
C   C50       1.0  0.51943  0.19332  0.30175  1.0000 -0.099433797
C   C51       1.0  0.44332  0.64157  0.17389  1.0000 -0.099433797
C   C52       1.0  0.46768  0.26943  0.82611  1.0000 -0.099433797
C   C53       1.0  0.35843  0.53232  0.80175  1.0000 -0.099433797
C   C54       1.0  0.73057  0.55668  0.19825  1.0000 -0.099433797
C   C55       1.0  0.80668  0.10843  0.32611  1.0000 -0.099433797
C   C56       1.0  0.78232  0.48057  0.67389  1.0000 -0.099433797
C   C57       1.0  0.88437  0.12102  0.62579  1.0000 0.5890090497
C   C58       1.0  0.49523  0.25858  0.37421  1.0000 0.5890090497
C   C59       1.0  0.50858  0.63437  0.26335  1.0000 0.5890090497
C   C60       1.0  0.37102  0.24523  0.73665  1.0000 0.5890090497
C   C61       1.0  0.36563  0.62898  0.87421  1.0000 0.5890090497
C   C62       1.0  0.75477  0.49142  0.12579  1.0000 0.5890090497
C   C63       1.0  0.74142  0.11563  0.23665  1.0000 0.5890090497
C   C64       1.0  0.87898  0.50477  0.76335  1.0000 0.5890090497
C   C65       1.0  0.07570  0.49310  0.95520  1.0000 0.6152661102
C   C66       1.0  0.53790  0.12050  0.04480  1.0000 0.6152661102
C   C67       1.0  0.37050  0.82570  0.08260  1.0000 0.6152661102
C   C68       1.0  0.74310  0.28790  0.91740  1.0000 0.6152661102
C   C69       1.0  0.17430  0.25690  0.54480  1.0000 0.6152661102
C   C70       1.0  0.71210  0.62950  0.45520  1.0000 0.6152661102
C   C71       1.0  0.87950  0.92430  0.41740  1.0000 0.6152661102
C   C72       1.0  0.50690  0.46210  0.58260  1.0000 0.6152661102
C   C73       1.0  0.04793  0.46152  0.01685  1.0000 -0.0206911593
C   C74       1.0  0.44467  0.03108  0.98315  1.0000 -0.0206911593
C   C75       1.0  0.28108  0.79793  0.08641  1.0000 -0.0206911593
C   C76       1.0  0.71152  0.19467  0.91359  1.0000 -0.0206911593
C   C77       1.0  0.20207  0.28848  0.48315  1.0000 -0.0206911593
C   C78       1.0  0.80533  0.71892  0.51685  1.0000 -0.0206911593
C   C79       1.0  0.96892  0.95207  0.41359  1.0000 -0.0206911593
C   C80       1.0  0.53848  0.55533  0.58641  1.0000 -0.0206911593
C   C81       1.0  0.08135  0.43996  0.04991  1.0000 -0.099433797
C   C82       1.0  0.39005  0.03144  0.95009  1.0000 -0.099433797
C   C83       1.0  0.28144  0.83135  0.14139  1.0000 -0.099433797
C   C84       1.0  0.68996  0.14005  0.85861  1.0000 -0.099433797
C   C85       1.0  0.16865  0.31004  0.45009  1.0000 -0.099433797
C   C86       1.0  0.85995  0.71856  0.54991  1.0000 -0.099433797
C   C87       1.0  0.96856  0.91865  0.35861  1.0000 -0.099433797
C   C88       1.0  0.56004  0.60995  0.64139  1.0000 -0.099433797
C   C89       1.0  0.04481  0.40245  0.10486  1.0000 -0.0916307947
C   C90       1.0  0.29759  0.93995  0.89514  1.0000 -0.0916307947
C   C91       1.0  0.18995  0.79481  0.14236  1.0000 -0.0916307947
C   C92       1.0  0.65245  0.04759  0.85764  1.0000 -0.0916307947
C   C93       1.0  0.20519  0.34755  0.39514  1.0000 -0.0916307947
C   C94       1.0  0.95241  0.81005  0.60486  1.0000 -0.0916307947
C   C95       1.0  0.06005  0.95519  0.35764  1.0000 -0.0916307947
C   C96       1.0  0.59755  0.70241  0.64236  1.0000 -0.0916307947
C   C97       1.0  0.97447  0.38540  0.12707  1.0000 -0.0833801596
C   C98       1.0  0.25833  0.84740  0.87293  1.0000 -0.0833801596
C   C99       1.0  0.09740  0.72447  0.08907  1.0000 -0.0833801596
C   C100      1.0  0.63540  0.00833  0.91093  1.0000 -0.0833801596
C   C101      1.0  0.27553  0.36460  0.37293  1.0000 -0.0833801596
C   C102      1.0  0.99167  0.90260  0.62707  1.0000 -0.0833801596
C   C103      1.0  0.15260  0.02553  0.41093  1.0000 -0.0833801596
C   C104      1.0  0.61460  0.74167  0.58907  1.0000 -0.0833801596
C   C105      1.0  0.94358  0.40976  0.09474  1.0000 -0.0206911593
C   C106      1.0  0.31502  0.84884  0.90526  1.0000 -0.0206911593
C   C107      1.0  0.09884  0.69358  0.03382  1.0000 -0.0206911593
C   C108      1.0  0.65976  0.06502  0.96618  1.0000 -0.0206911593
C   C109      1.0  0.30642  0.34024  0.40526  1.0000 -0.0206911593
C   C110      1.0  0.93498  0.90116  0.59474  1.0000 -0.0206911593
C   C111      1.0  0.15116  0.05642  0.46618  1.0000 -0.0206911593
C   C112      1.0  0.59024  0.68498  0.53382  1.0000 -0.0206911593
C   C113      1.0  0.98075  0.44780  0.04015  1.0000 -0.1182150884
C   C114      1.0  0.40765  0.94060  0.95985  1.0000 -0.1182150884
C   C115      1.0  0.19060  0.73075  0.03295  1.0000 -0.1182150884
C   C116      1.0  0.69780  0.15765  0.96705  1.0000 -0.1182150884
C   C117      1.0  0.26925  0.30220  0.45985  1.0000 -0.1182150884
C   C118      1.0  0.84235  0.80940  0.54015  1.0000 -0.1182150884
C   C119      1.0  0.05940  0.01925  0.46705  1.0000 -0.1182150884
C   C120      1.0  0.55220  0.59235  0.53295  1.0000 -0.1182150884
C   C121      1.0  0.86359  0.38743  0.11482  1.0000 0.5841375074
C   C122      1.0  0.27261  0.74877  0.88518  1.0000 0.5890090497
C   C123      1.0  0.99877  0.61359  0.97616  1.0000 0.5890090497
C   C124      1.0  0.63743  0.02261  0.02384  1.0000 0.5890090497
C   C125      1.0  0.38641  0.36257  0.38518  1.0000 0.5841375074
C   C126      1.0  0.97739  0.00123  0.61482  1.0000 0.5890090497
C   C127      1.0  0.25123  0.13641  0.52384  1.0000 0.5841375074
C   C128      1.0  0.61257  0.72739  0.47616  1.0000 0.5841375074
O   O1        1.0  0.01111  0.38560  0.80511  1.0000 -0.5382981269
O   O2        1.0  0.58049  0.20600  0.19489  1.0000 -0.5382981269
O   O3        1.0  0.45600  0.76111  0.12551  1.0000 -0.5382981269
O   O4        1.0  0.63560  0.33049  0.87449  1.0000 -0.5382981269
O   O5        1.0  0.23889  0.36440  0.69489  1.0000 -0.5382981269
O   O6        1.0  0.66951  0.54400  0.30511  1.0000 -0.5382981269
O   O7        1.0  0.79400  0.98889  0.37449  1.0000 -0.5382981269
O   O8        1.0  0.61440  0.41951  0.62551  1.0000 -0.5382981269
O   O9        1.0  0.88845  0.35779  0.78104  1.0000 -0.5482550604
O   O10       1.0  0.57675  0.10741  0.21896  1.0000 -0.5482550604
O   O11       1.0  0.35741  0.63845  0.03066  1.0000 -0.5482550604
O   O12       1.0  0.60779  0.32675  0.96934  1.0000 -0.5482550604
O   O13       1.0  0.36155  0.39221  0.71896  1.0000 -0.5482550604
O   O14       1.0  0.67325  0.64259  0.28104  1.0000 -0.5482550604
O   O15       1.0  0.89259  0.11155  0.46934  1.0000 -0.5482550604
O   O16       1.0  0.64221  0.42325  0.53066  1.0000 -0.5482550604
O   O17       1.0  0.99573  0.20702  0.65495  1.0000 -0.5335475548
O   O18       1.0  0.55207  0.34078  0.34505  1.0000 -0.5335475548
O   O19       1.0  0.59078  0.74573  0.28871  1.0000 -0.5335475548
O   O20       1.0  0.45702  0.30207  0.71129  1.0000 -0.5335475548
O   O21       1.0  0.25427  0.54298  0.84505  1.0000 -0.5335475548
O   O22       1.0  0.69793  0.40922  0.15495  1.0000 -0.5335475548
O   O23       1.0  0.65922  0.00427  0.21129  1.0000 -0.5335475548
O   O24       1.0  0.79298  0.44793  0.78871  1.0000 -0.5335475548
O   O25       1.0  0.82028  0.03385  0.58013  1.0000 -0.5599782361
O   O26       1.0  0.45372  0.24015  0.41987  1.0000 -0.5599782361
O   O27       1.0  0.49015  0.57028  0.28643  1.0000 -0.5599782361
O   O28       1.0  0.28385  0.20372  0.71357  1.0000 -0.5599782361
O   O29       1.0  0.42972  0.71615  0.91987  1.0000 -0.5599782361
O   O30       1.0  0.79628  0.50985  0.08013  1.0000 -0.5599782361
O   O31       1.0  0.75985  0.17972  0.21357  1.0000 -0.5599782361
O   O32       1.0  0.96615  0.54628  0.78643  1.0000 -0.5599782361
O   O33       1.0  0.16254  0.53856  0.93830  1.0000 -0.5884176312
O   O34       1.0  0.60026  0.22424  0.06170  1.0000 -0.5884176312
O   O35       1.0  0.47424  0.91254  0.12398  1.0000 -0.5884176312
O   O36       1.0  0.78856  0.35026  0.87602  1.0000 -0.5884176312
O   O37       1.0  0.08746  0.21144  0.56170  1.0000 -0.5884176312
O   O38       1.0  0.64974  0.52576  0.43830  1.0000 -0.5884176312
O   O39       1.0  0.77576  0.83746  0.37602  1.0000 -0.5884176312
O   O40       1.0  0.46144  0.39974  0.62398  1.0000 -0.5884176312
O   O41       1.0  0.00704  0.46995  0.92279  1.0000 -0.5599782361
O   O42       1.0  0.54716  0.08425  0.07721  1.0000 -0.5599782361
O   O43       1.0  0.33425  0.75704  0.03709  1.0000 -0.5599782361
O   O44       1.0  0.71995  0.29716  0.96291  1.0000 -0.5599782361
O   O45       1.0  0.24296  0.28005  0.57721  1.0000 -0.5599782361
O   O46       1.0  0.70284  0.66575  0.42279  1.0000 -0.5599782361
O   O47       1.0  0.91575  0.99296  0.46291  1.0000 -0.5599782361
O   O48       1.0  0.53005  0.45284  0.53709  1.0000 -0.5599782361
O   O49       1.0  0.86053  0.43666  0.09599  1.0000 -0.5599782361
O   O50       1.0  0.34067  0.76454  0.90401  1.0000 -0.5599782361
O   O51       1.0  0.01454  0.61053  0.92387  1.0000 -0.5599782361
O   O52       1.0  0.68666  0.09067  0.07613  1.0000 -0.5599782361
O   O53       1.0  0.38947  0.31334  0.40401  1.0000 -0.5599782361
O   O54       1.0  0.90933  0.98546  0.59599  1.0000 -0.5599782361
O   O55       1.0  0.23546  0.13947  0.57613  1.0000 -0.5599782361
O   O56       1.0  0.56334  0.65933  0.42387  1.0000 -0.5599782361
O   O57       1.0  0.79651  0.31682  0.15273  1.0000 -0.5780714719
O   O58       1.0  0.16409  0.64378  0.84727  1.0000 -0.5780714719
O   O59       1.0  0.89378  0.54651  0.97969  1.0000 -0.5780714719
O   O60       1.0  0.56682  0.91409  0.02031  1.0000 -0.5780714719
O   O61       1.0  0.45349  0.43318  0.34727  1.0000 -0.5780714719
O   O62       1.0  0.08591  0.10622  0.65273  1.0000 -0.5780714719
O   O63       1.0  0.35622  0.20349  0.52031  1.0000 -0.5780714719
O   O64       1.0  0.68318  0.83591  0.47969  1.0000 -0.5780714719
