# DDEC6 charges by PACMAN v1.1 (https://github.com/mtap-research/PACMAN-charge/)
data_2010[Ni][nan]3[ASR]2
_chemical_formula_sum              "Ni12 H64 C88 N8 O48"
_cell_length_a       8.80836
_cell_length_b       8.80836
_cell_length_c       40.078
_cell_angle_alpha    86.3071
_cell_angle_beta     93.6929
_cell_angle_gamma    97.0624

_symmetry_space_group_name_H-M    "P 1"
_symmetry_Int_Tables_number       1

loop_
  _symmetry_equiv_pos_as_xyz
  'x, y, z'

loop_
  _atom_site_type_symbol
  _atom_site_label
  _atom_site_symmetry_multiplicity
  _atom_site_fract_x
  _atom_site_fract_y
  _atom_site_fract_z
  _atom_site_occupancy
  _atom_site_charge
Ni  Ni1       1.0  0.80464  0.25220  0.88173  1.0000 0.9671771373
Ni  Ni2       1.0  0.25220  0.80464  0.61827  1.0000 0.9671771373
Ni  Ni3       1.0  0.19536  0.74780  0.11827  1.0000 0.9671771373
Ni  Ni4       1.0  0.74780  0.19536  0.38173  1.0000 0.9671771373
Ni  Ni5       1.0  0.58942  0.03142  0.83585  1.0000 0.7921517933
Ni  Ni6       1.0  0.03142  0.58942  0.66415  1.0000 0.7921517933
Ni  Ni7       1.0  0.41058  0.96858  0.16415  1.0000 0.7921517933
Ni  Ni8       1.0  0.96858  0.41058  0.33585  1.0000 0.7921517933
Ni  Ni9       1.0  0.13885  0.09495  0.89538  1.0000 0.8177470709
Ni  Ni10      1.0  0.09495  0.13885  0.60462  1.0000 0.8177470709
Ni  Ni11      1.0  0.86115  0.90505  0.10462  1.0000 0.8177470709
Ni  Ni12      1.0  0.90505  0.86115  0.39538  1.0000 0.8177470709
H   H1        1.0  0.61750  0.01110  0.03280  1.0000 0.1298794034
H   H2        1.0  0.01110  0.61750  0.46720  1.0000 0.1298794034
H   H3        1.0  0.38250  0.98890  0.96720  1.0000 0.1298794034
H   H4        1.0  0.98890  0.38250  0.53280  1.0000 0.1298794034
H   H5        1.0  0.88070  0.67730  0.02530  1.0000 0.1298794034
H   H6        1.0  0.67730  0.88070  0.47470  1.0000 0.1298794034
H   H7        1.0  0.11930  0.32270  0.97470  1.0000 0.1298794034
H   H8        1.0  0.32270  0.11930  0.52530  1.0000 0.1298794034
H   H9        1.0  0.30840  0.60940  0.75250  1.0000 0.1298794034
H   H10       1.0  0.60940  0.30840  0.74750  1.0000 0.1298794034
H   H11       1.0  0.69160  0.39060  0.24750  1.0000 0.1298794034
H   H12       1.0  0.39060  0.69160  0.25250  1.0000 0.1298794034
H   H13       1.0  0.57100  0.94320  0.70460  1.0000 0.1298794034
H   H14       1.0  0.94320  0.57100  0.79540  1.0000 0.1298794034
H   H15       1.0  0.42900  0.05680  0.29540  1.0000 0.1298794034
H   H16       1.0  0.05680  0.42900  0.20460  1.0000 0.1298794034
H   H17       1.0  0.86260  0.99620  0.79220  1.0000 0.1471774127
H   H18       1.0  0.99620  0.86260  0.70780  1.0000 0.1471774127
H   H19       1.0  0.13740  0.00380  0.20780  1.0000 0.1471774127
H   H20       1.0  0.00380  0.13740  0.29220  1.0000 0.1471774127
H   H21       1.0  0.91670  0.84230  0.80790  1.0000 0.1471774127
H   H22       1.0  0.84230  0.91670  0.69210  1.0000 0.1471774127
H   H23       1.0  0.08330  0.15770  0.19210  1.0000 0.1471774127
H   H24       1.0  0.15770  0.08330  0.30790  1.0000 0.1471774127
H   H25       1.0  0.78240  0.72620  0.85120  1.0000 0.1595362681
H   H26       1.0  0.72620  0.78240  0.64880  1.0000 0.1595362681
H   H27       1.0  0.21760  0.27380  0.14880  1.0000 0.1595362681
H   H28       1.0  0.27380  0.21760  0.35120  1.0000 0.1595362681
H   H29       1.0  0.66020  0.63080  0.82840  1.0000 0.1365950749
H   H30       1.0  0.63080  0.66020  0.67160  1.0000 0.1365950749
H   H31       1.0  0.33980  0.36920  0.17160  1.0000 0.1365950749
H   H32       1.0  0.36920  0.33980  0.32840  1.0000 0.1365950749
H   H33       1.0  0.71890  0.98770  0.75310  1.0000 0.1298794034
H   H34       1.0  0.98770  0.71890  0.74690  1.0000 0.1298794034
H   H35       1.0  0.28110  0.01230  0.24690  1.0000 0.1298794034
H   H36       1.0  0.01230  0.28110  0.25310  1.0000 0.1298794034
H   H37       1.0  0.51810  0.88550  0.06740  1.0000 0.1471774127
H   H38       1.0  0.88550  0.51810  0.43260  1.0000 0.1471774127
H   H39       1.0  0.48190  0.11450  0.93260  1.0000 0.1471774127
H   H40       1.0  0.11450  0.48190  0.56740  1.0000 0.1471774127
H   H41       1.0  0.47930  0.70670  0.07180  1.0000 0.1595362681
H   H42       1.0  0.70670  0.47930  0.42820  1.0000 0.1595362681
H   H43       1.0  0.52070  0.29330  0.92820  1.0000 0.1595362681
H   H44       1.0  0.29330  0.52070  0.57180  1.0000 0.1595362681
H   H45       1.0  0.65510  0.56410  0.09080  1.0000 0.1595362681
H   H46       1.0  0.56410  0.65510  0.40920  1.0000 0.1595362681
H   H47       1.0  0.34490  0.43590  0.90920  1.0000 0.1595362681
H   H48       1.0  0.43590  0.34490  0.59080  1.0000 0.1595362681
H   H49       1.0  0.72140  0.55860  0.05560  1.0000 0.1365950749
H   H50       1.0  0.55860  0.72140  0.44440  1.0000 0.1365950749
H   H51       1.0  0.27860  0.44140  0.94440  1.0000 0.1365950749
H   H52       1.0  0.44140  0.27860  0.55560  1.0000 0.1365950749
H   H53       1.0  0.45740  0.65020  0.80090  1.0000 0.1298794034
H   H54       1.0  0.65020  0.45740  0.69910  1.0000 0.1298794034
H   H55       1.0  0.54260  0.34980  0.19910  1.0000 0.1298794034
H   H56       1.0  0.34980  0.54260  0.30090  1.0000 0.1298794034
H   H57       1.0  0.68350  0.11350  0.98100  1.0000 0.1241618632
H   H58       1.0  0.11350  0.68350  0.51900  1.0000 0.1241618632
H   H59       1.0  0.31650  0.88650  0.01900  1.0000 0.1241618632
H   H60       1.0  0.88650  0.31650  0.48100  1.0000 0.1241618632
H   H61       1.0  0.94760  0.78340  0.97310  1.0000 0.1365950749
H   H62       1.0  0.78340  0.94760  0.52690  1.0000 0.1365950749
H   H63       1.0  0.05240  0.21660  0.02690  1.0000 0.1365950749
H   H64       1.0  0.21660  0.05240  0.47310  1.0000 0.1365950749
C   C1        1.0  0.68390  0.96390  0.02084  1.0000 -0.179775368
C   C2        1.0  0.96390  0.68390  0.47916  1.0000 -0.179775368
C   C3        1.0  0.31610  0.03610  0.97916  1.0000 -0.179775368
C   C4        1.0  0.03610  0.31610  0.52084  1.0000 -0.179775368
C   C5        1.0  0.84040  0.76520  0.01659  1.0000 -0.179775368
C   C6        1.0  0.76520  0.84040  0.48341  1.0000 -0.179775368
C   C7        1.0  0.15960  0.23480  0.98341  1.0000 -0.179775368
C   C8        1.0  0.23480  0.15960  0.51659  1.0000 -0.179775368
C   C9        1.0  0.39140  0.68560  0.75250  1.0000 -0.0876534869
C   C10       1.0  0.68560  0.39140  0.74750  1.0000 -0.0876534869
C   C11       1.0  0.60860  0.31440  0.24750  1.0000 -0.0876534869
C   C12       1.0  0.31440  0.60860  0.25250  1.0000 -0.0876534869
C   C13       1.0  0.42300  0.77320  0.72329  1.0000 -0.0361132487
C   C14       1.0  0.77320  0.42300  0.77671  1.0000 -0.0361132487
C   C15       1.0  0.57700  0.22680  0.27671  1.0000 -0.0361132487
C   C16       1.0  0.22680  0.57700  0.22329  1.0000 -0.0361132487
C   C17       1.0  0.31930  0.74770  0.69253  1.0000 0.578883707
C   C18       1.0  0.74770  0.31930  0.80747  1.0000 0.578883707
C   C19       1.0  0.68070  0.25230  0.30747  1.0000 0.578883707
C   C20       1.0  0.25230  0.68070  0.19253  1.0000 0.578883707
C   C21       1.0  0.54720  0.88420  0.72404  1.0000 -0.0876534869
C   C22       1.0  0.88420  0.54720  0.77596  1.0000 -0.0876534869
C   C23       1.0  0.45280  0.11580  0.27596  1.0000 -0.0876534869
C   C24       1.0  0.11580  0.45280  0.22404  1.0000 -0.0876534869
C   C25       1.0  0.90760  0.00000  0.84298  1.0000 0.6336160893
C   C26       1.0  0.00000  0.90760  0.65702  1.0000 0.6336160893
C   C27       1.0  0.09240  0.00000  0.15702  1.0000 0.6336160893
C   C28       1.0  0.00000  0.09240  0.34298  1.0000 0.6336160893
C   C29       1.0  0.85350  0.92230  0.81117  1.0000 -0.2710286682
C   C30       1.0  0.92230  0.85350  0.68883  1.0000 -0.2710286682
C   C31       1.0  0.14650  0.07770  0.18883  1.0000 -0.2710286682
C   C32       1.0  0.07770  0.14650  0.31117  1.0000 -0.2710286682
C   C33       1.0  0.68270  0.72650  0.83943  1.0000 -0.2761777905
C   C34       1.0  0.72650  0.68270  0.66057  1.0000 -0.2761777905
C   C35       1.0  0.31730  0.27350  0.16057  1.0000 -0.2761777905
C   C36       1.0  0.27350  0.31730  0.33943  1.0000 -0.2761777905
C   C37       1.0  0.60560  0.82080  0.78209  1.0000 0.1595362681
C   C38       1.0  0.82080  0.60560  0.71791  1.0000 0.1595362681
C   C39       1.0  0.39440  0.17920  0.21791  1.0000 0.1595362681
C   C40       1.0  0.17920  0.39440  0.28209  1.0000 0.1595362681
C   C41       1.0  0.55380  0.80420  0.11603  1.0000 0.6403387631
C   C42       1.0  0.80420  0.55380  0.38397  1.0000 0.6403387631
C   C43       1.0  0.44620  0.19580  0.88397  1.0000 0.6403387631
C   C44       1.0  0.19580  0.44620  0.61603  1.0000 0.6403387631
C   C45       1.0  0.63710  0.91010  0.75303  1.0000 -0.179775368
C   C46       1.0  0.91010  0.63710  0.74697  1.0000 -0.179775368
C   C47       1.0  0.36290  0.08990  0.24697  1.0000 -0.179775368
C   C48       1.0  0.08990  0.36290  0.25303  1.0000 -0.179775368
C   C49       1.0  0.55140  0.79320  0.07850  1.0000 -0.2761777905
C   C50       1.0  0.79320  0.55140  0.42150  1.0000 -0.2761777905
C   C51       1.0  0.44860  0.20680  0.92150  1.0000 -0.2761777905
C   C52       1.0  0.20680  0.44860  0.57850  1.0000 -0.2761777905
C   C53       1.0  0.82430  0.96010  0.97163  1.0000 -0.0361132487
C   C54       1.0  0.96010  0.82430  0.52837  1.0000 -0.0361132487
C   C55       1.0  0.17570  0.03990  0.02837  1.0000 -0.0361132487
C   C56       1.0  0.03990  0.17570  0.47163  1.0000 -0.0361132487
C   C57       1.0  0.73340  0.61200  0.07623  1.0000 -0.2859741454
C   C58       1.0  0.61200  0.73340  0.42377  1.0000 -0.2859741454
C   C59       1.0  0.26660  0.38800  0.92377  1.0000 -0.2859741454
C   C60       1.0  0.38800  0.26660  0.57623  1.0000 -0.2859741454
C   C61       1.0  0.48110  0.70970  0.78151  1.0000 -0.179775368
C   C62       1.0  0.70970  0.48110  0.71849  1.0000 -0.179775368
C   C63       1.0  0.51890  0.29030  0.21849  1.0000 -0.179775368
C   C64       1.0  0.29030  0.51890  0.28151  1.0000 -0.179775368
C   C65       1.0  0.88830  0.59130  0.09290  1.0000 0.6243003304
C   C66       1.0  0.59130  0.88830  0.40710  1.0000 0.6243003304
C   C67       1.0  0.11170  0.40870  0.90710  1.0000 0.6243003304
C   C68       1.0  0.40870  0.11170  0.59290  1.0000 0.6243003304
C   C69       1.0  0.72420  0.02600  0.98984  1.0000 -0.0876534869
C   C70       1.0  0.02600  0.72420  0.51016  1.0000 -0.0876534869
C   C71       1.0  0.27580  0.97400  0.01016  1.0000 -0.0876534869
C   C72       1.0  0.97400  0.27580  0.48984  1.0000 -0.0876534869
C   C73       1.0  0.88090  0.82970  0.98516  1.0000 -0.0689071645
C   C74       1.0  0.82970  0.88090  0.51484  1.0000 -0.0689071645
C   C75       1.0  0.11910  0.17030  0.01484  1.0000 -0.0689071645
C   C76       1.0  0.17030  0.11910  0.48516  1.0000 -0.0689071645
C   C77       1.0  0.87220  0.03600  0.93868  1.0000 0.5890156622
C   C78       1.0  0.03600  0.87220  0.56132  1.0000 0.5890156622
C   C79       1.0  0.12780  0.96400  0.06132  1.0000 0.5890156622
C   C80       1.0  0.96400  0.12780  0.43868  1.0000 0.5890156622
C   C81       1.0  0.56320  0.73240  0.86508  1.0000 0.6043900545
C   C82       1.0  0.73240  0.56320  0.63492  1.0000 0.6043900545
C   C83       1.0  0.43680  0.26760  0.13492  1.0000 0.6043900545
C   C84       1.0  0.26760  0.43680  0.36508  1.0000 0.6043900545
C   C85       1.0  0.74050  0.83190  0.03470  1.0000 0.1666206117
C   C86       1.0  0.83190  0.74050  0.46530  1.0000 0.1666206117
C   C87       1.0  0.25950  0.16810  0.96530  1.0000 0.1666206117
C   C88       1.0  0.16810  0.25950  0.53470  1.0000 0.1666206117
N   N1        1.0  0.69180  0.85500  0.81333  1.0000 -0.0876534869
N   N2        1.0  0.85500  0.69180  0.68667  1.0000 -0.0876534869
N   N3        1.0  0.30820  0.14500  0.18667  1.0000 -0.0876534869
N   N4        1.0  0.14500  0.30820  0.31333  1.0000 -0.0876534869
N   N5        1.0  0.70630  0.77390  0.06825  1.0000 -0.0876534869
N   N6        1.0  0.77390  0.70630  0.43175  1.0000 -0.0876534869
N   N7        1.0  0.29370  0.22610  0.93175  1.0000 -0.0876534869
N   N8        1.0  0.22610  0.29370  0.56825  1.0000 -0.0876534869
O   O1        1.0  0.04670  0.01710  0.85076  1.0000 -0.4680652623
O   O2        1.0  0.01710  0.04670  0.64924  1.0000 -0.4680652623
O   O3        1.0  0.95330  0.98290  0.14924  1.0000 -0.4680652623
O   O4        1.0  0.98290  0.95330  0.35076  1.0000 -0.4680652623
O   O5        1.0  0.80540  0.04760  0.85908  1.0000 -0.5635440951
O   O6        1.0  0.04760  0.80540  0.64092  1.0000 -0.5635440951
O   O7        1.0  0.19460  0.95240  0.14092  1.0000 -0.5635440951
O   O8        1.0  0.95240  0.19460  0.35908  1.0000 -0.5635440951
O   O9        1.0  0.19750  0.66050  0.69701  1.0000 -0.541349933
O   O10       1.0  0.66050  0.19750  0.80299  1.0000 -0.541349933
O   O11       1.0  0.80250  0.33950  0.30299  1.0000 -0.541349933
O   O12       1.0  0.33950  0.80250  0.19701  1.0000 -0.541349933
O   O13       1.0  0.35910  0.81670  0.66531  1.0000 -0.541349933
O   O14       1.0  0.81670  0.35910  0.83469  1.0000 -0.541349933
O   O15       1.0  0.64090  0.18330  0.33469  1.0000 -0.541349933
O   O16       1.0  0.18330  0.64090  0.16531  1.0000 -0.541349933
O   O17       1.0  0.50460  0.85540  0.86640  1.0000 -0.5497298096
O   O18       1.0  0.85540  0.50460  0.63360  1.0000 -0.5497298096
O   O19       1.0  0.49540  0.14460  0.13360  1.0000 -0.5497298096
O   O20       1.0  0.14460  0.49540  0.36640  1.0000 -0.5497298096
O   O21       1.0  0.79740  0.14140  0.92700  1.0000 -0.5497298096
O   O22       1.0  0.14140  0.79740  0.57300  1.0000 -0.5497298096
O   O23       1.0  0.20260  0.85860  0.07300  1.0000 -0.5497298096
O   O24       1.0  0.85860  0.20260  0.42700  1.0000 -0.5497298096
O   O25       1.0  0.43020  0.80700  0.12935  1.0000 -0.5315807566
O   O26       1.0  0.80700  0.43020  0.37065  1.0000 -0.5315807566
O   O27       1.0  0.56980  0.19300  0.87065  1.0000 -0.5315807566
O   O28       1.0  0.19300  0.56980  0.62935  1.0000 -0.5315807566
O   O29       1.0  0.95880  0.70560  0.10853  1.0000 -0.5908028637
O   O30       1.0  0.70560  0.95880  0.39147  1.0000 -0.5908028637
O   O31       1.0  0.04120  0.29440  0.89147  1.0000 -0.5908028637
O   O32       1.0  0.29440  0.04120  0.60853  1.0000 -0.5908028637
O   O33       1.0  0.68040  0.81700  0.13256  1.0000 -0.4866766935
O   O34       1.0  0.81700  0.68040  0.36744  1.0000 -0.4866766935
O   O35       1.0  0.31960  0.18300  0.86744  1.0000 -0.4866766935
O   O36       1.0  0.18300  0.31960  0.63256  1.0000 -0.4866766935
O   O37       1.0  0.98400  0.98880  0.92607  1.0000 -0.5315807566
O   O38       1.0  0.98880  0.98400  0.57393  1.0000 -0.5315807566
O   O39       1.0  0.01600  0.01120  0.07393  1.0000 -0.5315807566
O   O40       1.0  0.01120  0.01600  0.42607  1.0000 -0.5315807566
O   O41       1.0  0.53380  0.61580  0.88346  1.0000 -0.5315807566
O   O42       1.0  0.61580  0.53380  0.61654  1.0000 -0.5315807566
O   O43       1.0  0.46620  0.38420  0.11654  1.0000 -0.5315807566
O   O44       1.0  0.38420  0.46620  0.38346  1.0000 -0.5315807566
O   O45       1.0  0.93540  0.46460  0.09174  1.0000 -0.5132904058
O   O46       1.0  0.46460  0.93540  0.40826  1.0000 -0.5132904058
O   O47       1.0  0.06460  0.53540  0.90826  1.0000 -0.5132904058
O   O48       1.0  0.53540  0.06460  0.59174  1.0000 -0.5132904058
