# DDEC6 charges by PACMAN v1.1 (https://github.com/mtap-research/PACMAN-charge/)
data_2010[Cu][dia]3[ASR]1
_chemical_formula_sum              "Cu16 H96 C48 I16 N16"
_cell_length_a       16.6999
_cell_length_b       16.6999
_cell_length_c       16.6999
_cell_angle_alpha    118.696
_cell_angle_beta     118.696
_cell_angle_gamma    92.2741

_symmetry_space_group_name_H-M    "P 1"
_symmetry_Int_Tables_number       1

loop_
  _symmetry_equiv_pos_as_xyz
  'x, y, z'

loop_
  _atom_site_type_symbol
  _atom_site_label
  _atom_site_symmetry_multiplicity
  _atom_site_fract_x
  _atom_site_fract_y
  _atom_site_fract_z
  _atom_site_occupancy
  _atom_site_charge
Cu  Cu1       1.0  0.14076  0.05219  0.91143  1.0000 0.1622304313
Cu  Cu2       1.0  0.14076  0.22933  0.08857  1.0000 0.1622304313
Cu  Cu3       1.0  0.97933  0.39076  0.58857  1.0000 0.1622304313
Cu  Cu4       1.0  0.80219  0.39076  0.41143  1.0000 0.1622304313
Cu  Cu5       1.0  0.30304  0.22494  0.07810  1.0000 0.1622304313
Cu  Cu6       1.0  0.14684  0.22494  0.92190  1.0000 0.1622304313
Cu  Cu7       1.0  0.97494  0.55304  0.57810  1.0000 0.1622304313
Cu  Cu8       1.0  0.97494  0.39684  0.42190  1.0000 0.1622304313
Cu  Cu9       1.0  0.60924  0.19781  0.58857  1.0000 0.1622304313
Cu  Cu10      1.0  0.60924  0.02067  0.41143  1.0000 0.1622304313
Cu  Cu11      1.0  0.94781  0.85924  0.08857  1.0000 0.1622304313
Cu  Cu12      1.0  0.77067  0.85924  0.91143  1.0000 0.1622304313
Cu  Cu13      1.0  0.60316  0.02506  0.57810  1.0000 0.1622304313
Cu  Cu14      1.0  0.44696  0.02506  0.42190  1.0000 0.1622304313
Cu  Cu15      1.0  0.77506  0.69696  0.92190  1.0000 0.1622304313
Cu  Cu16      1.0  0.77506  0.85316  0.07810  1.0000 0.1622304313
H   H1        1.0  0.10320  0.88620  0.69080  1.0000 0.1001985215
H   H2        1.0  0.19540  0.41240  0.30920  1.0000 0.1001985215
H   H3        1.0  0.16240  0.35320  0.71700  1.0000 0.1001985215
H   H4        1.0  0.63620  0.44540  0.28300  1.0000 0.1001985215
H   H5        1.0  0.19540  0.88620  0.78300  1.0000 0.1001985215
H   H6        1.0  0.10320  0.41240  0.21700  1.0000 0.1001985215
H   H7        1.0  0.63620  0.35320  0.19080  1.0000 0.1001985215
H   H8        1.0  0.16240  0.44540  0.80920  1.0000 0.1001985215
H   H9        1.0  0.14360  0.72830  0.67690  1.0000 0.1001985215
H   H10       1.0  0.05140  0.46670  0.32310  1.0000 0.1001985215
H   H11       1.0  0.21670  0.39360  0.91530  1.0000 0.1001985215
H   H12       1.0  0.47830  0.30140  0.08470  1.0000 0.1001985215
H   H13       1.0  0.05140  0.72830  0.58470  1.0000 0.1001985215
H   H14       1.0  0.14360  0.46670  0.41530  1.0000 0.1001985215
H   H15       1.0  0.47830  0.39360  0.17690  1.0000 0.1001985215
H   H16       1.0  0.21670  0.30140  0.82310  1.0000 0.1001985215
H   H17       1.0  0.04510  0.71560  0.81450  1.0000 0.1089786099
H   H18       1.0  0.90110  0.23060  0.18550  1.0000 0.1089786099
H   H19       1.0  0.98060  0.29510  0.82950  1.0000 0.1089786099
H   H20       1.0  0.46560  0.15110  0.17050  1.0000 0.1089786099
H   H21       1.0  0.90110  0.71560  0.67050  1.0000 0.1089786099
H   H22       1.0  0.04510  0.23060  0.32950  1.0000 0.1089786099
H   H23       1.0  0.46560  0.29510  0.31450  1.0000 0.1089786099
H   H24       1.0  0.98060  0.15110  0.68550  1.0000 0.1089786099
H   H25       1.0  0.14010  0.72210  0.81640  1.0000 0.1089786099
H   H26       1.0  0.90570  0.32370  0.18360  1.0000 0.1089786099
H   H27       1.0  0.07370  0.39010  0.91800  1.0000 0.1089786099
H   H28       1.0  0.47210  0.15570  0.08200  1.0000 0.1089786099
H   H29       1.0  0.90570  0.72210  0.58200  1.0000 0.1089786099
H   H30       1.0  0.14010  0.32370  0.41800  1.0000 0.1089786099
H   H31       1.0  0.47210  0.39010  0.31640  1.0000 0.1089786099
H   H32       1.0  0.07370  0.15570  0.68360  1.0000 0.1089786099
H   H33       1.0  0.19020  0.88080  0.92480  1.0000 0.1089786099
H   H34       1.0  0.95600  0.26540  0.07520  1.0000 0.1089786099
H   H35       1.0  0.01540  0.44020  0.80940  1.0000 0.1089786099
H   H36       1.0  0.63080  0.20600  0.19060  1.0000 0.1089786099
H   H37       1.0  0.95600  0.88080  0.69060  1.0000 0.1089786099
H   H38       1.0  0.19020  0.26540  0.30940  1.0000 0.1089786099
H   H39       1.0  0.63080  0.44020  0.42480  1.0000 0.1089786099
H   H40       1.0  0.01540  0.20600  0.57520  1.0000 0.1089786099
H   H41       1.0  0.09340  0.87430  0.91930  1.0000 0.1089786099
H   H42       1.0  0.95500  0.17410  0.08070  1.0000 0.1089786099
H   H43       1.0  0.92410  0.34340  0.71910  1.0000 0.1089786099
H   H44       1.0  0.62430  0.20500  0.28090  1.0000 0.1089786099
H   H45       1.0  0.95500  0.87430  0.78090  1.0000 0.1089786099
H   H46       1.0  0.09340  0.17410  0.21910  1.0000 0.1089786099
H   H47       1.0  0.62430  0.34340  0.41930  1.0000 0.1089786099
H   H48       1.0  0.92410  0.20500  0.58070  1.0000 0.1089786099
H   H49       1.0  0.55460  0.36380  0.71700  1.0000 0.1001985215
H   H50       1.0  0.64680  0.83760  0.28300  1.0000 0.1001985215
H   H51       1.0  0.11380  0.89680  0.30920  1.0000 0.1001985215
H   H52       1.0  0.58760  0.80460  0.69080  1.0000 0.1001985215
H   H53       1.0  0.64680  0.36380  0.80920  1.0000 0.1001985215
H   H54       1.0  0.55460  0.83760  0.19080  1.0000 0.1001985215
H   H55       1.0  0.58760  0.89680  0.78300  1.0000 0.1001985215
H   H56       1.0  0.11380  0.80460  0.21700  1.0000 0.1001985215
H   H57       1.0  0.69860  0.52170  0.91530  1.0000 0.1001985215
H   H58       1.0  0.60640  0.78330  0.08470  1.0000 0.1001985215
H   H59       1.0  0.27170  0.85640  0.32310  1.0000 0.1001985215
H   H60       1.0  0.53330  0.94860  0.67690  1.0000 0.1001985215
H   H61       1.0  0.60640  0.52170  0.82310  1.0000 0.1001985215
H   H62       1.0  0.69860  0.78330  0.17690  1.0000 0.1001985215
H   H63       1.0  0.53330  0.85640  0.58470  1.0000 0.1001985215
H   H64       1.0  0.27170  0.94860  0.41530  1.0000 0.1001985215
H   H65       1.0  0.84890  0.53440  0.82950  1.0000 0.1089786099
H   H66       1.0  0.70490  0.01940  0.17050  1.0000 0.1089786099
H   H67       1.0  0.28440  0.95490  0.18550  1.0000 0.1089786099
H   H68       1.0  0.76940  0.09890  0.81450  1.0000 0.1089786099
H   H69       1.0  0.70490  0.53440  0.68550  1.0000 0.1089786099
H   H70       1.0  0.84890  0.01940  0.31450  1.0000 0.1089786099
H   H71       1.0  0.76940  0.95490  0.67050  1.0000 0.1089786099
H   H72       1.0  0.28440  0.09890  0.32950  1.0000 0.1089786099
H   H73       1.0  0.84430  0.52790  0.91800  1.0000 0.1089786099
H   H74       1.0  0.60990  0.92630  0.08200  1.0000 0.1089786099
H   H75       1.0  0.27790  0.85990  0.18360  1.0000 0.1089786099
H   H76       1.0  0.67630  0.09430  0.81640  1.0000 0.1089786099
H   H77       1.0  0.60990  0.52790  0.68360  1.0000 0.1089786099
H   H78       1.0  0.84430  0.92630  0.31640  1.0000 0.1089786099
H   H79       1.0  0.67630  0.85990  0.58200  1.0000 0.1089786099
H   H80       1.0  0.27790  0.09430  0.41800  1.0000 0.1089786099
H   H81       1.0  0.79400  0.36920  0.80940  1.0000 0.1089786099
H   H82       1.0  0.55980  0.98460  0.19060  1.0000 0.1089786099
H   H83       1.0  0.11920  0.80980  0.07520  1.0000 0.1089786099
H   H84       1.0  0.73460  0.04400  0.92480  1.0000 0.1089786099
H   H85       1.0  0.55980  0.36920  0.57520  1.0000 0.1089786099
H   H86       1.0  0.79400  0.98460  0.42480  1.0000 0.1089786099
H   H87       1.0  0.73460  0.80980  0.69060  1.0000 0.1089786099
H   H88       1.0  0.11920  0.04400  0.30940  1.0000 0.1089786099
H   H89       1.0  0.79500  0.37570  0.71910  1.0000 0.1089786099
H   H90       1.0  0.65660  0.07590  0.28090  1.0000 0.1089786099
H   H91       1.0  0.12570  0.90660  0.08070  1.0000 0.1089786099
H   H92       1.0  0.82590  0.04500  0.91930  1.0000 0.1089786099
H   H93       1.0  0.65660  0.37570  0.58070  1.0000 0.1089786099
H   H94       1.0  0.79500  0.07590  0.41930  1.0000 0.1089786099
H   H95       1.0  0.82590  0.90660  0.78090  1.0000 0.1089786099
H   H96       1.0  0.12570  0.04500  0.21910  1.0000 0.1089786099
C   C1        1.0  0.12467  0.86131  0.73664  1.0000 -0.1188548522
C   C2        1.0  0.12467  0.38803  0.26336  1.0000 -0.1188548522
C   C3        1.0  0.13803  0.37467  0.76336  1.0000 -0.1188548522
C   C4        1.0  0.61131  0.37467  0.23664  1.0000 -0.1188548522
C   C5        1.0  0.08825  0.75005  0.66180  1.0000 -0.1188548522
C   C6        1.0  0.08825  0.42645  0.33820  1.0000 -0.1188548522
C   C7        1.0  0.17645  0.33825  0.83820  1.0000 -0.1188548522
C   C8        1.0  0.50005  0.33825  0.16180  1.0000 -0.1188548522
C   C9        1.0  0.08420  0.74306  0.79952  1.0000 -0.1118331014
C   C10       1.0  0.94354  0.28468  0.20048  1.0000 -0.1118331014
C   C11       1.0  0.03468  0.33420  0.84114  1.0000 -0.1118331014
C   C12       1.0  0.49306  0.19354  0.15886  1.0000 -0.1118331014
C   C13       1.0  0.94354  0.74306  0.65886  1.0000 -0.1118331014
C   C14       1.0  0.08420  0.28468  0.34114  1.0000 -0.1118331014
C   C15       1.0  0.49306  0.33420  0.29952  1.0000 -0.1118331014
C   C16       1.0  0.03468  0.19354  0.70048  1.0000 -0.1118331014
C   C17       1.0  0.11958  0.85501  0.87479  1.0000 -0.1188548522
C   C18       1.0  0.98022  0.24479  0.12521  1.0000 -0.1188548522
C   C19       1.0  0.99479  0.36958  0.76457  1.0000 -0.1188548522
C   C20       1.0  0.60501  0.23022  0.23543  1.0000 -0.1188548522
C   C21       1.0  0.98022  0.85501  0.73543  1.0000 -0.1188548522
C   C22       1.0  0.11958  0.24479  0.26457  1.0000 -0.1188548522
C   C23       1.0  0.60501  0.36958  0.37479  1.0000 -0.1188548522
C   C24       1.0  0.99479  0.23022  0.62521  1.0000 -0.1188548522
C   C25       1.0  0.62533  0.38869  0.76336  1.0000 -0.1188548522
C   C26       1.0  0.62533  0.86197  0.23664  1.0000 -0.1188548522
C   C27       1.0  0.13869  0.87533  0.26336  1.0000 -0.1188548522
C   C28       1.0  0.61197  0.87533  0.73664  1.0000 -0.1188548522
C   C29       1.0  0.66175  0.49995  0.83820  1.0000 -0.1188548522
C   C30       1.0  0.66175  0.82355  0.16180  1.0000 -0.1188548522
C   C31       1.0  0.24995  0.91175  0.33820  1.0000 -0.1188548522
C   C32       1.0  0.57355  0.91175  0.66180  1.0000 -0.1188548522
C   C33       1.0  0.80646  0.50694  0.84114  1.0000 -0.1118331014
C   C34       1.0  0.66580  0.96532  0.15886  1.0000 -0.1118331014
C   C35       1.0  0.25694  0.91580  0.20048  1.0000 -0.1118331014
C   C36       1.0  0.71532  0.05646  0.79952  1.0000 -0.1118331014
C   C37       1.0  0.66580  0.50694  0.70048  1.0000 -0.1118331014
C   C38       1.0  0.80646  0.96532  0.29952  1.0000 -0.1118331014
C   C39       1.0  0.71532  0.91580  0.65886  1.0000 -0.1118331014
C   C40       1.0  0.25694  0.05646  0.34114  1.0000 -0.1118331014
C   C41       1.0  0.76978  0.39499  0.76457  1.0000 -0.1188548522
C   C42       1.0  0.63042  0.00521  0.23543  1.0000 -0.1188548522
C   C43       1.0  0.14499  0.88042  0.12521  1.0000 -0.1188548522
C   C44       1.0  0.75521  0.01978  0.87479  1.0000 -0.1188548522
C   C45       1.0  0.63042  0.39499  0.62521  1.0000 -0.1188548522
C   C46       1.0  0.76978  0.00521  0.37479  1.0000 -0.1188548522
C   C47       1.0  0.75521  0.88042  0.73543  1.0000 -0.1188548522
C   C48       1.0  0.14499  0.01978  0.26457  1.0000 -0.1188548522
I   I1        1.0  0.24156  0.11560  0.12596  1.0000 -0.3966498186
I   I2        1.0  0.98964  0.11560  0.87404  1.0000 -0.3966498186
I   I3        1.0  0.86560  0.49156  0.62596  1.0000 -0.3966498186
I   I4        1.0  0.86560  0.23964  0.37404  1.0000 -0.3966498186
I   I5        1.0  0.25302  0.12190  0.86888  1.0000 -0.3879592491
I   I6        1.0  0.25302  0.38414  0.13112  1.0000 -0.3879592491
I   I7        1.0  0.13414  0.50302  0.63112  1.0000 -0.3879592491
I   I8        1.0  0.87190  0.50302  0.36888  1.0000 -0.3879592491
I   I9        1.0  0.76036  0.13440  0.62596  1.0000 -0.3966498186
I   I10       1.0  0.50844  0.13440  0.37404  1.0000 -0.3966498186
I   I11       1.0  0.88440  0.75844  0.87404  1.0000 -0.3966498186
I   I12       1.0  0.88440  0.01036  0.12596  1.0000 -0.3966498186
I   I13       1.0  0.49698  0.12810  0.63112  1.0000 -0.3879592491
I   I14       1.0  0.49698  0.86586  0.36888  1.0000 -0.3879592491
I   I15       1.0  0.87810  0.74698  0.13112  1.0000 -0.3879592491
I   I16       1.0  0.61586  0.74698  0.86888  1.0000 -0.3879592491
N   N1        1.0  0.08842  0.89686  0.80844  1.0000 -0.0566945744
N   N2        1.0  0.08842  0.27998  0.19156  1.0000 -0.0566945744
N   N3        1.0  0.02998  0.33842  0.69156  1.0000 -0.0566945744
N   N4        1.0  0.64686  0.33842  0.30844  1.0000 -0.0566945744
N   N5        1.0  0.02552  0.70612  0.68060  1.0000 -0.0566945744
N   N6        1.0  0.02552  0.34492  0.31940  1.0000 -0.0566945744
N   N7        1.0  0.09492  0.27552  0.81940  1.0000 -0.0566945744
N   N8        1.0  0.45612  0.27552  0.18060  1.0000 -0.0566945744
N   N9        1.0  0.66158  0.35314  0.69156  1.0000 -0.0566945744
N   N10       1.0  0.66158  0.97002  0.30844  1.0000 -0.0566945744
N   N11       1.0  0.10314  0.91158  0.19156  1.0000 -0.0566945744
N   N12       1.0  0.72002  0.91158  0.80844  1.0000 -0.0566945744
N   N13       1.0  0.72448  0.54388  0.81940  1.0000 -0.0566945744
N   N14       1.0  0.72448  0.90508  0.18060  1.0000 -0.0566945744
N   N15       1.0  0.29388  0.97448  0.31940  1.0000 -0.0566945744
N   N16       1.0  0.65508  0.97448  0.68060  1.0000 -0.0566945744
