# DDEC6 charges by PACMAN v1.1 (https://github.com/mtap-research/PACMAN-charge/)
data_2010[Zn][unc]3[ASR]1
_chemical_formula_sum              "Zn8 H136 C208 O40"
_cell_length_a       13.0884
_cell_length_b       26.6186
_cell_length_c       26.6186
_cell_angle_alpha    65.2779
_cell_angle_beta     75.7679
_cell_angle_gamma    75.768

_symmetry_space_group_name_H-M    "P 1"
_symmetry_Int_Tables_number       1

loop_
  _symmetry_equiv_pos_as_xyz
  'x, y, z'

loop_
  _atom_site_type_symbol
  _atom_site_label
  _atom_site_symmetry_multiplicity
  _atom_site_fract_x
  _atom_site_fract_y
  _atom_site_fract_z
  _atom_site_occupancy
  _atom_site_charge
Zn  Zn1       1.0  0.15882  0.48896  0.36284  1.0000 0.9212849601
Zn  Zn2       1.0  0.97858  0.57644  0.28738  1.0000 0.9129806026
Zn  Zn3       1.0  0.98938  0.86284  0.98896  1.0000 0.9212849601
Zn  Zn4       1.0  0.15760  0.78738  0.07644  1.0000 0.9129806026
Zn  Zn5       1.0  0.34118  0.63716  0.51104  1.0000 0.9212849601
Zn  Zn6       1.0  0.52142  0.71262  0.42356  1.0000 0.9129806026
Zn  Zn7       1.0  0.51062  0.01104  0.13716  1.0000 0.9212849601
Zn  Zn8       1.0  0.34240  0.92356  0.21262  1.0000 0.9129806026
H   H1        1.0  0.02680  0.27170  0.36690  1.0000 0.1183584021
H   H2        1.0  0.07190  0.35110  0.36770  1.0000 0.1376080359
H   H3        1.0  0.85280  0.44810  0.26770  1.0000 0.1120453686
H   H4        1.0  0.79890  0.36660  0.27820  1.0000 0.1120453686
H   H5        1.0  0.01050  0.20990  0.32810  1.0000 0.1183584021
H   H6        1.0  0.71720  0.29450  0.33550  1.0000 0.1120453686
H   H7        1.0  0.95180  0.13010  0.33850  1.0000 0.1183584021
H   H8        1.0  0.54220  0.31770  0.29150  1.0000 0.1120453686
H   H9        1.0  0.41380  0.38660  0.31460  1.0000 0.1120453686
H   H10       1.0  0.35460  0.27560  0.47440  1.0000 0.1120453686
H   H11       1.0  0.48290  0.20680  0.45140  1.0000 0.1183584021
H   H12       1.0  0.49670  0.16140  0.37600  1.0000 0.1278242837
H   H13       1.0  0.80590  0.94080  0.11380  1.0000 0.1376080359
H   H14       1.0  0.77080  0.98360  0.17940  1.0000 0.1183584021
H   H15       1.0  0.07630  0.92980  0.20620  1.0000 0.1120453686
H   H16       1.0  0.11610  0.88900  0.14120  1.0000 0.1183584021
H   H17       1.0  0.78940  0.05360  0.20480  1.0000 0.1183584021
H   H18       1.0  0.75930  0.09510  0.26830  1.0000 0.1120453686
H   H19       1.0  0.99080  0.92520  0.29400  1.0000 0.1120453686
H   H20       1.0  0.96750  0.95800  0.45440  1.0000 0.1183584021
H   H21       1.0  0.16740  0.93630  0.32610  1.0000 0.1278242837
H   H22       1.0  0.96860  0.85410  0.46110  1.0000 0.1183584021
H   H23       1.0  0.29840  0.85770  0.34790  1.0000 0.1278242837
H   H24       1.0  0.09680  0.77740  0.47940  1.0000 0.1183584021
H   H25       1.0  0.48450  0.02860  0.38940  1.0000 0.0939689346
H   H26       1.0  0.45260  0.09040  0.39040  1.0000 0.0796599808
H   H27       1.0  0.41520  0.09170  0.30750  1.0000 0.1464032247
H   H28       1.0  0.50560  0.12920  0.29200  1.0000 0.1376080359
H   H29       1.0  0.53760  0.06760  0.29100  1.0000 0.1376080359
H   H30       1.0  0.88060  0.98220  0.51800  1.0000 0.0939689346
H   H31       1.0  0.83230  0.03600  0.53480  1.0000 0.1000697925
H   H32       1.0  0.01190  0.01760  0.52560  1.0000 0.1183584021
H   H33       1.0  0.01860  0.02480  0.46220  1.0000 0.1183584021
H   H34       1.0  0.97120  0.07730  0.48030  1.0000 0.1278242837
H   H35       1.0  0.33460  0.86690  0.77170  1.0000 0.1183584021
H   H36       1.0  0.20930  0.86770  0.85110  1.0000 0.1376080359
H   H37       1.0  0.43140  0.76770  0.94810  1.0000 0.1120453686
H   H38       1.0  0.55630  0.77820  0.86660  1.0000 0.1120453686
H   H39       1.0  0.45150  0.82810  0.70990  1.0000 0.1183584021
H   H40       1.0  0.65280  0.83550  0.79450  1.0000 0.1120453686
H   H41       1.0  0.57960  0.83850  0.63010  1.0000 0.1183584021
H   H42       1.0  0.84860  0.79150  0.81770  1.0000 0.1120453686
H   H43       1.0  0.88500  0.81460  0.88660  1.0000 0.1120453686
H   H44       1.0  0.89540  0.97440  0.77560  1.0000 0.1120453686
H   H45       1.0  0.85890  0.95140  0.70680  1.0000 0.1183584021
H   H46       1.0  0.96590  0.87600  0.66140  1.0000 0.1278242837
H   H47       1.0  0.13950  0.61380  0.44080  1.0000 0.1376080359
H   H48       1.0  0.06620  0.67940  0.48360  1.0000 0.1183584021
H   H49       1.0  0.78770  0.70620  0.42980  1.0000 0.1120453686
H   H50       1.0  0.85370  0.64120  0.38900  1.0000 0.1183584021
H   H51       1.0  0.95220  0.70480  0.55360  1.0000 0.1183584021
H   H52       1.0  0.87730  0.76830  0.59510  1.0000 0.1120453686
H   H53       1.0  0.79000  0.79400  0.42520  1.0000 0.1120453686
H   H54       1.0  0.62010  0.95440  0.45800  1.0000 0.1183584021
H   H55       1.0  0.57020  0.82610  0.43630  1.0000 0.1278242837
H   H56       1.0  0.71620  0.96110  0.35410  1.0000 0.1183584021
H   H57       1.0  0.49600  0.84790  0.35770  1.0000 0.1278242837
H   H58       1.0  0.64640  0.97940  0.27740  1.0000 0.1183584021
H   H59       1.0  0.09750  0.88940  0.52860  1.0000 0.0939689346
H   H60       1.0  0.06660  0.89040  0.59040  1.0000 0.0796599808
H   H61       1.0  0.18560  0.80750  0.59170  1.0000 0.1464032247
H   H62       1.0  0.07320  0.79200  0.62920  1.0000 0.1376080359
H   H63       1.0  0.10380  0.79100  0.56760  1.0000 0.1376080359
H   H64       1.0  0.61920  0.01800  0.48220  1.0000 0.0939689346
H   H65       1.0  0.59690  0.03480  0.53600  1.0000 0.1000697925
H   H66       1.0  0.44490  0.02560  0.51760  1.0000 0.1183584021
H   H67       1.0  0.49440  0.96220  0.52480  1.0000 0.1183584021
H   H68       1.0  0.47120  0.98030  0.57730  1.0000 0.1278242837
H   H69       1.0  0.47320  0.63310  0.72830  1.0000 0.1183584021
H   H70       1.0  0.42810  0.63230  0.64890  1.0000 0.1376080359
H   H71       1.0  0.64720  0.73230  0.55190  1.0000 0.1120453686
H   H72       1.0  0.70110  0.72180  0.63340  1.0000 0.1120453686
H   H73       1.0  0.48950  0.67190  0.79010  1.0000 0.1183584021
H   H74       1.0  0.78280  0.66450  0.70550  1.0000 0.1120453686
H   H75       1.0  0.54820  0.66150  0.86990  1.0000 0.1183584021
H   H76       1.0  0.95780  0.70850  0.68230  1.0000 0.1120453686
H   H77       1.0  0.08620  0.68540  0.61340  1.0000 0.1120453686
H   H78       1.0  0.14540  0.52560  0.72440  1.0000 0.1120453686
H   H79       1.0  0.01710  0.54860  0.79320  1.0000 0.1183584021
H   H80       1.0  0.00330  0.62400  0.83860  1.0000 0.1278242837
H   H81       1.0  0.69410  0.88620  0.05920  1.0000 0.1376080359
H   H82       1.0  0.72920  0.82060  0.01640  1.0000 0.1183584021
H   H83       1.0  0.42370  0.79380  0.07020  1.0000 0.1120453686
H   H84       1.0  0.38390  0.85880  0.11100  1.0000 0.1183584021
H   H85       1.0  0.71060  0.79520  0.94640  1.0000 0.1183584021
H   H86       1.0  0.74070  0.73170  0.90490  1.0000 0.1120453686
H   H87       1.0  0.50920  0.70600  0.07480  1.0000 0.1120453686
H   H88       1.0  0.53250  0.54560  0.04200  1.0000 0.1183584021
H   H89       1.0  0.33260  0.67390  0.06370  1.0000 0.1278242837
H   H90       1.0  0.53140  0.53890  0.14590  1.0000 0.1183584021
H   H91       1.0  0.20160  0.65210  0.14230  1.0000 0.1278242837
H   H92       1.0  0.40320  0.52060  0.22260  1.0000 0.1183584021
H   H93       1.0  0.01550  0.61060  0.97140  1.0000 0.1000697925
H   H94       1.0  0.04740  0.60960  0.90960  1.0000 0.0796599808
H   H95       1.0  0.08480  0.69250  0.90830  1.0000 0.1464032247
H   H96       1.0  0.99440  0.70800  0.87080  1.0000 0.1376080359
H   H97       1.0  0.96240  0.70900  0.93240  1.0000 0.1376080359
H   H98       1.0  0.61940  0.48200  0.01780  1.0000 0.0939689346
H   H99       1.0  0.66770  0.46520  0.96400  1.0000 0.1000697925
H   H100      1.0  0.48810  0.47440  0.98240  1.0000 0.1183584021
H   H101      1.0  0.48140  0.53780  0.97520  1.0000 0.1183584021
H   H102      1.0  0.52880  0.51970  0.92270  1.0000 0.1278242837
H   H103      1.0  0.16540  0.22830  0.13310  1.0000 0.1183584021
H   H104      1.0  0.29070  0.14890  0.13230  1.0000 0.1376080359
H   H105      1.0  0.06860  0.05190  0.23230  1.0000 0.1120453686
H   H106      1.0  0.94370  0.13340  0.22180  1.0000 0.1120453686
H   H107      1.0  0.04850  0.29010  0.17190  1.0000 0.1183584021
H   H108      1.0  0.84720  0.20550  0.16450  1.0000 0.1120453686
H   H109      1.0  0.92040  0.36990  0.16150  1.0000 0.1120453686
H   H110      1.0  0.65140  0.18230  0.20850  1.0000 0.1120453686
H   H111      1.0  0.61500  0.11340  0.18540  1.0000 0.1120453686
H   H112      1.0  0.60460  0.22440  0.02560  1.0000 0.1120453686
H   H113      1.0  0.64110  0.29320  0.04860  1.0000 0.1183584021
H   H114      1.0  0.53410  0.33860  0.12400  1.0000 0.1278242837
H   H115      1.0  0.36050  0.55920  0.38620  1.0000 0.1376080359
H   H116      1.0  0.43380  0.51640  0.32060  1.0000 0.1183584021
H   H117      1.0  0.71230  0.57020  0.29380  1.0000 0.1120453686
H   H118      1.0  0.64630  0.61100  0.35880  1.0000 0.1183584021
H   H119      1.0  0.54780  0.44640  0.29520  1.0000 0.1183584021
H   H120      1.0  0.62270  0.40490  0.23170  1.0000 0.1120453686
H   H121      1.0  0.71000  0.57480  0.20600  1.0000 0.1120453686
H   H122      1.0  0.87990  0.54200  0.04560  1.0000 0.1183584021
H   H123      1.0  0.92980  0.56370  0.17390  1.0000 0.1278242837
H   H124      1.0  0.78380  0.64590  0.03890  1.0000 0.1183584021
H   H125      1.0  0.00400  0.64230  0.15210  1.0000 0.1278242837
H   H126      1.0  0.85360  0.72260  0.02060  1.0000 0.1183584021
H   H127      1.0  0.40250  0.47140  0.11060  1.0000 0.0939689346
H   H128      1.0  0.43340  0.40960  0.10960  1.0000 0.0796599808
H   H129      1.0  0.31440  0.40830  0.19250  1.0000 0.1464032247
H   H130      1.0  0.42680  0.37080  0.20800  1.0000 0.1376080359
H   H131      1.0  0.39620  0.43240  0.20900  1.0000 0.1376080359
H   H132      1.0  0.88080  0.51780  0.98200  1.0000 0.0939689346
H   H133      1.0  0.90310  0.46400  0.96520  1.0000 0.1000697925
H   H134      1.0  0.05510  0.48240  0.97440  1.0000 0.1183584021
H   H135      1.0  0.00560  0.47520  0.03780  1.0000 0.1183584021
H   H136      1.0  0.02880  0.42270  0.01970  1.0000 0.1278242837
C   C1        1.0  0.90743  0.31107  0.32387  1.0000 0.0796599808
C   C2        1.0  0.98810  0.30760  0.34840  1.0000 -0.1492338143
C   C3        1.0  0.01750  0.35520  0.34760  1.0000 -0.0823982568
C   C4        1.0  0.96708  0.40792  0.31812  1.0000 -0.0354079851
C   C5        1.0  0.88675  0.41245  0.29005  1.0000 -0.0901554888
C   C6        1.0  0.85711  0.36349  0.29529  1.0000 -0.1612219052
C   C7        1.0  0.86961  0.26029  0.32989  1.0000 0.0796599808
C   C8        1.0  0.93597  0.21093  0.33193  1.0000 -0.1672516675
C   C9        1.0  0.76487  0.26083  0.33703  1.0000 -0.1977780354
C   C10       1.0  0.72173  0.21237  0.34697  1.0000 0.0328875561
C   C11       1.0  0.90192  0.16248  0.33928  1.0000 -0.1388881798
C   C12       1.0  0.79096  0.16264  0.34804  1.0000 0.0412993342
C   C13       1.0  0.60362  0.20788  0.36108  1.0000 0.0543631515
C   C14       1.0  0.52456  0.25574  0.36934  1.0000 0.0720987483
C   C15       1.0  0.50409  0.30921  0.32861  1.0000 -0.1672516675
C   C16       1.0  0.42790  0.35010  0.34230  1.0000 -0.1208621585
C   C17       1.0  0.37218  0.33762  0.39662  1.0000 -0.0001914953
C   C18       1.0  0.39265  0.28415  0.43735  1.0000 -0.0901554888
C   C19       1.0  0.46880  0.24330  0.42370  1.0000 -0.1492338143
C   C20       1.0  0.57120  0.16230  0.36830  1.0000 -0.2612160952
C   C21       1.0  0.64616  0.11294  0.36494  1.0000 0.2213456496
C   C22       1.0  0.75321  0.11299  0.35699  1.0000 -0.0901554888
C   C23       1.0  0.86083  0.93897  0.13237  1.0000 -0.0901554888
C   C24       1.0  0.96346  0.91114  0.12154  1.0000 -0.0076985013
C   C25       1.0  0.84033  0.96427  0.17147  1.0000 -0.1388881798
C   C26       1.0  0.92028  0.96132  0.19872  1.0000 0.0720987483
C   C27       1.0  0.02197  0.93233  0.18693  1.0000 -0.1492338143
C   C28       1.0  0.04595  0.90785  0.14905  1.0000 -0.105480066
C   C29       1.0  0.89847  0.98593  0.24293  1.0000 0.0796599808
C   C30       1.0  0.82530  0.03630  0.23630  1.0000 -0.1492338143
C   C31       1.0  0.80543  0.06017  0.27477  1.0000 -0.1388881798
C   C32       1.0  0.94500  0.96010  0.28890  1.0000 -0.189626087
C   C33       1.0  0.92751  0.98369  0.33089  1.0000 0.0190346683
C   C34       1.0  0.85070  0.03480  0.32320  1.0000 0.0328875561
C   C35       1.0  0.82484  0.05766  0.36506  1.0000 -0.0708201588
C   C36       1.0  0.87373  0.02847  0.41347  1.0000 0.202631609
C   C37       1.0  0.94122  0.97838  0.41998  1.0000 -0.2692850069
C   C38       1.0  0.97211  0.95679  0.37959  1.0000 0.0328875561
C   C39       1.0  0.05329  0.90471  0.39011  1.0000 0.0796599808
C   C40       1.0  0.15179  0.90381  0.35821  1.0000 -0.1492338143
C   C41       1.0  0.03568  0.85542  0.43702  1.0000 -0.1388881798
C   C42       1.0  0.23056  0.85654  0.37134  1.0000 -0.0951387198
C   C43       1.0  0.11166  0.81054  0.44814  1.0000 -0.105480066
C   C44       1.0  0.21413  0.81087  0.41467  1.0000 -0.016953283
C   C45       1.0  0.50230  0.06700  0.37100  1.0000 0.0190346683
C   C46       1.0  0.48900  0.09100  0.31000  1.0000 -0.4309936226
C   C47       1.0  0.87739  0.02321  0.50521  1.0000 -0.0076985013
C   C48       1.0  0.97670  0.03660  0.49240  1.0000 -0.398297994
C   C49       1.0  0.30042  0.75948  0.43088  1.0000 0.5974887027
C   C50       1.0  0.98930  0.88630  0.07550  1.0000 0.5844074502
C   C51       1.0  0.00113  0.45857  0.31597  1.0000 0.5974887027
C   C52       1.0  0.30070  0.39000  0.40780  1.0000 0.5430766209
C   C53       1.0  0.45763  0.82387  0.81107  1.0000 0.0796599808
C   C54       1.0  0.35590  0.84840  0.80760  1.0000 -0.1492338143
C   C55       1.0  0.27970  0.84760  0.85520  1.0000 -0.0823982568
C   C56       1.0  0.30688  0.81812  0.90792  1.0000 -0.0354079851
C   C57       1.0  0.41075  0.79005  0.91245  1.0000 -0.0901554888
C   C58       1.0  0.48411  0.79529  0.86349  1.0000 -0.1612219052
C   C59       1.0  0.54021  0.82989  0.76029  1.0000 0.0796599808
C   C60       1.0  0.52117  0.83193  0.71093  1.0000 -0.1672516675
C   C61       1.0  0.63727  0.83703  0.76083  1.0000 -0.1977780354
C   C62       1.0  0.71893  0.84697  0.71237  1.0000 0.0328875561
C   C63       1.0  0.59632  0.83928  0.66248  1.0000 -0.1388881798
C   C64       1.0  0.69836  0.84804  0.66264  1.0000 0.0412993342
C   C65       1.0  0.82742  0.86108  0.70788  1.0000 0.0543631515
C   C66       1.0  0.85036  0.86934  0.75574  1.0000 0.0720987483
C   C67       1.0  0.85809  0.82861  0.80921  1.0000 -0.1672516675
C   C68       1.0  0.87970  0.84230  0.85010  1.0000 -0.1208621585
C   C69       1.0  0.89358  0.89662  0.83762  1.0000 0.0006566281
C   C70       1.0  0.88585  0.93735  0.78415  1.0000 -0.0901554888
C   C71       1.0  0.86420  0.92370  0.74330  1.0000 -0.1492338143
C   C72       1.0  0.89820  0.86830  0.66230  1.0000 -0.2612160952
C   C73       1.0  0.87596  0.86494  0.61294  1.0000 0.2213456496
C   C74       1.0  0.77681  0.85699  0.61299  1.0000 -0.0901554888
C   C75       1.0  0.06783  0.63237  0.43897  1.0000 -0.0901554888
C   C76       1.0  0.00386  0.62154  0.41114  1.0000 -0.0076985013
C   C77       1.0  0.02393  0.67147  0.46427  1.0000 -0.1388881798
C   C78       1.0  0.91968  0.69872  0.46132  1.0000 0.0720987483
C   C79       1.0  0.85877  0.68693  0.43233  1.0000 -0.1492338143
C   C80       1.0  0.89715  0.64905  0.40785  1.0000 -0.105480066
C   C81       1.0  0.87267  0.74293  0.48593  1.0000 0.0796599808
C   C82       1.0  0.90210  0.73630  0.53630  1.0000 -0.1492338143
C   C83       1.0  0.85963  0.77477  0.56017  1.0000 -0.1388881798
C   C84       1.0  0.80600  0.78890  0.46010  1.0000 -0.189626087
C   C85       1.0  0.75791  0.83089  0.48369  1.0000 0.0190346683
C   C86       1.0  0.79130  0.82320  0.53480  1.0000 0.0328875561
C   C87       1.0  0.75244  0.86506  0.55766  1.0000 -0.0708201588
C   C88       1.0  0.68433  0.91347  0.52847  1.0000 0.202631609
C   C89       1.0  0.66042  0.91998  0.47838  1.0000 -0.2692850069
C   C90       1.0  0.69151  0.87959  0.45679  1.0000 0.0328875561
C   C91       1.0  0.65189  0.89011  0.40471  1.0000 0.0796599808
C   C92       1.0  0.58619  0.85821  0.40381  1.0000 -0.1492338143
C   C93       1.0  0.67188  0.93702  0.35542  1.0000 -0.1388881798
C   C94       1.0  0.54156  0.87134  0.35654  1.0000 -0.0901554888
C   C95       1.0  0.62966  0.94814  0.31054  1.0000 -0.105480066
C   C96       1.0  0.56033  0.91467  0.31087  1.0000 -0.016953283
C   C97       1.0  0.05970  0.87100  0.56700  1.0000 0.0190346683
C   C98       1.0  0.11000  0.81000  0.59100  1.0000 -0.4309936226
C   C99       1.0  0.59419  0.00521  0.52321  1.0000 -0.0076985013
C   C100      1.0  0.49430  0.99240  0.53660  1.0000 -0.398297994
C   C101      1.0  0.50922  0.93088  0.25948  1.0000 0.5974887027
C   C102      1.0  0.04890  0.57550  0.38630  1.0000 0.5844074502
C   C103      1.0  0.22433  0.81597  0.95857  1.0000 0.5974887027
C   C104      1.0  0.90150  0.90780  0.89000  1.0000 0.5430766209
C   C105      1.0  0.59257  0.67613  0.68893  1.0000 0.0796599808
C   C106      1.0  0.51190  0.65160  0.69240  1.0000 -0.1492338143
C   C107      1.0  0.48250  0.65240  0.64480  1.0000 -0.0823982568
C   C108      1.0  0.53292  0.68188  0.59208  1.0000 -0.0354079851
C   C109      1.0  0.61325  0.70995  0.58755  1.0000 -0.0901554888
C   C110      1.0  0.64289  0.70471  0.63651  1.0000 -0.1612219052
C   C111      1.0  0.63039  0.67011  0.73971  1.0000 0.0796599808
C   C112      1.0  0.56403  0.66807  0.78907  1.0000 -0.1672516675
C   C113      1.0  0.73513  0.66297  0.73917  1.0000 -0.1977780354
C   C114      1.0  0.77827  0.65303  0.78763  1.0000 0.0328875561
C   C115      1.0  0.59808  0.66072  0.83752  1.0000 -0.1388881798
C   C116      1.0  0.70904  0.65196  0.83736  1.0000 0.0412993342
C   C117      1.0  0.89638  0.63892  0.79212  1.0000 0.0543631515
C   C118      1.0  0.97544  0.63066  0.74426  1.0000 0.0720987483
C   C119      1.0  0.99591  0.67139  0.69079  1.0000 -0.1672516675
C   C120      1.0  0.07210  0.65770  0.64990  1.0000 -0.1208621585
C   C121      1.0  0.12782  0.60338  0.66238  1.0000 0.0006566281
C   C122      1.0  0.10735  0.56265  0.71585  1.0000 -0.0901554888
C   C123      1.0  0.03120  0.57630  0.75670  1.0000 -0.1492338143
C   C124      1.0  0.92880  0.63170  0.83770  1.0000 -0.2612160952
C   C125      1.0  0.85384  0.63506  0.88706  1.0000 0.2213456496
C   C126      1.0  0.74679  0.64301  0.88701  1.0000 -0.0901554888
C   C127      1.0  0.63917  0.86763  0.06103  1.0000 -0.0901554888
C   C128      1.0  0.53654  0.87846  0.08886  1.0000 -0.0076985013
C   C129      1.0  0.65967  0.82853  0.03573  1.0000 -0.1388881798
C   C130      1.0  0.57972  0.80128  0.03868  1.0000 0.0720987483
C   C131      1.0  0.47803  0.81307  0.06767  1.0000 -0.1388881798
C   C132      1.0  0.45405  0.85095  0.09215  1.0000 -0.105480066
C   C133      1.0  0.60153  0.75707  0.01407  1.0000 0.0796599808
C   C134      1.0  0.67470  0.76370  0.96370  1.0000 -0.1492338143
C   C135      1.0  0.69457  0.72523  0.93983  1.0000 -0.1347989873
C   C136      1.0  0.55500  0.71110  0.03990  1.0000 -0.189626087
C   C137      1.0  0.57249  0.66911  0.01631  1.0000 0.0190346683
C   C138      1.0  0.64930  0.67680  0.96520  1.0000 0.0328875561
C   C139      1.0  0.67516  0.63494  0.94234  1.0000 -0.0708201588
C   C140      1.0  0.62627  0.58653  0.97153  1.0000 0.202631609
C   C141      1.0  0.55878  0.58002  0.02162  1.0000 -0.2692850069
C   C142      1.0  0.52789  0.62041  0.04321  1.0000 0.0328875561
C   C143      1.0  0.44671  0.60989  0.09529  1.0000 0.0796599808
C   C144      1.0  0.34821  0.64179  0.09619  1.0000 -0.1492338143
C   C145      1.0  0.46432  0.56298  0.14458  1.0000 -0.1388881798
C   C146      1.0  0.26944  0.62866  0.14346  1.0000 -0.0951387198
C   C147      1.0  0.38834  0.55186  0.18946  1.0000 -0.105480066
C   C148      1.0  0.28587  0.58533  0.18913  1.0000 -0.016953283
C   C149      1.0  0.99770  0.62900  0.93300  1.0000 0.0190346683
C   C150      1.0  0.01100  0.69000  0.90900  1.0000 -0.4309936226
C   C151      1.0  0.62261  0.49479  0.97679  1.0000 -0.0076985013
C   C152      1.0  0.52330  0.50760  0.96340  1.0000 -0.398297994
C   C153      1.0  0.19958  0.56912  0.24052  1.0000 0.5974887027
C   C154      1.0  0.51070  0.92450  0.11370  1.0000 0.5844074502
C   C155      1.0  0.49887  0.68403  0.54143  1.0000 0.5974887027
C   C156      1.0  0.19930  0.59220  0.61000  1.0000 0.5430766209
C   C157      1.0  0.04237  0.18893  0.17613  1.0000 0.0796599808
C   C158      1.0  0.14410  0.19240  0.15160  1.0000 -0.1492338143
C   C159      1.0  0.22030  0.14480  0.15240  1.0000 -0.0823982568
C   C160      1.0  0.19312  0.09208  0.18188  1.0000 -0.0354079851
C   C161      1.0  0.08925  0.08755  0.20995  1.0000 -0.0901554888
C   C162      1.0  0.01589  0.13651  0.20471  1.0000 -0.1612219052
C   C163      1.0  0.95979  0.23971  0.17011  1.0000 0.0796599808
C   C164      1.0  0.97883  0.28907  0.16807  1.0000 -0.1672516675
C   C165      1.0  0.86273  0.23917  0.16297  1.0000 -0.1977780354
C   C166      1.0  0.78107  0.28763  0.15303  1.0000 0.0328875561
C   C167      1.0  0.90368  0.33752  0.16072  1.0000 -0.1388881798
C   C168      1.0  0.80164  0.33736  0.15196  1.0000 0.0412993342
C   C169      1.0  0.67258  0.29212  0.13892  1.0000 0.0543631515
C   C170      1.0  0.64964  0.24426  0.13066  1.0000 0.0720987483
C   C171      1.0  0.64191  0.19079  0.17139  1.0000 -0.1672516675
C   C172      1.0  0.62030  0.14990  0.15770  1.0000 -0.1208621585
C   C173      1.0  0.60642  0.16238  0.10338  1.0000 0.0006566281
C   C174      1.0  0.61415  0.21585  0.06265  1.0000 -0.0901554888
C   C175      1.0  0.63580  0.25670  0.07630  1.0000 -0.1492338143
C   C176      1.0  0.60180  0.33770  0.13170  1.0000 -0.2612160952
C   C177      1.0  0.62404  0.38706  0.13506  1.0000 0.2213456496
C   C178      1.0  0.72319  0.38701  0.14301  1.0000 -0.0901554888
C   C179      1.0  0.43217  0.56103  0.36763  1.0000 -0.0901554888
C   C180      1.0  0.49614  0.58886  0.37846  1.0000 -0.0076985013
C   C181      1.0  0.47607  0.53573  0.32853  1.0000 -0.1388881798
C   C182      1.0  0.58032  0.53868  0.30128  1.0000 0.0720987483
C   C183      1.0  0.64123  0.56767  0.31307  1.0000 -0.1492338143
C   C184      1.0  0.60285  0.59215  0.35095  1.0000 -0.105480066
C   C185      1.0  0.62733  0.51407  0.25707  1.0000 0.0796599808
C   C186      1.0  0.59790  0.46370  0.26370  1.0000 -0.1492338143
C   C187      1.0  0.64037  0.43983  0.22523  1.0000 -0.1388881798
C   C188      1.0  0.69400  0.53990  0.21110  1.0000 -0.189626087
C   C189      1.0  0.74209  0.51631  0.16911  1.0000 0.0190346683
C   C190      1.0  0.70870  0.46520  0.17680  1.0000 0.0328875561
C   C191      1.0  0.74756  0.44234  0.13494  1.0000 -0.0708201588
C   C192      1.0  0.81567  0.47153  0.08653  1.0000 0.202631609
C   C193      1.0  0.83958  0.52162  0.08002  1.0000 -0.2692850069
C   C194      1.0  0.80849  0.54321  0.12041  1.0000 0.0328875561
C   C195      1.0  0.84811  0.59529  0.10989  1.0000 0.0796599808
C   C196      1.0  0.91381  0.59619  0.14179  1.0000 -0.1492338143
C   C197      1.0  0.82812  0.64458  0.06298  1.0000 -0.1388881798
C   C198      1.0  0.95844  0.64346  0.12866  1.0000 -0.0951387198
C   C199      1.0  0.87034  0.68946  0.05186  1.0000 -0.105480066
C   C200      1.0  0.93967  0.68913  0.08533  1.0000 -0.016953283
C   C201      1.0  0.44030  0.43300  0.12900  1.0000 0.0190346683
C   C202      1.0  0.39000  0.40900  0.19000  1.0000 -0.4309936226
C   C203      1.0  0.90581  0.47679  0.99479  1.0000 -0.0076985013
C   C204      1.0  0.00570  0.46340  0.00760  1.0000 -0.398297994
C   C205      1.0  0.99078  0.74052  0.06912  1.0000 0.5974887027
C   C206      1.0  0.45110  0.61370  0.42450  1.0000 0.5844074502
C   C207      1.0  0.27567  0.04143  0.18403  1.0000 0.5974887027
C   C208      1.0  0.59850  0.11000  0.09220  1.0000 0.5430766209
O   O1        1.0  0.83707  0.05303  0.45243  1.0000 -0.1977780354
O   O2        1.0  0.61202  0.06538  0.37578  1.0000 -0.189626087
O   O3        1.0  0.39415  0.76692  0.40658  1.0000 -0.5536117689
O   O4        1.0  0.27069  0.71501  0.46661  1.0000 -0.5321705924
O   O5        1.0  0.94942  0.50478  0.29138  1.0000 -0.539061232
O   O6        1.0  0.07596  0.45084  0.34084  1.0000 -0.5321705924
O   O7        1.0  0.91700  0.89190  0.05010  1.0000 -0.4996476234
O   O8        1.0  0.08642  0.86128  0.06888  1.0000 -0.6286346303
O   O9        1.0  0.29030  0.43400  0.37300  1.0000 -0.4726869401
O   O10       1.0  0.21840  0.37010  0.45170  1.0000 -0.5862377421
O   O11       1.0  0.65747  0.95243  0.55303  1.0000 -0.1977780354
O   O12       1.0  0.94682  0.87578  0.56538  1.0000 -0.189626087
O   O13       1.0  0.43235  0.90658  0.26692  1.0000 -0.5536117689
O   O14       1.0  0.54769  0.96661  0.21501  1.0000 -0.5321705924
O   O15       1.0  0.25442  0.79138  0.00478  1.0000 -0.539061232
O   O16       1.0  0.13236  0.84084  0.95084  1.0000 -0.5321705924
O   O17       1.0  0.14100  0.55010  0.39190  1.0000 -0.4996476234
O   O18       1.0  0.98342  0.56888  0.36128  1.0000 -0.6286346303
O   O19       1.0  0.90270  0.87300  0.93400  1.0000 -0.4761381284
O   O20       1.0  0.95980  0.95170  0.87010  1.0000 -0.5862377421
O   O21       1.0  0.66293  0.54757  0.94697  1.0000 -0.1977780354
O   O22       1.0  0.88798  0.62422  0.93462  1.0000 -0.189626087
O   O23       1.0  0.10585  0.59342  0.23308  1.0000 -0.5536117689
O   O24       1.0  0.22931  0.53339  0.28499  1.0000 -0.5321705924
O   O25       1.0  0.55058  0.70862  0.49522  1.0000 -0.539061232
O   O26       1.0  0.42404  0.65916  0.54916  1.0000 -0.5321705924
O   O27       1.0  0.58300  0.94990  0.10810  1.0000 -0.4996476234
O   O28       1.0  0.41358  0.93112  0.13872  1.0000 -0.6286346303
O   O29       1.0  0.20970  0.62700  0.56600  1.0000 -0.4726869401
O   O30       1.0  0.28160  0.54830  0.62990  1.0000 -0.5862377421
O   O31       1.0  0.84253  0.44697  0.04757  1.0000 -0.1977780354
O   O32       1.0  0.55318  0.43462  0.12422  1.0000 -0.189626087
O   O33       1.0  0.06765  0.73308  0.09342  1.0000 -0.5536117689
O   O34       1.0  0.95231  0.78499  0.03339  1.0000 -0.5321705924
O   O35       1.0  0.24558  0.99522  0.20862  1.0000 -0.539061232
O   O36       1.0  0.36764  0.04916  0.15916  1.0000 -0.5321705924
O   O37       1.0  0.35900  0.60810  0.44990  1.0000 -0.4996476234
O   O38       1.0  0.51658  0.63872  0.43112  1.0000 -0.6286346303
O   O39       1.0  0.59730  0.06600  0.12700  1.0000 -0.4726869401
O   O40       1.0  0.54020  0.12990  0.04830  1.0000 -0.5862377421
