# DDEC6 charges by PACMAN v1.1 (https://github.com/mtap-research/PACMAN-charge/)
data_2010[LaPb][nan]3[ASR]1
_chemical_formula_sum              "La4 H32 Pb2 C32 O40"
_cell_length_a       13.4418
_cell_length_b       13.4418
_cell_length_c       13.4418
_cell_angle_alpha    117.283
_cell_angle_beta     117.283
_cell_angle_gamma    94.7747

_symmetry_space_group_name_H-M    "P 1"
_symmetry_Int_Tables_number       1

loop_
  _symmetry_equiv_pos_as_xyz
  'x, y, z'

loop_
  _atom_site_type_symbol
  _atom_site_label
  _atom_site_symmetry_multiplicity
  _atom_site_fract_x
  _atom_site_fract_y
  _atom_site_fract_z
  _atom_site_occupancy
  _atom_site_charge
La  La1       1.0  0.37500  0.13900  0.26400  1.0000 1.7912953144
La  La2       1.0  0.87500  0.11100  0.73600  1.0000 1.7912953144
La  La3       1.0  0.86100  0.12500  0.23600  1.0000 1.7912953144
La  La4       1.0  0.88900  0.62500  0.76400  1.0000 1.7912953144
H   H1        1.0  0.24420  0.81790  0.88510  1.0000 0.131862119
H   H2        1.0  0.93280  0.35910  0.11490  1.0000 0.131862119
H   H3        1.0  0.18210  0.06720  0.42630  1.0000 0.131862119
H   H4        1.0  0.64090  0.75580  0.57370  1.0000 0.131862119
H   H5        1.0  0.81720  0.43210  0.92630  1.0000 0.131862119
H   H6        1.0  0.50580  0.89090  0.07370  1.0000 0.131862119
H   H7        1.0  0.10910  0.18280  0.61490  1.0000 0.131862119
H   H8        1.0  0.56790  0.49420  0.38510  1.0000 0.131862119
H   H9        1.0  0.34590  0.89820  0.89610  1.0000 0.1219676828
H   H10       1.0  0.00210  0.44980  0.10390  1.0000 0.1219676828
H   H11       1.0  0.10180  0.99790  0.44770  1.0000 0.1219676828
H   H12       1.0  0.55020  0.65410  0.55230  1.0000 0.1219676828
H   H13       1.0  0.74790  0.35180  0.94770  1.0000 0.1219676828
H   H14       1.0  0.40410  0.80020  0.05230  1.0000 0.1219676828
H   H15       1.0  0.19980  0.25210  0.60390  1.0000 0.1219676828
H   H16       1.0  0.64820  0.59590  0.39610  1.0000 0.1219676828
H   H17       1.0  0.26480  0.42190  0.45230  1.0000 0.1422542726
H   H18       1.0  0.96960  0.81250  0.54770  1.0000 0.1422542726
H   H19       1.0  0.57810  0.03040  0.84290  1.0000 0.1422542726
H   H20       1.0  0.18750  0.73520  0.15710  1.0000 0.1422542726
H   H21       1.0  0.78040  0.82810  0.34290  1.0000 0.1422542726
H   H22       1.0  0.48520  0.43750  0.65710  1.0000 0.1422542726
H   H23       1.0  0.56250  0.21960  0.04770  1.0000 0.1422542726
H   H24       1.0  0.17190  0.51480  0.95230  1.0000 0.1422542726
H   H25       1.0  0.26890  0.35580  0.52410  1.0000 0.1219676828
H   H26       1.0  0.83170  0.74480  0.47590  1.0000 0.1219676828
H   H27       1.0  0.64420  0.16830  0.91310  1.0000 0.1219676828
H   H28       1.0  0.25520  0.73110  0.08690  1.0000 0.1219676828
H   H29       1.0  0.91830  0.89420  0.41310  1.0000 0.1219676828
H   H30       1.0  0.48110  0.50520  0.58690  1.0000 0.1219676828
H   H31       1.0  0.49480  0.08170  0.97590  1.0000 0.1219676828
H   H32       1.0  0.10580  0.51890  0.02410  1.0000 0.1219676828
Pb  Pb1       1.0  0.00000  0.00000  0.00000  1.0000 1.157230193
Pb  Pb2       1.0  0.75000  0.25000  0.50000  1.0000 1.157230193
C   C1        1.0  0.22660  0.97870  0.91690  1.0000 0.6057681983
C   C2        1.0  0.06180  0.30970  0.08310  1.0000 0.6057681983
C   C3        1.0  0.02130  0.93820  0.24790  1.0000 0.6057681983
C   C4        1.0  0.69030  0.77340  0.75210  1.0000 0.6057681983
C   C5        1.0  0.68820  0.27130  0.74790  1.0000 0.6057681983
C   C6        1.0  0.52340  0.94030  0.25210  1.0000 0.6057681983
C   C7        1.0  0.05970  0.31180  0.58310  1.0000 0.6057681983
C   C8        1.0  0.72870  0.47660  0.41690  1.0000 0.6057681983
C   C9        1.0  0.29840  0.89970  0.93310  1.0000 -0.1793067889
C   C10       1.0  0.96660  0.36530  0.06690  1.0000 -0.1793067889
C   C11       1.0  0.10030  0.03340  0.39870  1.0000 -0.1793067889
C   C12       1.0  0.63470  0.70160  0.60130  1.0000 -0.1793067889
C   C13       1.0  0.78340  0.35030  0.89870  1.0000 -0.1793067889
C   C14       1.0  0.45160  0.88470  0.10130  1.0000 -0.1793067889
C   C15       1.0  0.11530  0.21660  0.56690  1.0000 -0.1793067889
C   C16       1.0  0.64970  0.54840  0.43310  1.0000 -0.1793067889
C   C17       1.0  0.15930  0.24120  0.31670  1.0000 0.6313249861
C   C18       1.0  0.92450  0.84260  0.68330  1.0000 0.6313249861
C   C19       1.0  0.75880  0.07550  0.91810  1.0000 0.6313249861
C   C20       1.0  0.15740  0.84070  0.08190  1.0000 0.6313249861
C   C21       1.0  0.82550  0.00880  0.41810  1.0000 0.6313249861
C   C22       1.0  0.59070  0.40740  0.58190  1.0000 0.6313249861
C   C23       1.0  0.59260  0.17450  0.18330  1.0000 0.6313249861
C   C24       1.0  0.99120  0.40930  0.81670  1.0000 0.6313249861
C   C25       1.0  0.26870  0.34880  0.44890  1.0000 -0.1746681238
C   C26       1.0  0.89990  0.81980  0.55110  1.0000 -0.1793067889
C   C27       1.0  0.65120  0.10010  0.91990  1.0000 -0.1746681238
C   C28       1.0  0.18020  0.73130  0.08010  1.0000 -0.1793067889
C   C29       1.0  0.85010  0.90120  0.41990  1.0000 -0.1793067889
C   C30       1.0  0.48130  0.43020  0.58010  1.0000 -0.1746681238
C   C31       1.0  0.56980  0.14990  0.05110  1.0000 -0.1746681238
C   C32       1.0  0.09880  0.51870  0.94890  1.0000 -0.1746681238
O   O1        1.0  0.18130  0.97040  0.80930  1.0000 -0.5339187438
O   O2        1.0  0.16110  0.37200  0.19070  1.0000 -0.5339187438
O   O3        1.0  0.02960  0.83890  0.21090  1.0000 -0.5339187438
O   O4        1.0  0.62800  0.81870  0.78910  1.0000 -0.5339187438
O   O5        1.0  0.58890  0.27960  0.71090  1.0000 -0.5339187438
O   O6        1.0  0.56870  0.87800  0.28910  1.0000 -0.5339187438
O   O7        1.0  0.12200  0.41110  0.69070  1.0000 -0.5339187438
O   O8        1.0  0.72040  0.43130  0.30930  1.0000 -0.5339187438
O   O9        1.0  0.21550  0.04250  0.01260  1.0000 -0.6369327361
O   O10       1.0  0.02990  0.20290  0.98740  1.0000 -0.6369327361
O   O11       1.0  0.95750  0.97010  0.17300  1.0000 -0.6369327361
O   O12       1.0  0.79710  0.78450  0.82700  1.0000 -0.6369327361
O   O13       1.0  0.72010  0.20750  0.67300  1.0000 -0.6369327361
O   O14       1.0  0.53450  0.04710  0.32700  1.0000 -0.6369327361
O   O15       1.0  0.95290  0.27990  0.48740  1.0000 -0.6369327361
O   O16       1.0  0.79250  0.46550  0.51260  1.0000 -0.6369327361
O   O17       1.0  0.37500  0.94710  0.07210  1.0000 -0.2156786675
O   O18       1.0  0.87500  0.30290  0.92790  1.0000 -0.2094578584
O   O19       1.0  0.05290  0.12500  0.42790  1.0000 -0.2094578584
O   O20       1.0  0.69710  0.62500  0.57210  1.0000 -0.2094578584
O   O21       1.0  0.18090  0.16200  0.24070  1.0000 -0.6148716266
O   O22       1.0  0.92130  0.94020  0.75930  1.0000 -0.6157410348
O   O23       1.0  0.83800  0.07870  0.01890  1.0000 -0.6148716266
O   O24       1.0  0.05980  0.81910  0.98110  1.0000 -0.6157410348
O   O25       1.0  0.82870  0.08800  0.51890  1.0000 -0.6157410348
O   O26       1.0  0.56910  0.30980  0.48110  1.0000 -0.6148716266
O   O27       1.0  0.69020  0.17130  0.25930  1.0000 -0.6148716266
O   O28       1.0  0.91200  0.43090  0.74070  1.0000 -0.6157410348
O   O29       1.0  0.06040  0.24070  0.29610  1.0000 -0.5879924649
O   O30       1.0  0.94460  0.76430  0.70390  1.0000 -0.5879924649
O   O31       1.0  0.75930  0.05540  0.81970  1.0000 -0.5879924649
O   O32       1.0  0.23570  0.93960  0.18030  1.0000 -0.5879924649
O   O33       1.0  0.80540  0.00930  0.31970  1.0000 -0.5879924649
O   O34       1.0  0.68960  0.48570  0.68030  1.0000 -0.5879924649
O   O35       1.0  0.51430  0.19460  0.20390  1.0000 -0.5879924649
O   O36       1.0  0.99070  0.31040  0.79610  1.0000 -0.5879924649
O   O37       1.0  0.37500  0.33480  0.45980  1.0000 -0.2094578584
O   O38       1.0  0.87500  0.91520  0.54020  1.0000 -0.2094578584
O   O39       1.0  0.66520  0.12500  0.04020  1.0000 -0.2094578584
O   O40       1.0  0.08480  0.62500  0.95980  1.0000 -0.2094578584
