# DDEC6 charges by PACMAN v1.1 (https://github.com/mtap-research/PACMAN-charge/)
data_2010[Cd][nan]3[ASR]10
_chemical_formula_sum              "Cd8 H96 C96 N32 O32"
_cell_length_a       16.5526
_cell_length_b       16.5526
_cell_length_c       16.5526
_cell_angle_alpha    122.169
_cell_angle_beta     122.169
_cell_angle_gamma    86.2822

_symmetry_space_group_name_H-M    "P 1"
_symmetry_Int_Tables_number       1

loop_
  _symmetry_equiv_pos_as_xyz
  'x, y, z'

loop_
  _atom_site_type_symbol
  _atom_site_label
  _atom_site_symmetry_multiplicity
  _atom_site_fract_x
  _atom_site_fract_y
  _atom_site_fract_z
  _atom_site_occupancy
  _atom_site_charge
Cd  Cd1       1.0  0.96466  0.76629  0.54987  1.0000 0.8255907673
Cd  Cd2       1.0  0.21642  0.41479  0.45013  1.0000 0.8255907673
Cd  Cd3       1.0  0.23371  0.78358  0.19837  1.0000 0.8255907673
Cd  Cd4       1.0  0.58521  0.03534  0.80163  1.0000 0.8255907673
Cd  Cd5       1.0  0.53358  0.48371  0.69837  1.0000 0.8255907673
Cd  Cd6       1.0  0.78534  0.83521  0.30162  1.0000 0.8255907673
Cd  Cd7       1.0  0.16479  0.46642  0.95013  1.0000 0.8255907673
Cd  Cd8       1.0  0.51629  0.21466  0.04987  1.0000 0.8255907673
H   H1        1.0  0.33360  0.93940  0.62940  1.0000 0.1319079887
H   H2        1.0  0.31000  0.70420  0.37060  1.0000 0.1319079887
H   H3        1.0  0.06060  0.69000  0.39420  1.0000 0.1319079887
H   H4        1.0  0.29580  0.66640  0.60580  1.0000 0.1319079887
H   H5        1.0  0.44000  0.31060  0.89420  1.0000 0.1319079887
H   H6        1.0  0.41640  0.54580  0.10580  1.0000 0.1319079887
H   H7        1.0  0.45420  0.56000  0.87060  1.0000 0.1319079887
H   H8        1.0  0.68940  0.58360  0.12940  1.0000 0.1319079887
H   H9        1.0  0.23430  0.85150  0.64341  1.0000 0.1319079887
H   H10       1.0  0.20810  0.59090  0.35659  1.0000 0.1319079887
H   H11       1.0  0.14850  0.79190  0.38280  1.0000 0.1319079887
H   H12       1.0  0.40910  0.76570  0.61720  1.0000 0.1319079887
H   H13       1.0  0.54190  0.39850  0.88280  1.0000 0.1319079887
H   H14       1.0  0.51570  0.65910  0.11720  1.0000 0.1319079887
H   H15       1.0  0.34090  0.45810  0.85659  1.0000 0.1319079887
H   H16       1.0  0.60150  0.48430  0.14341  1.0000 0.1319079887
H   H17       1.0  0.39800  0.89140  0.93581  1.0000 0.0998970474
H   H18       1.0  0.95560  0.46220  0.06420  1.0000 0.0998970474
H   H19       1.0  0.10860  0.04440  0.50660  1.0000 0.0998970474
H   H20       1.0  0.53780  0.60200  0.49340  1.0000 0.0998970474
H   H21       1.0  0.79440  0.35860  0.00660  1.0000 0.0998970474
H   H22       1.0  0.35200  0.78780  0.99340  1.0000 0.0998970474
H   H23       1.0  0.21220  0.20560  0.56420  1.0000 0.0998970474
H   H24       1.0  0.64140  0.64800  0.43580  1.0000 0.0998970474
H   H25       1.0  0.31900  0.79520  0.80841  1.0000 0.1143281445
H   H26       1.0  0.98680  0.51060  0.19160  1.0000 0.1143281445
H   H27       1.0  0.20480  0.01320  0.52380  1.0000 0.1143281445
H   H28       1.0  0.48940  0.68100  0.47620  1.0000 0.1143281445
H   H29       1.0  0.76320  0.45480  0.02380  1.0000 0.1143281445
H   H30       1.0  0.43100  0.73940  0.97620  1.0000 0.1143281445
H   H31       1.0  0.26060  0.23680  0.69159  1.0000 0.1143281445
H   H32       1.0  0.54520  0.56900  0.30840  1.0000 0.1143281445
H   H33       1.0  0.26920  0.97170  0.90490  1.0000 0.1415449794
H   H34       1.0  0.06680  0.36430  0.09509  1.0000 0.1415449794
H   H35       1.0  0.02830  0.93320  0.29750  1.0000 0.1415449794
H   H36       1.0  0.63570  0.73080  0.70250  1.0000 0.1415449794
H   H37       1.0  0.68320  0.27830  0.79750  1.0000 0.1415449794
H   H38       1.0  0.48080  0.88570  0.20250  1.0000 0.1415449794
H   H39       1.0  0.11430  0.31680  0.59510  1.0000 0.1415449794
H   H40       1.0  0.72170  0.51920  0.40491  1.0000 0.1415449794
H   H41       1.0  0.25590  0.88990  0.92121  1.0000 0.1319079887
H   H42       1.0  0.96870  0.33470  0.07880  1.0000 0.1319079887
H   H43       1.0  0.11010  0.03130  0.36600  1.0000 0.1319079887
H   H44       1.0  0.66530  0.74410  0.63400  1.0000 0.1319079887
H   H45       1.0  0.78130  0.36010  0.86600  1.0000 0.1319079887
H   H46       1.0  0.49410  0.91530  0.13400  1.0000 0.1319079887
H   H47       1.0  0.08470  0.21870  0.57879  1.0000 0.1319079887
H   H48       1.0  0.63990  0.50590  0.42121  1.0000 0.1319079887
H   H49       1.0  0.71520  0.16690  0.23431  1.0000 0.1319079887
H   H50       1.0  0.93260  0.48090  0.76570  1.0000 0.1319079887
H   H51       1.0  0.83310  0.06740  0.54830  1.0000 0.1319079887
H   H52       1.0  0.51910  0.28480  0.45170  1.0000 0.1319079887
H   H53       1.0  0.81740  0.08310  0.04830  1.0000 0.1319079887
H   H54       1.0  0.03480  0.76910  0.95170  1.0000 0.1319079887
H   H55       1.0  0.23090  0.18260  0.26570  1.0000 0.1319079887
H   H56       1.0  0.91690  0.96520  0.73430  1.0000 0.1319079887
H   H57       1.0  0.72670  0.99930  0.17980  1.0000 0.1415449794
H   H58       1.0  0.81950  0.54690  0.82020  1.0000 0.1415449794
H   H59       1.0  0.00070  0.18050  0.72740  1.0000 0.1415449794
H   H60       1.0  0.45310  0.27330  0.27260  1.0000 0.1415449794
H   H61       1.0  0.93050  0.25070  0.22740  1.0000 0.1415449794
H   H62       1.0  0.02330  0.70310  0.77260  1.0000 0.1415449794
H   H63       1.0  0.29690  0.06950  0.32020  1.0000 0.1415449794
H   H64       1.0  0.74930  0.97670  0.67980  1.0000 0.1415449794
H   H65       1.0  0.50850  0.80940  0.87011  1.0000 0.0998970474
H   H66       1.0  0.93930  0.63840  0.12990  1.0000 0.0998970474
H   H67       1.0  0.19060  0.06070  0.69910  1.0000 0.0998970474
H   H68       1.0  0.36160  0.49150  0.30090  1.0000 0.0998970474
H   H69       1.0  0.81070  0.44060  0.19910  1.0000 0.0998970474
H   H70       1.0  0.24150  0.61160  0.80090  1.0000 0.0998970474
H   H71       1.0  0.38840  0.18930  0.62989  1.0000 0.0998970474
H   H72       1.0  0.55940  0.75850  0.37011  1.0000 0.0998970474
H   H73       1.0  0.56940  0.81450  0.98531  1.0000 0.1184422228
H   H74       1.0  0.82920  0.58410  0.01469  1.0000 0.1184422228
H   H75       1.0  0.18550  0.17080  0.75490  1.0000 0.1184422228
H   H76       1.0  0.41590  0.43060  0.24510  1.0000 0.1184422228
H   H77       1.0  0.92080  0.43550  0.25490  1.0000 0.1184422228
H   H78       1.0  0.18060  0.66590  0.74510  1.0000 0.1184422228
H   H79       1.0  0.33410  0.07920  0.51470  1.0000 0.1184422228
H   H80       1.0  0.56450  0.81940  0.48530  1.0000 0.1184422228
H   H81       1.0  0.71240  0.82210  0.99351  1.0000 0.1415449794
H   H82       1.0  0.82860  0.71890  0.00650  1.0000 0.1415449794
H   H83       1.0  0.17790  0.17140  0.89030  1.0000 0.1415449794
H   H84       1.0  0.28110  0.28760  0.10970  1.0000 0.1415449794
H   H85       1.0  0.92140  0.42790  0.39030  1.0000 0.1415449794
H   H86       1.0  0.03760  0.53110  0.60970  1.0000 0.1415449794
H   H87       1.0  0.46890  0.07860  0.50650  1.0000 0.1415449794
H   H88       1.0  0.57210  0.96240  0.49351  1.0000 0.1415449794
H   H89       1.0  0.65790  0.82800  0.88590  1.0000 0.1415449794
H   H90       1.0  0.94210  0.77200  0.11410  1.0000 0.1415449794
H   H91       1.0  0.17200  0.05790  0.82990  1.0000 0.1415449794
H   H92       1.0  0.22800  0.34210  0.17010  1.0000 0.1415449794
H   H93       1.0  0.80790  0.42200  0.32990  1.0000 0.1415449794
H   H94       1.0  0.09210  0.47800  0.67010  1.0000 0.1415449794
H   H95       1.0  0.52200  0.19210  0.61409  1.0000 0.1415449794
H   H96       1.0  0.57800  0.90790  0.38590  1.0000 0.1415449794
C   C1        1.0  0.45607  0.96067  0.86120  1.0000 0.151686027
C   C2        1.0  0.09947  0.59487  0.13880  1.0000 0.151686027
C   C3        1.0  0.03933  0.90053  0.49540  1.0000 0.151686027
C   C4        1.0  0.40513  0.54393  0.50460  1.0000 0.151686027
C   C5        1.0  0.65053  0.28933  0.99540  1.0000 0.151686027
C   C6        1.0  0.29393  0.65513  0.00460  1.0000 0.151686027
C   C7        1.0  0.34487  0.34947  0.63880  1.0000 0.151686027
C   C8        1.0  0.71067  0.70607  0.36120  1.0000 0.151686027
C   C9        1.0  0.35722  0.93672  0.69271  1.0000 -0.0245932877
C   C10       1.0  0.24402  0.66452  0.30729  1.0000 -0.0245932877
C   C11       1.0  0.06328  0.75598  0.42050  1.0000 -0.0250449289
C   C12       1.0  0.33548  0.64278  0.57950  1.0000 -0.0250449289
C   C13       1.0  0.50598  0.31328  0.92050  1.0000 -0.0250449289
C   C14       1.0  0.39278  0.58548  0.07950  1.0000 -0.0245932877
C   C15       1.0  0.41452  0.49402  0.80730  1.0000 -0.0250449289
C   C16       1.0  0.68672  0.60722  0.19271  1.0000 -0.0245932877
C   C17       1.0  0.30170  0.88850  0.70020  1.0000 -0.1074255105
C   C18       1.0  0.18830  0.60150  0.29979  1.0000 -0.1074255105
C   C19       1.0  0.11150  0.81170  0.41320  1.0000 -0.1074255105
C   C20       1.0  0.39850  0.69830  0.58680  1.0000 -0.1074255105
C   C21       1.0  0.56170  0.36150  0.91320  1.0000 -0.1074255105
C   C22       1.0  0.44830  0.64850  0.08680  1.0000 -0.1074255105
C   C23       1.0  0.35150  0.43830  0.79980  1.0000 -0.1074255105
C   C24       1.0  0.63850  0.55170  0.20020  1.0000 -0.1074255105
C   C25       1.0  0.33870  0.86780  0.85811  1.0000 -0.0685307744
C   C26       1.0  0.00970  0.48060  0.14189  1.0000 -0.0685307744
C   C27       1.0  0.13220  0.99030  0.47090  1.0000 -0.0685307744
C   C28       1.0  0.51940  0.66130  0.52910  1.0000 -0.0685307744
C   C29       1.0  0.74030  0.38220  0.97090  1.0000 -0.0685307744
C   C30       1.0  0.41130  0.76940  0.02910  1.0000 -0.0685307744
C   C31       1.0  0.23060  0.25970  0.64189  1.0000 -0.0685307744
C   C32       1.0  0.61780  0.58870  0.35811  1.0000 -0.0685307744
C   C33       1.0  0.25527  0.90037  0.86850  1.0000 -0.3453668651
C   C34       1.0  0.03187  0.38677  0.13150  1.0000 -0.3447179493
C   C35       1.0  0.09963  0.96813  0.35490  1.0000 -0.3453668651
C   C36       1.0  0.61323  0.74473  0.64510  1.0000 -0.3453668651
C   C37       1.0  0.71813  0.34963  0.85490  1.0000 -0.3447179493
C   C38       1.0  0.49473  0.86323  0.14510  1.0000 -0.3453668651
C   C39       1.0  0.13677  0.28187  0.63150  1.0000 -0.3453668651
C   C40       1.0  0.65037  0.50527  0.36851  1.0000 -0.3453668651
C   C41       1.0  0.15081  0.84691  0.75291  1.0000 0.58944108
C   C42       1.0  0.09401  0.39791  0.24710  1.0000 0.58944108
C   C43       1.0  0.15309  0.90599  0.30390  1.0000 0.58944108
C   C44       1.0  0.60209  0.84919  0.69610  1.0000 0.58944108
C   C45       1.0  0.65599  0.40309  0.80390  1.0000 0.58944108
C   C46       1.0  0.59919  0.85209  0.19610  1.0000 0.58944108
C   C47       1.0  0.14791  0.34401  0.74710  1.0000 0.58944108
C   C48       1.0  0.59691  0.40081  0.25290  1.0000 0.58944108
C   C49       1.0  0.54479  0.00109  0.98011  1.0000 0.151686027
C   C50       1.0  0.02099  0.56469  0.01989  1.0000 0.151686027
C   C51       1.0  0.99891  0.97901  0.54370  1.0000 0.1553067568
C   C52       1.0  0.43531  0.45521  0.45630  1.0000 0.151686027
C   C53       1.0  0.72901  0.24891  0.04370  1.0000 0.151686027
C   C54       1.0  0.20521  0.68531  0.95630  1.0000 0.1553067568
C   C55       1.0  0.31469  0.27099  0.51989  1.0000 0.151686027
C   C56       1.0  0.75109  0.79479  0.48011  1.0000 0.151686027
C   C57       1.0  0.67030  0.10690  0.16081  1.0000 -0.0250449289
C   C58       1.0  0.94610  0.50950  0.83920  1.0000 -0.0245932877
C   C59       1.0  0.89310  0.05390  0.56340  1.0000 -0.0250449289
C   C60       1.0  0.49050  0.32970  0.43660  1.0000 -0.0250449289
C   C61       1.0  0.80390  0.14310  0.06340  1.0000 -0.0250449289
C   C62       1.0  0.07970  0.74050  0.93660  1.0000 -0.0250449289
C   C63       1.0  0.25950  0.19610  0.33920  1.0000 -0.0250449289
C   C64       1.0  0.85690  0.92030  0.66080  1.0000 -0.0250449289
C   C65       1.0  0.67730  0.01420  0.13110  1.0000 -0.0858769199
C   C66       1.0  0.88310  0.54620  0.86889  1.0000 -0.0858769199
C   C67       1.0  0.98580  0.11690  0.66310  1.0000 -0.0858769199
C   C68       1.0  0.45380  0.32270  0.33690  1.0000 -0.0858769199
C   C69       1.0  0.86690  0.23580  0.16310  1.0000 -0.0858769199
C   C70       1.0  0.07270  0.70380  0.83690  1.0000 -0.0858769199
C   C71       1.0  0.29620  0.13310  0.36890  1.0000 -0.0858769199
C   C72       1.0  0.76420  0.92730  0.63111  1.0000 -0.0858769199
C   C73       1.0  0.57385  0.83795  0.94471  1.0000 -0.0802506373
C   C74       1.0  0.89325  0.62915  0.05529  1.0000 -0.0802506373
C   C75       1.0  0.16205  0.10675  0.73590  1.0000 -0.0802506373
C   C76       1.0  0.37085  0.42615  0.26410  1.0000 -0.0802506373
C   C77       1.0  0.85675  0.41205  0.23590  1.0000 -0.0802506373
C   C78       1.0  0.17615  0.62085  0.76410  1.0000 -0.0802506373
C   C79       1.0  0.37915  0.14325  0.55529  1.0000 -0.0802506373
C   C80       1.0  0.58795  0.82385  0.44470  1.0000 -0.0802506373
C   C81       1.0  0.64845  0.80015  0.92010  1.0000 -0.3292992484
C   C82       1.0  0.88005  0.72835  0.07989  1.0000 -0.3292992484
C   C83       1.0  0.19985  0.11995  0.84830  1.0000 -0.3292992484
C   C84       1.0  0.27165  0.35155  0.15170  1.0000 -0.3292992484
C   C85       1.0  0.86995  0.44985  0.34830  1.0000 -0.3292992484
C   C86       1.0  0.10155  0.52165  0.65170  1.0000 -0.3292992484
C   C87       1.0  0.47835  0.13005  0.57990  1.0000 -0.3292992484
C   C88       1.0  0.55015  0.89845  0.42011  1.0000 -0.3292992484
C   C89       1.0  0.61257  0.68567  0.83510  1.0000 0.58944108
C   C90       1.0  0.85057  0.77747  0.16490  1.0000 0.58944108
C   C91       1.0  0.31433  0.14943  0.92690  1.0000 0.58944108
C   C92       1.0  0.22253  0.38743  0.07310  1.0000 0.58944108
C   C93       1.0  0.89943  0.56433  0.42690  1.0000 0.58944108
C   C94       1.0  0.13743  0.47253  0.57310  1.0000 0.58944108
C   C95       1.0  0.52747  0.10057  0.66490  1.0000 0.58944108
C   C96       1.0  0.43567  0.86257  0.33510  1.0000 0.58944108
N   N1        1.0  0.45462  0.98142  0.79340  1.0000 -0.3292992484
N   N2        1.0  0.18802  0.66122  0.20660  1.0000 -0.3292992484
N   N3        1.0  0.01858  0.81198  0.47320  1.0000 -0.3292992484
N   N4        1.0  0.33878  0.54538  0.52680  1.0000 -0.3292992484
N   N5        1.0  0.56198  0.26858  0.97320  1.0000 -0.3292992484
N   N6        1.0  0.29538  0.58878  0.02680  1.0000 -0.3292992484
N   N7        1.0  0.41122  0.43802  0.70659  1.0000 -0.3292992484
N   N8        1.0  0.73142  0.70462  0.29341  1.0000 -0.3292992484
N   N9        1.0  0.36415  0.90488  0.80848  1.0000 0.0189850364
N   N10       1.0  0.09641  0.55568  0.19153  1.0000 0.0189850364
N   N11       1.0  0.09512  0.90359  0.45927  1.0000 0.0189850364
N   N12       1.0  0.44432  0.63585  0.54073  1.0000 0.0189850364
N   N13       1.0  0.65359  0.34512  0.95927  1.0000 0.0189850364
N   N14       1.0  0.38585  0.69432  0.04073  1.0000 0.0189850364
N   N15       1.0  0.30568  0.34641  0.69152  1.0000 0.0189850364
N   N16       1.0  0.65488  0.61415  0.30847  1.0000 0.0189850364
N   N17       1.0  0.58694  0.09824  0.06570  1.0000 -0.3228006062
N   N18       1.0  0.03254  0.52124  0.93429  1.0000 -0.3228006062
N   N19       1.0  0.90176  0.96746  0.48870  1.0000 -0.3228006062
N   N20       1.0  0.47876  0.41306  0.51130  1.0000 -0.3228006062
N   N21       1.0  0.71746  0.15176  0.98870  1.0000 -0.3228006062
N   N22       1.0  0.16306  0.72876  0.01130  1.0000 -0.3228006062
N   N23       1.0  0.27124  0.28254  0.43429  1.0000 -0.3228006062
N   N24       1.0  0.84824  0.83694  0.56571  1.0000 -0.3228006062
N   N25       1.0  0.59801  0.94741  0.01621  1.0000 0.0275299068
N   N26       1.0  0.93121  0.58181  0.98379  1.0000 0.0275299068
N   N27       1.0  0.05259  0.06879  0.65060  1.0000 0.0275299068
N   N28       1.0  0.41819  0.40199  0.34940  1.0000 0.0275299068
N   N29       1.0  0.81879  0.30259  0.15060  1.0000 0.0275299068
N   N30       1.0  0.15199  0.66819  0.84940  1.0000 0.0275299068
N   N31       1.0  0.33181  0.18121  0.48379  1.0000 0.0275299068
N   N32       1.0  0.69741  0.84801  0.51621  1.0000 0.0275299068
O   O1        1.0  0.08377  0.88707  0.75191  1.0000 -0.5557710041
O   O2        1.0  0.13517  0.33187  0.24810  1.0000 -0.5557710041
O   O3        1.0  0.11293  0.86483  0.19670  1.0000 -0.5557710041
O   O4        1.0  0.66813  0.91623  0.80330  1.0000 -0.5557710041
O   O5        1.0  0.61483  0.36293  0.69670  1.0000 -0.5557710041
O   O6        1.0  0.66623  0.91813  0.30330  1.0000 -0.5557710041
O   O7        1.0  0.08187  0.38517  0.74809  1.0000 -0.5557710041
O   O8        1.0  0.63707  0.33377  0.25190  1.0000 -0.5557710041
O   O9        1.0  0.13383  0.76623  0.66480  1.0000 -0.5321590003
O   O10       1.0  0.10143  0.46903  0.33520  1.0000 -0.5321590003
O   O11       1.0  0.23377  0.89857  0.36760  1.0000 -0.5321590003
O   O12       1.0  0.53097  0.86617  0.63240  1.0000 -0.5321590003
O   O13       1.0  0.64857  0.48377  0.86760  1.0000 -0.5321590003
O   O14       1.0  0.61617  0.78097  0.13240  1.0000 -0.5321590003
O   O15       1.0  0.21903  0.35143  0.83520  1.0000 -0.5321590003
O   O16       1.0  0.51623  0.38383  0.16481  1.0000 -0.5321590003
O   O17       1.0  0.53332  0.64142  0.80571  1.0000 -0.5194452699
O   O18       1.0  0.83572  0.72762  0.19429  1.0000 -0.5194452699
O   O19       1.0  0.35858  0.16428  0.89190  1.0000 -0.5194452699
O   O20       1.0  0.27238  0.46668  0.10810  1.0000 -0.5194452699
O   O21       1.0  0.91428  0.60858  0.39190  1.0000 -0.5194452699
O   O22       1.0  0.21668  0.52238  0.60810  1.0000 -0.5194452699
O   O23       1.0  0.47762  0.08572  0.69429  1.0000 -0.5194452699
O   O24       1.0  0.39142  0.78332  0.30571  1.0000 -0.5194452699
O   O25       1.0  0.66016  0.64036  0.79780  1.0000 -0.5557710041
O   O26       1.0  0.84256  0.86236  0.20220  1.0000 -0.5557710041
O   O27       1.0  0.35964  0.15744  0.01980  1.0000 -0.5557710041
O   O28       1.0  0.13764  0.33984  0.98020  1.0000 -0.5557710041
O   O29       1.0  0.90744  0.60964  0.51980  1.0000 -0.5557710041
O   O30       1.0  0.08984  0.38764  0.48020  1.0000 -0.5557710041
O   O31       1.0  0.61236  0.09256  0.70220  1.0000 -0.5557710041
O   O32       1.0  0.39036  0.91016  0.29780  1.0000 -0.5557710041
