# DDEC6 charges by PACMAN v1.1 (https://github.com/mtap-research/PACMAN-charge/)
data_2010[Co][nan]3[ASR]3
_chemical_formula_sum              "Co6 H6 C24 O18"
_cell_length_a       15.1316
_cell_length_b       15.1316
_cell_length_c       15.1316
_cell_angle_alpha    117.784
_cell_angle_beta     117.784
_cell_angle_gamma    117.784

_symmetry_space_group_name_H-M    "P 1"
_symmetry_Int_Tables_number       1

loop_
  _symmetry_equiv_pos_as_xyz
  'x, y, z'

loop_
  _atom_site_type_symbol
  _atom_site_label
  _atom_site_symmetry_multiplicity
  _atom_site_fract_x
  _atom_site_fract_y
  _atom_site_fract_z
  _atom_site_occupancy
  _atom_site_charge
Co  Co1       1.0  0.19792  0.87493  0.46375  1.0000 0.9640538822
Co  Co2       1.0  0.87493  0.46375  0.19792  1.0000 0.9640538822
Co  Co3       1.0  0.46375  0.19792  0.87493  1.0000 0.9640538822
Co  Co4       1.0  0.80208  0.12507  0.53625  1.0000 0.9640538822
Co  Co5       1.0  0.12507  0.53625  0.80208  1.0000 0.9650774132
Co  Co6       1.0  0.53625  0.80208  0.12507  1.0000 0.9650774132
H   H1        1.0  0.17433  0.62275  0.64319  1.0000 0.1235718484
H   H2        1.0  0.62275  0.64319  0.17433  1.0000 0.1235718484
H   H3        1.0  0.64319  0.17433  0.62275  1.0000 0.1235718484
H   H4        1.0  0.82567  0.37725  0.35681  1.0000 0.1235718484
H   H5        1.0  0.37725  0.35681  0.82567  1.0000 0.1235718484
H   H6        1.0  0.35681  0.82567  0.37725  1.0000 0.1235718484
C   C1        1.0  0.25646  0.81879  0.64480  1.0000 0.6323741009
C   C2        1.0  0.81879  0.64480  0.25646  1.0000 0.6323741009
C   C3        1.0  0.64480  0.25646  0.81879  1.0000 0.6323741009
C   C4        1.0  0.74354  0.18121  0.35520  1.0000 0.6323741009
C   C5        1.0  0.18121  0.35520  0.74354  1.0000 0.6323741009
C   C6        1.0  0.35520  0.74354  0.18121  1.0000 0.6323741009
C   C7        1.0  0.38499  0.91937  0.83119  1.0000 -0.1616630772
C   C8        1.0  0.91937  0.83119  0.38499  1.0000 -0.1616630772
C   C9        1.0  0.83119  0.38499  0.91937  1.0000 -0.1616630772
C   C10       1.0  0.61501  0.08063  0.16881  1.0000 -0.1616630772
C   C11       1.0  0.08063  0.16881  0.61501  1.0000 -0.1616630772
C   C12       1.0  0.16881  0.61501  0.08063  1.0000 -0.1616630772
C   C13       1.0  0.56835  0.13559  0.03332  1.0000 0.3151356708
C   C14       1.0  0.13559  0.03332  0.56835  1.0000 0.3151356708
C   C15       1.0  0.03332  0.56835  0.13559  1.0000 0.3151356708
C   C16       1.0  0.43165  0.86441  0.96668  1.0000 0.3151356708
C   C17       1.0  0.86441  0.96668  0.43165  1.0000 0.3151356708
C   C18       1.0  0.96668  0.43165  0.86441  1.0000 0.3151356708
C   C19       1.0  0.32154  0.79282  0.80312  1.0000 -0.1616630772
C   C20       1.0  0.79282  0.80312  0.32154  1.0000 -0.1616630772
C   C21       1.0  0.80312  0.32154  0.79282  1.0000 -0.1616630772
C   C22       1.0  0.67846  0.20718  0.19688  1.0000 -0.1616630772
C   C23       1.0  0.20718  0.19688  0.67846  1.0000 -0.1616630772
C   C24       1.0  0.19688  0.67846  0.20718  1.0000 -0.1616630772
O   O1        1.0  0.30692  0.93263  0.67097  1.0000 -0.5889212906
O   O2        1.0  0.93263  0.67097  0.30692  1.0000 -0.5889212906
O   O3        1.0  0.67097  0.30692  0.93263  1.0000 -0.5889212906
O   O4        1.0  0.69308  0.06737  0.32903  1.0000 -0.5889212906
O   O5        1.0  0.06737  0.32903  0.69308  1.0000 -0.5889212906
O   O6        1.0  0.32903  0.69308  0.06737  1.0000 -0.5889212906
O   O7        1.0  0.09935  0.62654  0.47186  1.0000 -0.5350693931
O   O8        1.0  0.62654  0.47186  0.09935  1.0000 -0.5341556539
O   O9        1.0  0.47186  0.09935  0.62654  1.0000 -0.5341556539
O   O10       1.0  0.90065  0.37346  0.52814  1.0000 -0.5341556539
O   O11       1.0  0.37346  0.52814  0.90065  1.0000 -0.5341556539
O   O12       1.0  0.52814  0.90065  0.37346  1.0000 -0.5341556539
O   O13       1.0  0.64078  0.27179  0.07930  1.0000 -0.5889212906
O   O14       1.0  0.27179  0.07930  0.64078  1.0000 -0.5889212906
O   O15       1.0  0.07930  0.64078  0.27179  1.0000 -0.5889212906
O   O16       1.0  0.35922  0.72821  0.92070  1.0000 -0.5889212906
O   O17       1.0  0.72821  0.92070  0.35922  1.0000 -0.5889212906
O   O18       1.0  0.92070  0.35922  0.72821  1.0000 -0.5889212906
