# DDEC6 charges by PACMAN v1.1 (https://github.com/mtap-research/PACMAN-charge/)
data_2010[Cd][cds]3[ASR]1
_chemical_formula_sum              "Cd8 H128 C192 S16 N32 O32"
_cell_length_a       16.202
_cell_length_b       22.69
_cell_length_c       16.77
_cell_angle_alpha    90
_cell_angle_beta     114.511
_cell_angle_gamma    90

_symmetry_space_group_name_H-M    "P 1"
_symmetry_Int_Tables_number       1

loop_
  _symmetry_equiv_pos_as_xyz
  'x, y, z'

loop_
  _atom_site_type_symbol
  _atom_site_label
  _atom_site_symmetry_multiplicity
  _atom_site_fract_x
  _atom_site_fract_y
  _atom_site_fract_z
  _atom_site_occupancy
  _atom_site_charge
Cd  Cd1       1.0  0.78134  0.76564  0.62595  1.0000 0.8884817649
Cd  Cd2       1.0  0.21866  0.23436  0.37405  1.0000 0.8884817649
Cd  Cd3       1.0  0.21866  0.76564  0.87405  1.0000 0.8884817649
Cd  Cd4       1.0  0.78134  0.23436  0.12595  1.0000 0.8884817649
Cd  Cd5       1.0  0.28134  0.26564  0.62595  1.0000 0.8884817649
Cd  Cd6       1.0  0.71866  0.73436  0.37405  1.0000 0.8884817649
Cd  Cd7       1.0  0.71866  0.26564  0.87405  1.0000 0.8884817649
Cd  Cd8       1.0  0.28134  0.73436  0.12595  1.0000 0.8884817649
H   H1        1.0  0.65699  0.92532  0.21662  1.0000 0.099282023
H   H2        1.0  0.34301  0.07468  0.78338  1.0000 0.099282023
H   H3        1.0  0.34301  0.92532  0.28338  1.0000 0.099282023
H   H4        1.0  0.65699  0.07468  0.71662  1.0000 0.099282023
H   H5        1.0  0.15699  0.42532  0.21662  1.0000 0.099282023
H   H6        1.0  0.84301  0.57468  0.78338  1.0000 0.099282023
H   H7        1.0  0.84301  0.42532  0.28338  1.0000 0.099282023
H   H8        1.0  0.15699  0.57468  0.71662  1.0000 0.099282023
H   H9        1.0  0.64334  0.92266  0.69194  1.0000 0.1099063512
H   H10       1.0  0.35666  0.07734  0.30806  1.0000 0.1099063512
H   H11       1.0  0.35666  0.92266  0.80806  1.0000 0.1099063512
H   H12       1.0  0.64334  0.07734  0.19194  1.0000 0.1099063512
H   H13       1.0  0.14334  0.42266  0.69194  1.0000 0.1099063512
H   H14       1.0  0.85666  0.57734  0.30806  1.0000 0.1099063512
H   H15       1.0  0.85666  0.42266  0.80806  1.0000 0.1099063512
H   H16       1.0  0.14334  0.57734  0.19194  1.0000 0.1099063512
H   H17       1.0  0.59871  0.99786  0.77623  1.0000 0.1189756717
H   H18       1.0  0.40129  0.00214  0.22377  1.0000 0.1189756717
H   H19       1.0  0.40129  0.99786  0.72377  1.0000 0.1189756717
H   H20       1.0  0.59871  0.00214  0.27623  1.0000 0.1189756717
H   H21       1.0  0.09871  0.49786  0.77623  1.0000 0.1189756717
H   H22       1.0  0.90129  0.50214  0.22377  1.0000 0.1189756717
H   H23       1.0  0.90129  0.49786  0.72377  1.0000 0.1189756717
H   H24       1.0  0.09871  0.50214  0.27623  1.0000 0.1189756717
H   H25       1.0  0.79706  0.83284  0.93736  1.0000 0.0803505301
H   H26       1.0  0.20294  0.16716  0.06264  1.0000 0.0803505301
H   H27       1.0  0.20294  0.83284  0.56264  1.0000 0.0803505301
H   H28       1.0  0.79706  0.16716  0.43736  1.0000 0.0803505301
H   H29       1.0  0.29706  0.33284  0.93736  1.0000 0.0803505301
H   H30       1.0  0.70294  0.66716  0.06264  1.0000 0.0803505301
H   H31       1.0  0.70294  0.33284  0.56264  1.0000 0.0803505301
H   H32       1.0  0.29706  0.66716  0.43736  1.0000 0.0803505301
H   H33       1.0  0.41131  0.86182  0.93746  1.0000 0.099282023
H   H34       1.0  0.58869  0.13818  0.06254  1.0000 0.099282023
H   H35       1.0  0.58869  0.86182  0.56254  1.0000 0.099282023
H   H36       1.0  0.41131  0.13818  0.43746  1.0000 0.099282023
H   H37       1.0  0.91131  0.36182  0.93746  1.0000 0.099282023
H   H38       1.0  0.08869  0.63818  0.06254  1.0000 0.099282023
H   H39       1.0  0.08869  0.36182  0.56254  1.0000 0.099282023
H   H40       1.0  0.91131  0.63818  0.43746  1.0000 0.099282023
H   H41       1.0  0.54440  0.85097  0.22164  1.0000 0.1189756717
H   H42       1.0  0.45560  0.14903  0.77836  1.0000 0.1189756717
H   H43       1.0  0.45560  0.85097  0.27836  1.0000 0.1189756717
H   H44       1.0  0.54440  0.14903  0.72164  1.0000 0.1189756717
H   H45       1.0  0.04440  0.35097  0.22164  1.0000 0.1189756717
H   H46       1.0  0.95560  0.64903  0.77836  1.0000 0.1189756717
H   H47       1.0  0.95560  0.35097  0.27836  1.0000 0.1189756717
H   H48       1.0  0.04440  0.64903  0.72164  1.0000 0.1189756717
H   H49       1.0  0.26249  0.39850  0.57787  1.0000 0.0803505301
H   H50       1.0  0.73751  0.60150  0.42213  1.0000 0.0803505301
H   H51       1.0  0.73751  0.39850  0.92213  1.0000 0.0803505301
H   H52       1.0  0.26249  0.60150  0.07787  1.0000 0.0803505301
H   H53       1.0  0.76249  0.89850  0.57787  1.0000 0.0803505301
H   H54       1.0  0.23751  0.10150  0.42213  1.0000 0.0803505301
H   H55       1.0  0.23751  0.89850  0.92213  1.0000 0.0803505301
H   H56       1.0  0.76249  0.10150  0.07787  1.0000 0.0803505301
H   H57       1.0  0.35417  0.48900  0.59236  1.0000 0.099282023
H   H58       1.0  0.64583  0.51100  0.40764  1.0000 0.099282023
H   H59       1.0  0.64583  0.48900  0.90764  1.0000 0.099282023
H   H60       1.0  0.35417  0.51100  0.09236  1.0000 0.099282023
H   H61       1.0  0.85417  0.98900  0.59236  1.0000 0.099282023
H   H62       1.0  0.14583  0.01100  0.40764  1.0000 0.099282023
H   H63       1.0  0.14583  0.98900  0.90764  1.0000 0.099282023
H   H64       1.0  0.85417  0.01100  0.09236  1.0000 0.099282023
H   H65       1.0  0.59166  0.37487  0.67259  1.0000 0.1189756717
H   H66       1.0  0.40834  0.62513  0.32741  1.0000 0.1189756717
H   H67       1.0  0.40834  0.37487  0.82741  1.0000 0.1189756717
H   H68       1.0  0.59166  0.62513  0.17259  1.0000 0.1189756717
H   H69       1.0  0.09166  0.87487  0.67259  1.0000 0.1189756717
H   H70       1.0  0.90834  0.12513  0.32741  1.0000 0.1189756717
H   H71       1.0  0.90834  0.87487  0.82741  1.0000 0.1189756717
H   H72       1.0  0.09166  0.12513  0.17259  1.0000 0.1189756717
H   H73       1.0  0.49051  0.29029  0.65467  1.0000 0.099282023
H   H74       1.0  0.50949  0.70971  0.34533  1.0000 0.099282023
H   H75       1.0  0.50949  0.29029  0.84533  1.0000 0.099282023
H   H76       1.0  0.49051  0.70971  0.15467  1.0000 0.099282023
H   H77       1.0  0.99051  0.79029  0.65467  1.0000 0.099282023
H   H78       1.0  0.00949  0.20971  0.34533  1.0000 0.099282023
H   H79       1.0  0.00949  0.79029  0.84533  1.0000 0.099282023
H   H80       1.0  0.99051  0.20971  0.15467  1.0000 0.099282023
H   H81       1.0  0.61365  0.48346  0.68850  1.0000 0.099282023
H   H82       1.0  0.38635  0.51654  0.31150  1.0000 0.099282023
H   H83       1.0  0.38635  0.48346  0.81150  1.0000 0.099282023
H   H84       1.0  0.61365  0.51654  0.18850  1.0000 0.099282023
H   H85       1.0  0.11365  0.98346  0.68850  1.0000 0.099282023
H   H86       1.0  0.88635  0.01654  0.31150  1.0000 0.099282023
H   H87       1.0  0.88635  0.98346  0.81150  1.0000 0.099282023
H   H88       1.0  0.11365  0.01654  0.18850  1.0000 0.099282023
H   H89       1.0  0.46126  0.65251  0.53664  1.0000 0.1189756717
H   H90       1.0  0.53874  0.34749  0.46336  1.0000 0.1189756717
H   H91       1.0  0.53874  0.65251  0.96336  1.0000 0.1189756717
H   H92       1.0  0.46126  0.34749  0.03664  1.0000 0.1189756717
H   H93       1.0  0.96126  0.15251  0.53664  1.0000 0.1189756717
H   H94       1.0  0.03874  0.84749  0.46336  1.0000 0.1189756717
H   H95       1.0  0.03874  0.15251  0.96336  1.0000 0.1189756717
H   H96       1.0  0.96126  0.84749  0.03664  1.0000 0.1189756717
H   H97       1.0  0.79332  0.64035  0.69486  1.0000 0.0803505301
H   H98       1.0  0.20668  0.35965  0.30514  1.0000 0.0803505301
H   H99       1.0  0.20668  0.64035  0.80514  1.0000 0.0803505301
H   H100      1.0  0.79332  0.35965  0.19486  1.0000 0.0803505301
H   H101      1.0  0.29332  0.14035  0.69486  1.0000 0.0803505301
H   H102      1.0  0.70668  0.85965  0.30514  1.0000 0.0803505301
H   H103      1.0  0.70668  0.14035  0.80514  1.0000 0.0803505301
H   H104      1.0  0.29332  0.85965  0.19486  1.0000 0.0803505301
H   H105      1.0  0.56393  0.73861  0.55171  1.0000 0.099282023
H   H106      1.0  0.43607  0.26139  0.44829  1.0000 0.099282023
H   H107      1.0  0.43607  0.73861  0.94829  1.0000 0.099282023
H   H108      1.0  0.56393  0.26139  0.05171  1.0000 0.099282023
H   H109      1.0  0.06393  0.23861  0.55171  1.0000 0.099282023
H   H110      1.0  0.93607  0.76139  0.44829  1.0000 0.099282023
H   H111      1.0  0.93607  0.23861  0.94829  1.0000 0.099282023
H   H112      1.0  0.06393  0.76139  0.05171  1.0000 0.099282023
H   H113      1.0  0.70255  0.54980  0.68836  1.0000 0.1099063512
H   H114      1.0  0.29745  0.45020  0.31164  1.0000 0.1099063512
H   H115      1.0  0.29745  0.54980  0.81164  1.0000 0.1099063512
H   H116      1.0  0.70255  0.45020  0.18836  1.0000 0.1099063512
H   H117      1.0  0.20255  0.04980  0.68836  1.0000 0.1099063512
H   H118      1.0  0.79745  0.95020  0.31164  1.0000 0.1099063512
H   H119      1.0  0.79745  0.04980  0.81164  1.0000 0.1099063512
H   H120      1.0  0.20255  0.95020  0.18836  1.0000 0.1099063512
H   H121      1.0  0.44179  0.54920  0.55883  1.0000 0.1099063512
H   H122      1.0  0.55821  0.45080  0.44117  1.0000 0.1099063512
H   H123      1.0  0.55821  0.54920  0.94117  1.0000 0.1099063512
H   H124      1.0  0.44179  0.45080  0.05883  1.0000 0.1099063512
H   H125      1.0  0.94179  0.04920  0.55883  1.0000 0.1099063512
H   H126      1.0  0.05821  0.95080  0.44117  1.0000 0.1099063512
H   H127      1.0  0.05821  0.04920  0.94117  1.0000 0.1099063512
H   H128      1.0  0.94179  0.95080  0.05883  1.0000 0.1099063512
C   C1        1.0  0.60214  0.90952  0.15636  1.0000 -0.1800001834
C   C2        1.0  0.39786  0.09048  0.84364  1.0000 -0.1800001834
C   C3        1.0  0.39786  0.90952  0.34364  1.0000 -0.1800001834
C   C4        1.0  0.60214  0.09048  0.65636  1.0000 -0.1800001834
C   C5        1.0  0.10214  0.40952  0.15636  1.0000 -0.1800001834
C   C6        1.0  0.89786  0.59048  0.84364  1.0000 -0.1800001834
C   C7        1.0  0.89786  0.40952  0.34364  1.0000 -0.1800001834
C   C8        1.0  0.10214  0.59048  0.65636  1.0000 -0.1800001834
C   C9        1.0  0.75177  0.82796  0.75737  1.0000 0.5528172393
C   C10       1.0  0.24823  0.17204  0.24263  1.0000 0.5528172393
C   C11       1.0  0.24823  0.82796  0.74263  1.0000 0.5528172393
C   C12       1.0  0.75177  0.17204  0.25737  1.0000 0.5528172393
C   C13       1.0  0.25177  0.32796  0.75737  1.0000 0.5528172393
C   C14       1.0  0.74823  0.67204  0.24263  1.0000 0.5528172393
C   C15       1.0  0.74823  0.32796  0.74263  1.0000 0.5528172393
C   C16       1.0  0.25177  0.67204  0.25737  1.0000 0.5528172393
C   C17       1.0  0.39480  0.81297  0.08310  1.0000 0.5702176157
C   C18       1.0  0.60520  0.18703  0.91690  1.0000 0.5702176157
C   C19       1.0  0.60520  0.81297  0.41690  1.0000 0.5702176157
C   C20       1.0  0.39480  0.18703  0.58310  1.0000 0.5702176157
C   C21       1.0  0.89480  0.31297  0.08310  1.0000 0.5702176157
C   C22       1.0  0.10520  0.68703  0.91690  1.0000 0.5702176157
C   C23       1.0  0.10520  0.31297  0.41690  1.0000 0.5702176157
C   C24       1.0  0.89480  0.68703  0.58310  1.0000 0.5702176157
C   C25       1.0  0.72493  0.87225  0.80861  1.0000 -0.08450091
C   C26       1.0  0.27507  0.12775  0.19139  1.0000 -0.0852691989
C   C27       1.0  0.27507  0.87225  0.69139  1.0000 -0.08450091
C   C28       1.0  0.72493  0.12775  0.30861  1.0000 -0.08450091
C   C29       1.0  0.22493  0.37225  0.80861  1.0000 -0.08450091
C   C30       1.0  0.77507  0.62775  0.19139  1.0000 -0.0852691989
C   C31       1.0  0.77507  0.37225  0.69139  1.0000 -0.08450091
C   C32       1.0  0.22493  0.62775  0.30861  1.0000 -0.0852691989
C   C33       1.0  0.66850  0.91948  0.76339  1.0000 -0.0374561671
C   C34       1.0  0.33150  0.08052  0.23661  1.0000 -0.0374561671
C   C35       1.0  0.33150  0.91948  0.73661  1.0000 -0.0374561671
C   C36       1.0  0.66850  0.08052  0.26339  1.0000 -0.0374561671
C   C37       1.0  0.16850  0.41948  0.76339  1.0000 -0.0374561671
C   C38       1.0  0.83150  0.58052  0.23661  1.0000 -0.0374561671
C   C39       1.0  0.83150  0.41948  0.73661  1.0000 -0.0374561671
C   C40       1.0  0.16850  0.58052  0.26339  1.0000 -0.0374561671
C   C41       1.0  0.64413  0.96138  0.81011  1.0000 -0.1800001834
C   C42       1.0  0.35587  0.03862  0.18989  1.0000 -0.1800001834
C   C43       1.0  0.35587  0.96138  0.68989  1.0000 -0.1800001834
C   C44       1.0  0.64413  0.03862  0.31011  1.0000 -0.1800001834
C   C45       1.0  0.14413  0.46138  0.81011  1.0000 -0.1800001834
C   C46       1.0  0.85587  0.53862  0.18989  1.0000 -0.1800001834
C   C47       1.0  0.85587  0.46138  0.68989  1.0000 -0.1800001834
C   C48       1.0  0.14413  0.53862  0.31011  1.0000 -0.1800001834
C   C49       1.0  0.67765  0.95452  0.90159  1.0000 0.2016686991
C   C50       1.0  0.32235  0.04548  0.09841  1.0000 0.2016686991
C   C51       1.0  0.32235  0.95452  0.59841  1.0000 0.2016686991
C   C52       1.0  0.67765  0.04548  0.40159  1.0000 0.2016686991
C   C53       1.0  0.17765  0.45452  0.90159  1.0000 0.2016686991
C   C54       1.0  0.82235  0.54548  0.09841  1.0000 0.2016686991
C   C55       1.0  0.82235  0.45452  0.59841  1.0000 0.2016686991
C   C56       1.0  0.17765  0.54548  0.40159  1.0000 0.2016686991
C   C57       1.0  0.75433  0.86960  0.89980  1.0000 0.0918357915
C   C58       1.0  0.24567  0.13040  0.10020  1.0000 0.0918357915
C   C59       1.0  0.24567  0.86960  0.60020  1.0000 0.0918357915
C   C60       1.0  0.75433  0.13040  0.39980  1.0000 0.0918357915
C   C61       1.0  0.25433  0.36960  0.89980  1.0000 0.0918357915
C   C62       1.0  0.74567  0.63040  0.10020  1.0000 0.0918357915
C   C63       1.0  0.74567  0.36960  0.60020  1.0000 0.0918357915
C   C64       1.0  0.25433  0.63040  0.39980  1.0000 0.0918357915
C   C65       1.0  0.46720  0.85249  0.07977  1.0000 -0.1030643404
C   C66       1.0  0.53280  0.14751  0.92023  1.0000 -0.1030643404
C   C67       1.0  0.53280  0.85249  0.42023  1.0000 -0.1030643404
C   C68       1.0  0.46720  0.14751  0.57977  1.0000 -0.1030643404
C   C69       1.0  0.96720  0.35249  0.07977  1.0000 -0.1030643404
C   C70       1.0  0.03280  0.64751  0.92023  1.0000 -0.1030643404
C   C71       1.0  0.03280  0.35249  0.42023  1.0000 -0.1030643404
C   C72       1.0  0.96720  0.64751  0.57977  1.0000 -0.1030643404
C   C73       1.0  0.46554  0.87465  0.00080  1.0000 0.0803505301
C   C74       1.0  0.53446  0.12535  0.99920  1.0000 0.0803505301
C   C75       1.0  0.53446  0.87465  0.49920  1.0000 0.0803505301
C   C76       1.0  0.46554  0.12535  0.50080  1.0000 0.0803505301
C   C77       1.0  0.96554  0.37465  0.00080  1.0000 0.0803505301
C   C78       1.0  0.03446  0.62535  0.99920  1.0000 0.0803505301
C   C79       1.0  0.03446  0.37465  0.49920  1.0000 0.0803505301
C   C80       1.0  0.96554  0.62535  0.50080  1.0000 0.0803505301
C   C81       1.0  0.59418  0.92954  0.07409  1.0000 0.2016686991
C   C82       1.0  0.40582  0.07046  0.92591  1.0000 0.2016686991
C   C83       1.0  0.40582  0.92954  0.42591  1.0000 0.2016686991
C   C84       1.0  0.59418  0.07046  0.57409  1.0000 0.2016686991
C   C85       1.0  0.09418  0.42954  0.07409  1.0000 0.2016686991
C   C86       1.0  0.90582  0.57046  0.92591  1.0000 0.2016686991
C   C87       1.0  0.90582  0.42954  0.42591  1.0000 0.2016686991
C   C88       1.0  0.09418  0.57046  0.57409  1.0000 0.2016686991
C   C89       1.0  0.53845  0.86964  0.15904  1.0000 -0.0374561671
C   C90       1.0  0.46155  0.13036  0.84096  1.0000 -0.0374561671
C   C91       1.0  0.46155  0.86964  0.34096  1.0000 -0.0374561671
C   C92       1.0  0.53845  0.13036  0.65904  1.0000 -0.0374561671
C   C93       1.0  0.03845  0.36964  0.15904  1.0000 -0.0374561671
C   C94       1.0  0.96155  0.63036  0.84096  1.0000 -0.0374561671
C   C95       1.0  0.96155  0.36964  0.34096  1.0000 -0.0374561671
C   C96       1.0  0.03845  0.63036  0.65904  1.0000 -0.0374561671
C   C97       1.0  0.33589  0.39590  0.59770  1.0000 0.0918357915
C   C98       1.0  0.66411  0.60410  0.40230  1.0000 0.0918357915
C   C99       1.0  0.66411  0.39590  0.90230  1.0000 0.0918357915
C   C100      1.0  0.33589  0.60410  0.09770  1.0000 0.0918357915
C   C101      1.0  0.83589  0.89590  0.59770  1.0000 0.0918357915
C   C102      1.0  0.16411  0.10410  0.40230  1.0000 0.0918357915
C   C103      1.0  0.16411  0.89590  0.90230  1.0000 0.0918357915
C   C104      1.0  0.83589  0.10410  0.09770  1.0000 0.0918357915
C   C105      1.0  0.38789  0.44610  0.60598  1.0000 -0.1800001834
C   C106      1.0  0.61211  0.55390  0.39402  1.0000 -0.1800001834
C   C107      1.0  0.61211  0.44610  0.89402  1.0000 -0.1800001834
C   C108      1.0  0.38789  0.55390  0.10598  1.0000 -0.1800001834
C   C109      1.0  0.88789  0.94610  0.60598  1.0000 -0.1800001834
C   C110      1.0  0.11211  0.05390  0.39402  1.0000 -0.1800001834
C   C111      1.0  0.11211  0.94610  0.89402  1.0000 -0.1800001834
C   C112      1.0  0.88789  0.05390  0.10598  1.0000 -0.1800001834
C   C113      1.0  0.48240  0.44033  0.63399  1.0000 0.149540602
C   C114      1.0  0.51760  0.55967  0.36601  1.0000 0.149540602
C   C115      1.0  0.51760  0.44033  0.86601  1.0000 0.149540602
C   C116      1.0  0.48240  0.55967  0.13399  1.0000 0.149540602
C   C117      1.0  0.98240  0.94033  0.63399  1.0000 0.149540602
C   C118      1.0  0.01760  0.05967  0.36601  1.0000 0.149540602
C   C119      1.0  0.01760  0.94033  0.86601  1.0000 0.149540602
C   C120      1.0  0.98240  0.05967  0.13399  1.0000 0.149540602
C   C121      1.0  0.51942  0.38318  0.65159  1.0000 -0.1721688725
C   C122      1.0  0.48058  0.61682  0.34841  1.0000 -0.1721688725
C   C123      1.0  0.48058  0.38318  0.84841  1.0000 -0.1721688725
C   C124      1.0  0.51942  0.61682  0.15159  1.0000 -0.1721688725
C   C125      1.0  0.01942  0.88318  0.65159  1.0000 -0.1721688725
C   C126      1.0  0.98058  0.11682  0.34841  1.0000 -0.1721688725
C   C127      1.0  0.98058  0.88318  0.84841  1.0000 -0.1721688725
C   C128      1.0  0.01942  0.11682  0.15159  1.0000 -0.1721688725
C   C129      1.0  0.46266  0.33505  0.64097  1.0000 0.099282023
C   C130      1.0  0.53734  0.66495  0.35903  1.0000 0.099282023
C   C131      1.0  0.53734  0.33505  0.85903  1.0000 0.099282023
C   C132      1.0  0.46266  0.66495  0.14097  1.0000 0.099282023
C   C133      1.0  0.96266  0.83505  0.64097  1.0000 0.099282023
C   C134      1.0  0.03734  0.16495  0.35903  1.0000 0.099282023
C   C135      1.0  0.03734  0.83505  0.85903  1.0000 0.099282023
C   C136      1.0  0.96266  0.16495  0.14097  1.0000 0.099282023
C   C137      1.0  0.54183  0.49074  0.64497  1.0000 -0.1030643404
C   C138      1.0  0.45817  0.50926  0.35503  1.0000 -0.1030643404
C   C139      1.0  0.45817  0.49074  0.85503  1.0000 -0.1030643404
C   C140      1.0  0.54183  0.50926  0.14497  1.0000 -0.1092124352
C   C141      1.0  0.04183  0.99074  0.64497  1.0000 -0.1092124352
C   C142      1.0  0.95817  0.00926  0.35503  1.0000 -0.1092124352
C   C143      1.0  0.95817  0.99074  0.85503  1.0000 -0.1092124352
C   C144      1.0  0.04183  0.00926  0.14497  1.0000 -0.1092124352
C   C145      1.0  0.57249  0.59350  0.61277  1.0000 0.149540602
C   C146      1.0  0.42751  0.40650  0.38723  1.0000 0.149540602
C   C147      1.0  0.42751  0.59350  0.88723  1.0000 0.149540602
C   C148      1.0  0.57249  0.40650  0.11277  1.0000 0.149540602
C   C149      1.0  0.07249  0.09350  0.61277  1.0000 0.149540602
C   C150      1.0  0.92751  0.90650  0.38723  1.0000 0.149540602
C   C151      1.0  0.92751  0.09350  0.88723  1.0000 0.149540602
C   C152      1.0  0.07249  0.90650  0.11277  1.0000 0.149540602
C   C153      1.0  0.53469  0.64787  0.57401  1.0000 -0.1721688725
C   C154      1.0  0.46531  0.35213  0.42599  1.0000 -0.1721688725
C   C155      1.0  0.46531  0.64787  0.92599  1.0000 -0.1721688725
C   C156      1.0  0.53469  0.35213  0.07401  1.0000 -0.1721688725
C   C157      1.0  0.03469  0.14787  0.57401  1.0000 -0.1721688725
C   C158      1.0  0.96531  0.85213  0.42599  1.0000 -0.1721688725
C   C159      1.0  0.96531  0.14787  0.92599  1.0000 -0.1721688725
C   C160      1.0  0.03469  0.85213  0.07401  1.0000 -0.1721688725
C   C161      1.0  0.71912  0.64022  0.66196  1.0000 0.099282023
C   C162      1.0  0.28088  0.35978  0.33804  1.0000 0.099282023
C   C163      1.0  0.28088  0.64022  0.83804  1.0000 0.099282023
C   C164      1.0  0.71912  0.35978  0.16196  1.0000 0.099282023
C   C165      1.0  0.21912  0.14022  0.66196  1.0000 0.099282023
C   C166      1.0  0.78088  0.85978  0.33804  1.0000 0.099282023
C   C167      1.0  0.78088  0.14022  0.83804  1.0000 0.099282023
C   C168      1.0  0.21912  0.85978  0.16196  1.0000 0.099282023
C   C169      1.0  0.59105  0.69596  0.58152  1.0000 0.1099063512
C   C170      1.0  0.40895  0.30404  0.41848  1.0000 0.1099063512
C   C171      1.0  0.40895  0.69596  0.91848  1.0000 0.1099063512
C   C172      1.0  0.59105  0.30404  0.08152  1.0000 0.1099063512
C   C173      1.0  0.09105  0.19596  0.58152  1.0000 0.1099063512
C   C174      1.0  0.90895  0.80404  0.41848  1.0000 0.1099063512
C   C175      1.0  0.90895  0.19596  0.91848  1.0000 0.1099063512
C   C176      1.0  0.09105  0.80404  0.08152  1.0000 0.1099063512
C   C177      1.0  0.66767  0.59058  0.65806  1.0000 -0.1721688725
C   C178      1.0  0.33233  0.40942  0.34194  1.0000 -0.1721688725
C   C179      1.0  0.33233  0.59058  0.84194  1.0000 -0.1721688725
C   C180      1.0  0.66767  0.40942  0.15806  1.0000 -0.1721688725
C   C181      1.0  0.16767  0.09058  0.65806  1.0000 -0.1721688725
C   C182      1.0  0.83233  0.90942  0.34194  1.0000 -0.1721688725
C   C183      1.0  0.83233  0.09058  0.84194  1.0000 -0.1721688725
C   C184      1.0  0.16767  0.90942  0.15806  1.0000 -0.1721688725
C   C185      1.0  0.51352  0.54313  0.60369  1.0000 -0.1092124352
C   C186      1.0  0.48648  0.45687  0.39631  1.0000 -0.1092124352
C   C187      1.0  0.48648  0.54313  0.89631  1.0000 -0.1092124352
C   C188      1.0  0.51352  0.45687  0.10369  1.0000 -0.1092124352
C   C189      1.0  0.01352  0.04313  0.60369  1.0000 -0.1092124352
C   C190      1.0  0.98648  0.95687  0.39631  1.0000 -0.1092124352
C   C191      1.0  0.98648  0.04313  0.89631  1.0000 -0.1092124352
C   C192      1.0  0.01352  0.95687  0.10369  1.0000 -0.1092124352
S   S1        1.0  0.68127  0.97880  0.07907  1.0000 -0.0008493858
S   S2        1.0  0.31873  0.02120  0.92093  1.0000 -0.0008493858
S   S3        1.0  0.31873  0.97880  0.42093  1.0000 0.0003765298
S   S4        1.0  0.68127  0.02120  0.57907  1.0000 0.0003765298
S   S5        1.0  0.18127  0.47880  0.07907  1.0000 -0.0008493858
S   S6        1.0  0.81873  0.52120  0.92093  1.0000 -0.0008493858
S   S7        1.0  0.81873  0.47880  0.42093  1.0000 -0.0008493858
S   S8        1.0  0.18127  0.52120  0.57907  1.0000 -0.0008493858
S   S9        1.0  0.64186  0.00922  0.95578  1.0000 0.0003765298
S   S10       1.0  0.35814  0.99078  0.04422  1.0000 -0.0008493858
S   S11       1.0  0.35814  0.00922  0.54422  1.0000 -0.0008493858
S   S12       1.0  0.64186  0.99078  0.45578  1.0000 0.0003765298
S   S13       1.0  0.14186  0.50922  0.95578  1.0000 0.0003765298
S   S14       1.0  0.85814  0.49078  0.04422  1.0000 -0.0008493858
S   S15       1.0  0.85814  0.50922  0.54422  1.0000 0.0003765298
S   S16       1.0  0.14186  0.49078  0.45578  1.0000 -0.0008493858
N   N1        1.0  0.37200  0.34093  0.61517  1.0000 -0.2524355139
N   N2        1.0  0.62800  0.65907  0.38483  1.0000 -0.2524355139
N   N3        1.0  0.62800  0.34093  0.88483  1.0000 -0.2524355139
N   N4        1.0  0.37200  0.65907  0.11517  1.0000 -0.2524355139
N   N5        1.0  0.87200  0.84093  0.61517  1.0000 -0.2524355139
N   N6        1.0  0.12800  0.15907  0.38483  1.0000 -0.2524355139
N   N7        1.0  0.12800  0.84093  0.88483  1.0000 -0.2524355139
N   N8        1.0  0.87200  0.15907  0.11517  1.0000 -0.2524355139
N   N9        1.0  0.68237  0.69218  0.62419  1.0000 -0.2378248584
N   N10       1.0  0.31763  0.30782  0.37581  1.0000 -0.2378248584
N   N11       1.0  0.31763  0.69218  0.87581  1.0000 -0.2378248584
N   N12       1.0  0.68237  0.30782  0.12419  1.0000 -0.2378248584
N   N13       1.0  0.18237  0.19218  0.62419  1.0000 -0.2378248584
N   N14       1.0  0.81763  0.80782  0.37581  1.0000 -0.2378248584
N   N15       1.0  0.81763  0.19218  0.87581  1.0000 -0.2378248584
N   N16       1.0  0.18237  0.80782  0.12419  1.0000 -0.2378248584
N   N17       1.0  0.73211  0.91013  0.94692  1.0000 -0.3304161627
N   N18       1.0  0.26789  0.08987  0.05308  1.0000 -0.3304161627
N   N19       1.0  0.26789  0.91013  0.55308  1.0000 -0.3304161627
N   N20       1.0  0.73211  0.08987  0.44692  1.0000 -0.3304161627
N   N21       1.0  0.23211  0.41013  0.94692  1.0000 -0.3304161627
N   N22       1.0  0.76789  0.58987  0.05308  1.0000 -0.3304161627
N   N23       1.0  0.76789  0.41013  0.55308  1.0000 -0.3304161627
N   N24       1.0  0.23211  0.58987  0.44692  1.0000 -0.3304161627
N   N25       1.0  0.52865  0.91263  0.99704  1.0000 -0.3218480658
N   N26       1.0  0.47135  0.08737  0.00296  1.0000 -0.3218480658
N   N27       1.0  0.47135  0.91263  0.50296  1.0000 -0.3218480658
N   N28       1.0  0.52865  0.08737  0.49704  1.0000 -0.3218480658
N   N29       1.0  0.02865  0.41263  0.99704  1.0000 -0.3218480658
N   N30       1.0  0.97135  0.58737  0.00296  1.0000 -0.3218480658
N   N31       1.0  0.97135  0.41263  0.50296  1.0000 -0.3218480658
N   N32       1.0  0.02865  0.58737  0.49704  1.0000 -0.3218480658
O   O1        1.0  0.70703  0.83185  0.67323  1.0000 -0.5492100131
O   O2        1.0  0.29297  0.16815  0.32677  1.0000 -0.5492100131
O   O3        1.0  0.29297  0.83185  0.82677  1.0000 -0.5492100131
O   O4        1.0  0.70703  0.16815  0.17323  1.0000 -0.5492100131
O   O5        1.0  0.20703  0.33185  0.67323  1.0000 -0.5492100131
O   O6        1.0  0.79297  0.66815  0.32677  1.0000 -0.5492100131
O   O7        1.0  0.79297  0.33185  0.82677  1.0000 -0.5492100131
O   O8        1.0  0.20703  0.66815  0.17323  1.0000 -0.5492100131
O   O9        1.0  0.81605  0.79199  0.79556  1.0000 -0.5670258861
O   O10       1.0  0.18395  0.20801  0.20444  1.0000 -0.5670258861
O   O11       1.0  0.18395  0.79199  0.70444  1.0000 -0.5670258861
O   O12       1.0  0.81605  0.20801  0.29556  1.0000 -0.5670258861
O   O13       1.0  0.31605  0.29199  0.79556  1.0000 -0.5670258861
O   O14       1.0  0.68395  0.70801  0.20444  1.0000 -0.5670258861
O   O15       1.0  0.68395  0.29199  0.70444  1.0000 -0.5670258861
O   O16       1.0  0.31605  0.70801  0.29556  1.0000 -0.5670258861
O   O17       1.0  0.39744  0.80160  0.15942  1.0000 -0.5492100131
O   O18       1.0  0.60256  0.19840  0.84058  1.0000 -0.5492100131
O   O19       1.0  0.60256  0.80160  0.34058  1.0000 -0.5492100131
O   O20       1.0  0.39744  0.19840  0.65942  1.0000 -0.5492100131
O   O21       1.0  0.89744  0.30160  0.15942  1.0000 -0.5492100131
O   O22       1.0  0.10256  0.69840  0.84058  1.0000 -0.5492100131
O   O23       1.0  0.10256  0.30160  0.34058  1.0000 -0.5492100131
O   O24       1.0  0.89744  0.69840  0.65942  1.0000 -0.5492100131
O   O25       1.0  0.33425  0.79197  0.01277  1.0000 -0.5845126819
O   O26       1.0  0.66575  0.20803  0.98723  1.0000 -0.5845126819
O   O27       1.0  0.66575  0.79197  0.48723  1.0000 -0.5845126819
O   O28       1.0  0.33425  0.20803  0.51277  1.0000 -0.5845126819
O   O29       1.0  0.83425  0.29197  0.01277  1.0000 -0.5845126819
O   O30       1.0  0.16575  0.70803  0.98723  1.0000 -0.5850665878
O   O31       1.0  0.16575  0.29197  0.48723  1.0000 -0.5845126819
O   O32       1.0  0.83425  0.70803  0.51277  1.0000 -0.5850665878
