# DDEC6 charges by PACMAN v1.1 (https://github.com/mtap-research/PACMAN-charge/)
data_2010[Cu][nan]3[ASR]9
_chemical_formula_sum              "Cu8 H12 C32 S4 O32"
_cell_length_a       7.3206
_cell_length_b       18.2483
_cell_length_c       12.0068
_cell_angle_alpha    90
_cell_angle_beta     122.74
_cell_angle_gamma    90

_symmetry_space_group_name_H-M    "P 1"
_symmetry_Int_Tables_number       1

loop_
  _symmetry_equiv_pos_as_xyz
  'x, y, z'

loop_
  _atom_site_type_symbol
  _atom_site_label
  _atom_site_symmetry_multiplicity
  _atom_site_fract_x
  _atom_site_fract_y
  _atom_site_fract_z
  _atom_site_occupancy
  _atom_site_charge
Cu  Cu1       1.0  0.35104  0.09291  0.21741  1.0000 1.047297879
Cu  Cu2       1.0  0.64896  0.59291  0.28259  1.0000 1.047297879
Cu  Cu3       1.0  0.64896  0.90709  0.78259  1.0000 1.047297879
Cu  Cu4       1.0  0.35104  0.40709  0.71741  1.0000 1.047297879
Cu  Cu5       1.0  0.88466  0.06849  0.93517  1.0000 1.1482082445
Cu  Cu6       1.0  0.11534  0.56849  0.56483  1.0000 1.1482082445
Cu  Cu7       1.0  0.11534  0.93151  0.06483  1.0000 1.1482082445
Cu  Cu8       1.0  0.88466  0.43151  0.43517  1.0000 1.1482082445
H   H1        1.0  0.37820  0.30560  0.16940  1.0000 0.1480651872
H   H2        1.0  0.62180  0.80560  0.33060  1.0000 0.1480651872
H   H3        1.0  0.62180  0.69440  0.83060  1.0000 0.1480651872
H   H4        1.0  0.37820  0.19440  0.66940  1.0000 0.1480651872
H   H5        1.0  0.84910  0.29300  0.80060  1.0000 0.1480651872
H   H6        1.0  0.15090  0.79300  0.69940  1.0000 0.1480651872
H   H7        1.0  0.15090  0.70700  0.19940  1.0000 0.1480651872
H   H8        1.0  0.84910  0.20700  0.30060  1.0000 0.1480651872
H   H9        1.0  0.15410  0.48710  0.94360  1.0000 0.1480651872
H   H10       1.0  0.84590  0.98710  0.55640  1.0000 0.1480651872
H   H11       1.0  0.84590  0.51290  0.05640  1.0000 0.1480651872
H   H12       1.0  0.15410  0.01290  0.44360  1.0000 0.1480651872
C   C1        1.0  0.98190  0.39522  0.85320  1.0000 -0.0712796684
C   C2        1.0  0.01810  0.89522  0.64680  1.0000 -0.0712796684
C   C3        1.0  0.01810  0.60478  0.14680  1.0000 -0.0712796684
C   C4        1.0  0.98190  0.10478  0.35320  1.0000 -0.0712796684
C   C5        1.0  0.29470  0.40313  0.07570  1.0000 -0.0083467402
C   C6        1.0  0.70530  0.90313  0.42430  1.0000 -0.0083467402
C   C7        1.0  0.70530  0.59687  0.92430  1.0000 -0.0083467402
C   C8        1.0  0.29470  0.09687  0.57570  1.0000 -0.0083467402
C   C9        1.0  0.27720  0.32832  0.08990  1.0000 -0.0813259556
C   C10       1.0  0.72280  0.82832  0.41010  1.0000 -0.0813259556
C   C11       1.0  0.72280  0.67168  0.91010  1.0000 -0.0813259556
C   C12       1.0  0.27720  0.17168  0.58990  1.0000 -0.0813259556
C   C13       1.0  0.11220  0.28664  0.98800  1.0000 -0.0083467402
C   C14       1.0  0.88780  0.78664  0.51200  1.0000 -0.0083467402
C   C15       1.0  0.88780  0.71336  0.01200  1.0000 -0.0083467402
C   C16       1.0  0.11220  0.21336  0.48800  1.0000 -0.0083467402
C   C17       1.0  0.10320  0.20642  0.01090  1.0000 0.6204529096
C   C18       1.0  0.89680  0.70642  0.48910  1.0000 0.6204529096
C   C19       1.0  0.89680  0.79358  0.98910  1.0000 0.6204529096
C   C20       1.0  0.10320  0.29358  0.51090  1.0000 0.6204529096
C   C21       1.0  0.96170  0.32002  0.86900  1.0000 -0.0813259556
C   C22       1.0  0.03830  0.82002  0.63100  1.0000 -0.0813259556
C   C23       1.0  0.03830  0.67998  0.13100  1.0000 -0.0813259556
C   C24       1.0  0.96170  0.17998  0.36900  1.0000 -0.0813259556
C   C25       1.0  0.14460  0.43717  0.95510  1.0000 -0.0813259556
C   C26       1.0  0.85540  0.93717  0.54490  1.0000 -0.0813259556
C   C27       1.0  0.85540  0.56283  0.04490  1.0000 -0.0813259556
C   C28       1.0  0.14460  0.06283  0.45510  1.0000 -0.0813259556
C   C29       1.0  0.47730  0.44479  0.18750  1.0000 0.6105044324
C   C30       1.0  0.52270  0.94479  0.31250  1.0000 0.6105044324
C   C31       1.0  0.52270  0.55521  0.81250  1.0000 0.6105044324
C   C32       1.0  0.47730  0.05521  0.68750  1.0000 0.6105044324
S   S1        1.0  0.80952  0.43372  0.69499  1.0000 1.1911816735
S   S2        1.0  0.19048  0.93372  0.80501  1.0000 1.1911816735
S   S3        1.0  0.19048  0.56628  0.30501  1.0000 1.1911816735
S   S4        1.0  0.80952  0.06628  0.19499  1.0000 1.1911816735
O   O1        1.0  0.96170  0.16777  0.91600  1.0000 -0.5141224723
O   O2        1.0  0.03830  0.66777  0.58400  1.0000 -0.5176357319
O   O3        1.0  0.03830  0.83223  0.08400  1.0000 -0.5176357319
O   O4        1.0  0.96170  0.33223  0.41600  1.0000 -0.5176357319
O   O5        1.0  0.18590  0.03517  0.05400  1.0000 -0.8909453612
O   O6        1.0  0.81410  0.53517  0.44600  1.0000 -0.8909453612
O   O7        1.0  0.81410  0.96483  0.94600  1.0000 -0.8909453612
O   O8        1.0  0.18590  0.46483  0.55400  1.0000 -0.8909453612
O   O9        1.0  0.50420  0.51029  0.16640  1.0000 -0.5535368185
O   O10       1.0  0.49580  0.01029  0.33360  1.0000 -0.5535368185
O   O11       1.0  0.49580  0.48971  0.83360  1.0000 -0.5535368185
O   O12       1.0  0.50420  0.98971  0.66640  1.0000 -0.5535368185
O   O13       1.0  0.24220  0.18494  0.12660  1.0000 -0.5323899698
O   O14       1.0  0.75780  0.68494  0.37340  1.0000 -0.5323899698
O   O15       1.0  0.75780  0.81506  0.87340  1.0000 -0.5323899698
O   O16       1.0  0.24220  0.31506  0.62660  1.0000 -0.5323899698
O   O17       1.0  0.81710  0.51258  0.70730  1.0000 -0.5176357319
O   O18       1.0  0.18290  0.01258  0.79270  1.0000 -0.5176357319
O   O19       1.0  0.18290  0.48742  0.29270  1.0000 -0.5176357319
O   O20       1.0  0.81710  0.98742  0.20730  1.0000 -0.5176357319
O   O21       1.0  0.59250  0.40956  0.29460  1.0000 -0.498216496
O   O22       1.0  0.40750  0.90956  0.20540  1.0000 -0.498216496
O   O23       1.0  0.40750  0.59044  0.70540  1.0000 -0.498216496
O   O24       1.0  0.59250  0.09044  0.79460  1.0000 -0.498216496
O   O25       1.0  0.90110  0.40655  0.62090  1.0000 -0.6498325925
O   O26       1.0  0.09890  0.90655  0.87910  1.0000 -0.6498325925
O   O27       1.0  0.09890  0.59345  0.37910  1.0000 -0.6498325925
O   O28       1.0  0.90110  0.09345  0.12090  1.0000 -0.6498325925
O   O29       1.0  0.59390  0.40277  0.64270  1.0000 -0.570575298
O   O30       1.0  0.40610  0.90277  0.85730  1.0000 -0.570575298
O   O31       1.0  0.40610  0.59723  0.35730  1.0000 -0.570575298
O   O32       1.0  0.59390  0.09723  0.14270  1.0000 -0.570575298
