# DDEC6 charges by PACMAN v1.1 (https://github.com/mtap-research/PACMAN-charge/)
data_2010[Mn][nan]3[ASR]10
_chemical_formula_sum              "Mn9 H42 C90 O36"
_cell_length_a       19.213
_cell_length_b       19.213
_cell_length_c       19.213
_cell_angle_alpha    113.628
_cell_angle_beta     113.628
_cell_angle_gamma    113.628

_symmetry_space_group_name_H-M    "P 1"
_symmetry_Int_Tables_number       1

loop_
  _symmetry_equiv_pos_as_xyz
  'x, y, z'

loop_
  _atom_site_type_symbol
  _atom_site_label
  _atom_site_symmetry_multiplicity
  _atom_site_fract_x
  _atom_site_fract_y
  _atom_site_fract_z
  _atom_site_occupancy
  _atom_site_charge
Mn  Mn1       1.0  0.07631  0.40477  0.11866  1.0000 0.9965780339
Mn  Mn2       1.0  0.40477  0.11866  0.07631  1.0000 0.9965780339
Mn  Mn3       1.0  0.11866  0.07631  0.40477  1.0000 0.9965780339
Mn  Mn4       1.0  0.92369  0.59523  0.88134  1.0000 0.9965780339
Mn  Mn5       1.0  0.59523  0.88134  0.92369  1.0000 0.9965780339
Mn  Mn6       1.0  0.88134  0.92369  0.59523  1.0000 0.9965780339
Mn  Mn7       1.0  0.00000  0.50000  0.00000  1.0000 1.0545312525
Mn  Mn8       1.0  0.50000  0.00000  0.00000  1.0000 1.055879748
Mn  Mn9       1.0  0.00000  0.00000  0.50000  1.0000 1.0545312525
H   H1        1.0  0.26800  0.71900  0.90290  1.0000 0.1111772469
H   H2        1.0  0.71900  0.90290  0.26800  1.0000 0.1111772469
H   H3        1.0  0.90290  0.26800  0.71900  1.0000 0.1111772469
H   H4        1.0  0.73200  0.28100  0.09710  1.0000 0.1111772469
H   H5        1.0  0.28100  0.09710  0.73200  1.0000 0.1111772469
H   H6        1.0  0.09710  0.73200  0.28100  1.0000 0.1111772469
H   H7        1.0  0.14500  0.56300  0.85850  1.0000 0.1111772469
H   H8        1.0  0.56300  0.85850  0.14500  1.0000 0.1111772469
H   H9        1.0  0.85850  0.14500  0.56300  1.0000 0.1111772469
H   H10       1.0  0.85500  0.43700  0.14150  1.0000 0.1111772469
H   H11       1.0  0.43700  0.14150  0.85500  1.0000 0.1111772469
H   H12       1.0  0.14150  0.85500  0.43700  1.0000 0.1111772469
H   H13       1.0  0.40210  0.62190  0.85540  1.0000 0.1194729438
H   H14       1.0  0.62190  0.85540  0.40210  1.0000 0.1194729438
H   H15       1.0  0.85540  0.40210  0.62190  1.0000 0.1194729438
H   H16       1.0  0.59790  0.37810  0.14460  1.0000 0.1194729438
H   H17       1.0  0.37810  0.14460  0.59790  1.0000 0.1194729438
H   H18       1.0  0.14460  0.59790  0.37810  1.0000 0.1194729438
H   H19       1.0  0.29700  0.47390  0.82080  1.0000 0.1194729438
H   H20       1.0  0.47390  0.82080  0.29700  1.0000 0.1194729438
H   H21       1.0  0.82080  0.29700  0.47390  1.0000 0.1194729438
H   H22       1.0  0.70300  0.52610  0.17920  1.0000 0.1194729438
H   H23       1.0  0.52610  0.17920  0.70300  1.0000 0.1194729438
H   H24       1.0  0.17920  0.70300  0.52610  1.0000 0.1194729438
H   H25       1.0  0.02860  0.21580  0.83730  1.0000 0.1339615496
H   H26       1.0  0.21580  0.83730  0.02860  1.0000 0.1339615496
H   H27       1.0  0.83730  0.02860  0.21580  1.0000 0.1339615496
H   H28       1.0  0.97140  0.78420  0.16270  1.0000 0.1339615496
H   H29       1.0  0.78420  0.16270  0.97140  1.0000 0.1339615496
H   H30       1.0  0.16270  0.97140  0.78420  1.0000 0.1339615496
H   H31       1.0  0.15850  0.50100  0.95170  1.0000 0.1194729438
H   H32       1.0  0.50100  0.95170  0.15850  1.0000 0.1194729438
H   H33       1.0  0.95170  0.15850  0.50100  1.0000 0.1194729438
H   H34       1.0  0.84150  0.49900  0.04830  1.0000 0.1194729438
H   H35       1.0  0.49900  0.04830  0.84150  1.0000 0.1194729438
H   H36       1.0  0.04830  0.84150  0.49900  1.0000 0.1194729438
H   H37       1.0  0.13090  0.31460  0.72080  1.0000 0.1194729438
H   H38       1.0  0.31460  0.72080  0.13090  1.0000 0.1194729438
H   H39       1.0  0.72080  0.13090  0.31460  1.0000 0.1194729438
H   H40       1.0  0.86910  0.68540  0.27920  1.0000 0.1194729438
H   H41       1.0  0.68540  0.27920  0.86910  1.0000 0.1194729438
H   H42       1.0  0.27920  0.86910  0.68540  1.0000 0.1194729438
C   C1        1.0  0.41130  0.77350  0.89800  1.0000 0.5874316911
C   C2        1.0  0.77350  0.89800  0.41130  1.0000 0.5874316911
C   C3        1.0  0.89800  0.41130  0.77350  1.0000 0.5874316911
C   C4        1.0  0.58870  0.22650  0.10200  1.0000 0.5874316911
C   C5        1.0  0.22650  0.10200  0.58870  1.0000 0.5874316911
C   C6        1.0  0.10200  0.58870  0.22650  1.0000 0.5874316911
C   C7        1.0  0.34140  0.67840  0.87670  1.0000 -0.0289694478
C   C8        1.0  0.67840  0.87670  0.34140  1.0000 -0.0289694478
C   C9        1.0  0.87670  0.34140  0.67840  1.0000 -0.0289694478
C   C10       1.0  0.65860  0.32160  0.12330  1.0000 -0.0289694478
C   C11       1.0  0.32160  0.12330  0.65860  1.0000 -0.0289694478
C   C12       1.0  0.12330  0.65860  0.32160  1.0000 -0.0289694478
C   C13       1.0  0.27070  0.66810  0.88390  1.0000 -0.0915299593
C   C14       1.0  0.66810  0.88390  0.27070  1.0000 -0.0915299593
C   C15       1.0  0.88390  0.27070  0.66810  1.0000 -0.0915299593
C   C16       1.0  0.72930  0.33190  0.11610  1.0000 -0.0915299593
C   C17       1.0  0.33190  0.11610  0.72930  1.0000 -0.0915299593
C   C18       1.0  0.11610  0.72930  0.33190  1.0000 -0.0915299593
C   C19       1.0  0.19840  0.57590  0.86120  1.0000 -0.1432483234
C   C20       1.0  0.57590  0.86120  0.19840  1.0000 -0.1432483234
C   C21       1.0  0.86120  0.19840  0.57590  1.0000 -0.1432483234
C   C22       1.0  0.80160  0.42410  0.13880  1.0000 -0.1432483234
C   C23       1.0  0.42410  0.13880  0.80160  1.0000 -0.1432483234
C   C24       1.0  0.13880  0.80160  0.42410  1.0000 -0.1432483234
C   C25       1.0  0.21620  0.50840  0.84400  1.0000 0.0726210387
C   C26       1.0  0.50840  0.84400  0.21620  1.0000 0.0726210387
C   C27       1.0  0.84400  0.21620  0.50840  1.0000 0.0726210387
C   C28       1.0  0.78380  0.49160  0.15600  1.0000 0.0726210387
C   C29       1.0  0.49160  0.15600  0.78380  1.0000 0.0726210387
C   C30       1.0  0.15600  0.78380  0.49160  1.0000 0.0726210387
C   C31       1.0  0.35100  0.61020  0.85670  1.0000 -0.0954045779
C   C32       1.0  0.61020  0.85670  0.35100  1.0000 -0.0954045779
C   C33       1.0  0.85670  0.35100  0.61020  1.0000 -0.0954045779
C   C34       1.0  0.64900  0.38980  0.14330  1.0000 -0.0954045779
C   C35       1.0  0.38980  0.14330  0.64900  1.0000 -0.0954045779
C   C36       1.0  0.14330  0.64900  0.38980  1.0000 -0.0954045779
C   C37       1.0  0.28940  0.52140  0.83730  1.0000 -0.1560288457
C   C38       1.0  0.52140  0.83730  0.28940  1.0000 -0.1560288457
C   C39       1.0  0.83730  0.28940  0.52140  1.0000 -0.1560288457
C   C40       1.0  0.71060  0.47860  0.16270  1.0000 -0.1560288457
C   C41       1.0  0.47860  0.16270  0.71060  1.0000 -0.1560288457
C   C42       1.0  0.16270  0.71060  0.47860  1.0000 -0.1560288457
C   C43       1.0  0.03270  0.14460  0.68660  1.0000 0.5874316911
C   C44       1.0  0.14460  0.68660  0.03270  1.0000 0.5874316911
C   C45       1.0  0.68660  0.03270  0.14460  1.0000 0.5874316911
C   C46       1.0  0.96730  0.85540  0.31340  1.0000 0.5874316911
C   C47       1.0  0.85540  0.31340  0.96730  1.0000 0.5874316911
C   C48       1.0  0.31340  0.96730  0.85540  1.0000 0.5874316911
C   C49       1.0  0.07470  0.25120  0.76480  1.0000 -0.0118221058
C   C50       1.0  0.25120  0.76480  0.07470  1.0000 -0.0118221058
C   C51       1.0  0.76480  0.07470  0.25120  1.0000 -0.0118221058
C   C52       1.0  0.92530  0.74880  0.23520  1.0000 -0.0118221058
C   C53       1.0  0.74880  0.23520  0.92530  1.0000 -0.0118221058
C   C54       1.0  0.23520  0.92530  0.74880  1.0000 -0.0118221058
C   C55       1.0  0.06050  0.26820  0.83850  1.0000 -0.1200903071
C   C56       1.0  0.26820  0.83850  0.06050  1.0000 -0.1200903071
C   C57       1.0  0.83850  0.06050  0.26820  1.0000 -0.1200903071
C   C58       1.0  0.93950  0.73180  0.16150  1.0000 -0.1200903071
C   C59       1.0  0.73180  0.16150  0.93950  1.0000 -0.1200903071
C   C60       1.0  0.16150  0.93950  0.73180  1.0000 -0.1200903071
C   C61       1.0  0.09470  0.36130  0.90800  1.0000 -0.0289694478
C   C62       1.0  0.36130  0.90800  0.09470  1.0000 -0.0289694478
C   C63       1.0  0.90800  0.09470  0.36130  1.0000 -0.0289694478
C   C64       1.0  0.90530  0.63870  0.09200  1.0000 -0.0289694478
C   C65       1.0  0.63870  0.09200  0.90530  1.0000 -0.0289694478
C   C66       1.0  0.09200  0.90530  0.63870  1.0000 -0.0289694478
C   C67       1.0  0.13910  0.43890  0.90720  1.0000 -0.1519476449
C   C68       1.0  0.43890  0.90720  0.13910  1.0000 -0.1519476449
C   C69       1.0  0.90720  0.13910  0.43890  1.0000 -0.1519476449
C   C70       1.0  0.86090  0.56110  0.09280  1.0000 -0.1519476449
C   C71       1.0  0.56110  0.09280  0.86090  1.0000 -0.1519476449
C   C72       1.0  0.09280  0.86090  0.56110  1.0000 -0.1519476449
C   C73       1.0  0.15470  0.42180  0.83670  1.0000 0.075604322
C   C74       1.0  0.42180  0.83670  0.15470  1.0000 0.075604322
C   C75       1.0  0.83670  0.15470  0.42180  1.0000 0.075604322
C   C76       1.0  0.84530  0.57820  0.16330  1.0000 0.075604322
C   C77       1.0  0.57820  0.16330  0.84530  1.0000 0.075604322
C   C78       1.0  0.16330  0.84530  0.57820  1.0000 0.075604322
C   C79       1.0  0.12090  0.32580  0.76640  1.0000 -0.1519476449
C   C80       1.0  0.32580  0.76640  0.12090  1.0000 -0.1519476449
C   C81       1.0  0.76640  0.12090  0.32580  1.0000 -0.1519476449
C   C82       1.0  0.87910  0.67420  0.23360  1.0000 -0.1519476449
C   C83       1.0  0.67420  0.23360  0.87910  1.0000 -0.1519476449
C   C84       1.0  0.23360  0.87910  0.67420  1.0000 -0.1519476449
C   C85       1.0  0.08560  0.38380  0.98580  1.0000 0.5874316911
C   C86       1.0  0.38380  0.98580  0.08560  1.0000 0.5874316911
C   C87       1.0  0.98580  0.08560  0.38380  1.0000 0.5874316911
C   C88       1.0  0.91440  0.61620  0.01420  1.0000 0.584503627
C   C89       1.0  0.61620  0.01420  0.91440  1.0000 0.5874316911
C   C90       1.0  0.01420  0.91440  0.61620  1.0000 0.5874316911
O   O1        1.0  0.08970  0.45510  0.03130  1.0000 -0.5683396
O   O2        1.0  0.45510  0.03130  0.08970  1.0000 -0.5683396
O   O3        1.0  0.03130  0.08970  0.45510  1.0000 -0.5683396
O   O4        1.0  0.91030  0.54490  0.96870  1.0000 -0.5683396
O   O5        1.0  0.54490  0.96870  0.91030  1.0000 -0.5683396
O   O6        1.0  0.96870  0.91030  0.54490  1.0000 -0.5683396
O   O7        1.0  0.04310  0.12700  0.62390  1.0000 -0.5388891834
O   O8        1.0  0.12700  0.62390  0.04310  1.0000 -0.5388891834
O   O9        1.0  0.62390  0.04310  0.12700  1.0000 -0.5388891834
O   O10       1.0  0.95690  0.87300  0.37610  1.0000 -0.5388891834
O   O11       1.0  0.87300  0.37610  0.95690  1.0000 -0.5388891834
O   O12       1.0  0.37610  0.95690  0.87300  1.0000 -0.5388891834
O   O13       1.0  0.41210  0.84250  0.93110  1.0000 -0.5114730237
O   O14       1.0  0.84250  0.93110  0.41210  1.0000 -0.5114730237
O   O15       1.0  0.93110  0.41210  0.84250  1.0000 -0.5114730237
O   O16       1.0  0.58790  0.15750  0.06890  1.0000 -0.5114730237
O   O17       1.0  0.15750  0.06890  0.58790  1.0000 -0.5114730237
O   O18       1.0  0.06890  0.58790  0.15750  1.0000 -0.5114730237
O   O19       1.0  0.47300  0.77740  0.88850  1.0000 -0.5490737794
O   O20       1.0  0.77740  0.88850  0.47300  1.0000 -0.5490737794
O   O21       1.0  0.88850  0.47300  0.77740  1.0000 -0.5490737794
O   O22       1.0  0.52700  0.22260  0.11150  1.0000 -0.5490737794
O   O23       1.0  0.22260  0.11150  0.52700  1.0000 -0.5490737794
O   O24       1.0  0.11150  0.52700  0.22260  1.0000 -0.5490737794
O   O25       1.0  0.98430  0.08150  0.69280  1.0000 -0.5895901559
O   O26       1.0  0.08150  0.69280  0.98430  1.0000 -0.5895901559
O   O27       1.0  0.69280  0.98430  0.08150  1.0000 -0.5895901559
O   O28       1.0  0.01570  0.91850  0.30720  1.0000 -0.5895901559
O   O29       1.0  0.91850  0.30720  0.01570  1.0000 -0.5895901559
O   O30       1.0  0.30720  0.01570  0.91850  1.0000 -0.5895901559
O   O31       1.0  0.07800  0.32490  0.00340  1.0000 -0.5309846042
O   O32       1.0  0.32490  0.00340  0.07800  1.0000 -0.5309846042
O   O33       1.0  0.00340  0.07800  0.32490  1.0000 -0.5309846042
O   O34       1.0  0.92200  0.67510  0.99660  1.0000 -0.5309846042
O   O35       1.0  0.67510  0.99660  0.92200  1.0000 -0.5309846042
O   O36       1.0  0.99660  0.92200  0.67510  1.0000 -0.5309846042
