# DDEC6 charges by PACMAN v1.1 (https://github.com/mtap-research/PACMAN-charge/)
data_2010[Cr][tbo]3[ASR]2
_chemical_formula_sum              "Cr12 H24 C72 O48"
_cell_length_a       18.3535
_cell_length_b       18.3535
_cell_length_c       18.3535
_cell_angle_alpha    60
_cell_angle_beta     60
_cell_angle_gamma    60

_symmetry_space_group_name_H-M    "P 1"
_symmetry_Int_Tables_number       1

loop_
  _symmetry_equiv_pos_as_xyz
  'x, y, z'

loop_
  _atom_site_type_symbol
  _atom_site_label
  _atom_site_symmetry_multiplicity
  _atom_site_fract_x
  _atom_site_fract_y
  _atom_site_fract_z
  _atom_site_occupancy
  _atom_site_charge
Cr  Cr1       1.0  0.00000  0.00000  0.57600  1.0000 1.0657548508
Cr  Cr2       1.0  0.57600  0.42400  0.00000  1.0000 1.0644809803
Cr  Cr3       1.0  0.00000  0.00000  0.42400  1.0000 1.0657548508
Cr  Cr4       1.0  0.42400  0.57600  0.00000  1.0000 1.0644809803
Cr  Cr5       1.0  1.00000  0.42400  0.57600  1.0000 1.0657548508
Cr  Cr6       1.0  0.57600  0.00000  0.00000  1.0000 1.0657548508
Cr  Cr7       1.0  0.00000  0.57600  0.00000  1.0000 1.0644809803
Cr  Cr8       1.0  0.42400  0.00000  0.00000  1.0000 1.0657548508
Cr  Cr9       1.0  0.00000  0.42400  0.00000  1.0000 1.0644809803
Cr  Cr10      1.0  1.00000  0.57600  0.42400  1.0000 1.0657548508
Cr  Cr11      1.0  0.42400  0.00000  0.57600  1.0000 1.0657548508
Cr  Cr12      1.0  0.57600  0.00000  0.42400  1.0000 1.0657548508
H   H1        1.0  0.73369  0.02473  0.73369  1.0000 0.1611735424
H   H2        1.0  0.73369  0.50789  0.73369  1.0000 0.1611735424
H   H3        1.0  0.02473  0.73369  0.50789  1.0000 0.1611735424
H   H4        1.0  0.50789  0.73369  0.02473  1.0000 0.1611735424
H   H5        1.0  0.49211  0.26631  0.26631  1.0000 0.1611735424
H   H6        1.0  0.26631  0.49211  0.97527  1.0000 0.1611735424
H   H7        1.0  0.97527  0.26631  0.49211  1.0000 0.1611735424
H   H8        1.0  0.49211  0.26631  0.97527  1.0000 0.1611735424
H   H9        1.0  0.26631  0.97527  0.49211  1.0000 0.1611735424
H   H10       1.0  0.97527  0.26631  0.26631  1.0000 0.1611735424
H   H11       1.0  0.73369  0.73369  0.02473  1.0000 0.1611735424
H   H12       1.0  0.02473  0.73369  0.73369  1.0000 0.1611735424
H   H13       1.0  0.26631  0.97527  0.26631  1.0000 0.1611735424
H   H14       1.0  0.26631  0.26631  0.97527  1.0000 0.1611735424
H   H15       1.0  0.73369  0.73369  0.50789  1.0000 0.1611735424
H   H16       1.0  0.50789  0.02473  0.73369  1.0000 0.1611735424
H   H17       1.0  0.02473  0.50789  0.73369  1.0000 0.1611735424
H   H18       1.0  0.50789  0.73369  0.73369  1.0000 0.1611735424
H   H19       1.0  0.73369  0.50789  0.02473  1.0000 0.1611735424
H   H20       1.0  0.73369  0.02473  0.50789  1.0000 0.1611735424
H   H21       1.0  0.49211  0.97527  0.26631  1.0000 0.1611735424
H   H22       1.0  0.97527  0.49211  0.26631  1.0000 0.1611735424
H   H23       1.0  0.26631  0.26631  0.49211  1.0000 0.1611735424
H   H24       1.0  0.26631  0.49211  0.26631  1.0000 0.1611735424
C   C1        1.0  0.83573  0.02257  0.57085  1.0000 0.5160475846
C   C2        1.0  0.57085  0.57085  0.83573  1.0000 0.5160475846
C   C3        1.0  0.02257  0.83573  0.57085  1.0000 0.5160475846
C   C4        1.0  0.57085  0.57085  0.02257  1.0000 0.5160475846
C   C5        1.0  0.42915  0.42915  0.16427  1.0000 0.5160475846
C   C6        1.0  0.42915  0.42915  0.97743  1.0000 0.5160475846
C   C7        1.0  0.97743  0.42915  0.42915  1.0000 0.5160475846
C   C8        1.0  0.42915  0.16427  0.97743  1.0000 0.5160475846
C   C9        1.0  0.16427  0.97743  0.42915  1.0000 0.5160475846
C   C10       1.0  0.97743  0.16427  0.42915  1.0000 0.5160475846
C   C11       1.0  0.57085  0.83573  0.02257  1.0000 0.5160475846
C   C12       1.0  0.02257  0.57085  0.83573  1.0000 0.5160475846
C   C13       1.0  0.42915  0.97743  0.16427  1.0000 0.5160475846
C   C14       1.0  0.16427  0.42915  0.97743  1.0000 0.5160475846
C   C15       1.0  0.83573  0.57085  0.57085  1.0000 0.5160475846
C   C16       1.0  0.57085  0.02257  0.83573  1.0000 0.5160475846
C   C17       1.0  0.02257  0.57085  0.57085  1.0000 0.5160475846
C   C18       1.0  0.57085  0.83573  0.57085  1.0000 0.5160475846
C   C19       1.0  0.83573  0.57085  0.02257  1.0000 0.5160475846
C   C20       1.0  0.57085  0.02257  0.57085  1.0000 0.5160475846
C   C21       1.0  0.42915  0.97743  0.42915  1.0000 0.5160475846
C   C22       1.0  0.97743  0.42915  0.16427  1.0000 0.5160475846
C   C23       1.0  0.42915  0.16427  0.42915  1.0000 0.5160475846
C   C24       1.0  0.16427  0.42915  0.42915  1.0000 0.5160475846
C   C25       1.0  0.74148  0.03044  0.61404  1.0000 -0.001008659
C   C26       1.0  0.61404  0.61404  0.74148  1.0000 -0.001008659
C   C27       1.0  0.03044  0.74148  0.61404  1.0000 0.0002833953
C   C28       1.0  0.61404  0.61404  0.03044  1.0000 -0.001008659
C   C29       1.0  0.38596  0.38596  0.25852  1.0000 -0.001008659
C   C30       1.0  0.38596  0.38596  0.96956  1.0000 -0.001008659
C   C31       1.0  0.96956  0.38596  0.38596  1.0000 -0.001008659
C   C32       1.0  0.38596  0.25852  0.96956  1.0000 -0.001008659
C   C33       1.0  0.25852  0.96956  0.38596  1.0000 -0.001008659
C   C34       1.0  0.96956  0.25852  0.38596  1.0000 -0.001008659
C   C35       1.0  0.61404  0.74148  0.03044  1.0000 -0.001008659
C   C36       1.0  0.03044  0.61404  0.74148  1.0000 -0.001008659
C   C37       1.0  0.38596  0.96956  0.25852  1.0000 -0.001008659
C   C38       1.0  0.25852  0.38596  0.96956  1.0000 -0.001008659
C   C39       1.0  0.74148  0.61404  0.61404  1.0000 -0.001008659
C   C40       1.0  0.61404  0.03044  0.74148  1.0000 -0.001008659
C   C41       1.0  0.03044  0.61404  0.61404  1.0000 -0.001008659
C   C42       1.0  0.61404  0.74148  0.61404  1.0000 0.0002833953
C   C43       1.0  0.74148  0.61404  0.03044  1.0000 -0.001008659
C   C44       1.0  0.61404  0.03044  0.61404  1.0000 -0.001008659
C   C45       1.0  0.38596  0.96956  0.38596  1.0000 -0.001008659
C   C46       1.0  0.96956  0.38596  0.25852  1.0000 -0.001008659
C   C47       1.0  0.38596  0.25852  0.38596  1.0000 -0.001008659
C   C48       1.0  0.25852  0.38596  0.38596  1.0000 -0.001008659
C   C49       1.0  0.70056  0.02866  0.70056  1.0000 -0.077932729
C   C50       1.0  0.70056  0.57022  0.70056  1.0000 -0.077932729
C   C51       1.0  0.02866  0.70056  0.57022  1.0000 -0.077932729
C   C52       1.0  0.57022  0.70056  0.02866  1.0000 -0.077932729
C   C53       1.0  0.42978  0.29944  0.29944  1.0000 -0.077932729
C   C54       1.0  0.29944  0.42978  0.97134  1.0000 -0.077932729
C   C55       1.0  0.97134  0.29944  0.42978  1.0000 -0.077932729
C   C56       1.0  0.42978  0.29944  0.97134  1.0000 -0.077932729
C   C57       1.0  0.29944  0.97134  0.42978  1.0000 -0.077932729
C   C58       1.0  0.97134  0.29944  0.29944  1.0000 -0.077932729
C   C59       1.0  0.70056  0.70056  0.02866  1.0000 -0.077932729
C   C60       1.0  0.02866  0.70056  0.70056  1.0000 -0.077932729
C   C61       1.0  0.29944  0.97134  0.29944  1.0000 -0.077932729
C   C62       1.0  0.29944  0.29944  0.97134  1.0000 -0.077932729
C   C63       1.0  0.70056  0.70056  0.57022  1.0000 -0.077932729
C   C64       1.0  0.57022  0.02866  0.70056  1.0000 -0.077932729
C   C65       1.0  0.02866  0.57022  0.70056  1.0000 -0.077932729
C   C66       1.0  0.57022  0.70056  0.70056  1.0000 -0.077932729
C   C67       1.0  0.70056  0.57022  0.02866  1.0000 -0.077932729
C   C68       1.0  0.70056  0.02866  0.57022  1.0000 -0.077932729
C   C69       1.0  0.42978  0.97134  0.29944  1.0000 -0.077932729
C   C70       1.0  0.97134  0.42978  0.29944  1.0000 -0.077932729
C   C71       1.0  0.29944  0.29944  0.42978  1.0000 -0.077932729
C   C72       1.0  0.29944  0.42978  0.29944  1.0000 -0.077932729
O   O1        1.0  0.87110  0.01450  0.62510  1.0000 -0.5655262619
O   O2        1.0  0.62510  0.48930  0.87110  1.0000 -0.5655262619
O   O3        1.0  0.01450  0.87110  0.48930  1.0000 -0.5655262619
O   O4        1.0  0.48930  0.62510  0.01450  1.0000 -0.5655262619
O   O5        1.0  0.51070  0.37490  0.12890  1.0000 -0.5655262619
O   O6        1.0  0.37490  0.51070  0.98550  1.0000 -0.5655262619
O   O7        1.0  0.98550  0.37490  0.51070  1.0000 -0.5655262619
O   O8        1.0  0.51070  0.12890  0.98550  1.0000 -0.5655262619
O   O9        1.0  0.12890  0.98550  0.51070  1.0000 -0.5655262619
O   O10       1.0  0.98550  0.12890  0.37490  1.0000 -0.5655262619
O   O11       1.0  0.62510  0.87110  0.01450  1.0000 -0.5655262619
O   O12       1.0  0.01450  0.62510  0.87110  1.0000 -0.5655262619
O   O13       1.0  0.37490  0.98550  0.12890  1.0000 -0.5655262619
O   O14       1.0  0.12890  0.37490  0.98550  1.0000 -0.5655262619
O   O15       1.0  0.87110  0.62510  0.48930  1.0000 -0.5655262619
O   O16       1.0  0.48930  0.01450  0.87110  1.0000 -0.5655262619
O   O17       1.0  0.01450  0.48930  0.62510  1.0000 -0.5655262619
O   O18       1.0  0.48930  0.87110  0.62510  1.0000 -0.5655262619
O   O19       1.0  0.87110  0.48930  0.01450  1.0000 -0.5655262619
O   O20       1.0  0.62510  0.01450  0.48930  1.0000 -0.5655262619
O   O21       1.0  0.51070  0.98550  0.37490  1.0000 -0.5655262619
O   O22       1.0  0.98550  0.51070  0.12890  1.0000 -0.5655262619
O   O23       1.0  0.37490  0.12890  0.51070  1.0000 -0.5655262619
O   O24       1.0  0.12890  0.51070  0.37490  1.0000 -0.5655262619
O   O25       1.0  0.12890  0.98550  0.37490  1.0000 -0.5655262619
O   O26       1.0  0.37490  0.51070  0.12890  1.0000 -0.5655262619
O   O27       1.0  0.98550  0.12890  0.51070  1.0000 -0.5655262619
O   O28       1.0  0.51070  0.37490  0.98550  1.0000 -0.5655262619
O   O29       1.0  0.48930  0.62510  0.87110  1.0000 -0.5655262619
O   O30       1.0  0.62510  0.48930  0.01450  1.0000 -0.5655262619
O   O31       1.0  0.01450  0.62510  0.48930  1.0000 -0.5655262619
O   O32       1.0  0.48930  0.87110  0.01450  1.0000 -0.5655262619
O   O33       1.0  0.87110  0.01450  0.48930  1.0000 -0.5655262619
O   O34       1.0  0.01450  0.87110  0.62510  1.0000 -0.5655262619
O   O35       1.0  0.37490  0.12890  0.98550  1.0000 -0.5655262619
O   O36       1.0  0.98550  0.37490  0.12890  1.0000 -0.5655262619
O   O37       1.0  0.62510  0.01450  0.87110  1.0000 -0.5655262619
O   O38       1.0  0.87110  0.62510  0.01450  1.0000 -0.5655262619
O   O39       1.0  0.12890  0.37490  0.51070  1.0000 -0.5655262619
O   O40       1.0  0.51070  0.98550  0.12890  1.0000 -0.5655262619
O   O41       1.0  0.98550  0.51070  0.37490  1.0000 -0.5655262619
O   O42       1.0  0.51070  0.12890  0.37490  1.0000 -0.5655262619
O   O43       1.0  0.12890  0.51070  0.98550  1.0000 -0.5655262619
O   O44       1.0  0.37490  0.98550  0.51070  1.0000 -0.5655262619
O   O45       1.0  0.48930  0.01450  0.62510  1.0000 -0.5655262619
O   O46       1.0  0.01450  0.48930  0.87110  1.0000 -0.5655262619
O   O47       1.0  0.62510  0.87110  0.48930  1.0000 -0.5655262619
O   O48       1.0  0.87110  0.48930  0.62510  1.0000 -0.5655262619
