# DDEC6 charges by PACMAN v1.1 (https://github.com/mtap-research/PACMAN-charge/)
data_2010[Zn][pts]3[ASR]4
_chemical_formula_sum              "Zn4 H48 C80 N4 O16"
_cell_length_a       19.8193
_cell_length_b       19.8193
_cell_length_c       23.023
_cell_angle_alpha    90
_cell_angle_beta     90
_cell_angle_gamma    126.138

_symmetry_space_group_name_H-M    "P 1"
_symmetry_Int_Tables_number       1

loop_
  _symmetry_equiv_pos_as_xyz
  'x, y, z'

loop_
  _atom_site_type_symbol
  _atom_site_label
  _atom_site_symmetry_multiplicity
  _atom_site_fract_x
  _atom_site_fract_y
  _atom_site_fract_z
  _atom_site_occupancy
  _atom_site_charge
Zn  Zn1       1.0  0.47809  0.91465  0.00000  1.0000 0.9471053174
Zn  Zn2       1.0  0.52191  0.08535  0.00000  1.0000 0.9471053174
Zn  Zn3       1.0  0.08535  0.52191  0.50000  1.0000 0.9471053174
Zn  Zn4       1.0  0.91465  0.47809  0.50000  1.0000 0.9471053174
H   H1        1.0  0.27740  0.80820  0.12770  1.0000 0.1208308926
H   H2        1.0  0.72260  0.19180  0.12770  1.0000 0.1208308926
H   H3        1.0  0.19180  0.72260  0.37230  1.0000 0.1208308926
H   H4        1.0  0.80820  0.27740  0.37230  1.0000 0.1208308926
H   H5        1.0  0.72260  0.19180  0.87230  1.0000 0.1208308926
H   H6        1.0  0.27740  0.80820  0.87230  1.0000 0.1208308926
H   H7        1.0  0.80820  0.27740  0.62770  1.0000 0.1208308926
H   H8        1.0  0.19180  0.72260  0.62770  1.0000 0.1208308926
H   H9        1.0  0.24920  0.00280  0.20550  1.0000 0.1292711636
H   H10       1.0  0.75080  0.99720  0.20550  1.0000 0.1292711636
H   H11       1.0  0.99720  0.75080  0.29450  1.0000 0.1292711636
H   H12       1.0  0.00280  0.24920  0.29450  1.0000 0.1292711636
H   H13       1.0  0.75080  0.99720  0.79450  1.0000 0.1292711636
H   H14       1.0  0.24920  0.00280  0.79450  1.0000 0.1292711636
H   H15       1.0  0.00280  0.24920  0.70550  1.0000 0.1292711636
H   H16       1.0  0.99720  0.75080  0.70550  1.0000 0.1292711636
H   H17       1.0  0.34760  0.04220  0.13400  1.0000 0.1208308926
H   H18       1.0  0.65240  0.95780  0.13400  1.0000 0.1208308926
H   H19       1.0  0.95780  0.65240  0.36600  1.0000 0.1208308926
H   H20       1.0  0.04220  0.34760  0.36600  1.0000 0.1208308926
H   H21       1.0  0.65240  0.95780  0.86600  1.0000 0.1208308926
H   H22       1.0  0.34760  0.04220  0.86600  1.0000 0.1208308926
H   H23       1.0  0.04220  0.34760  0.63400  1.0000 0.1208308926
H   H24       1.0  0.95780  0.65240  0.63400  1.0000 0.1208308926
H   H25       1.0  0.17610  0.76790  0.19490  1.0000 0.1292711636
H   H26       1.0  0.82390  0.23210  0.19490  1.0000 0.1292711636
H   H27       1.0  0.23210  0.82390  0.30510  1.0000 0.1292711636
H   H28       1.0  0.76790  0.17610  0.30510  1.0000 0.1292711636
H   H29       1.0  0.82390  0.23210  0.80510  1.0000 0.1292711636
H   H30       1.0  0.17610  0.76790  0.80510  1.0000 0.1292711636
H   H31       1.0  0.76790  0.17610  0.69490  1.0000 0.1292711636
H   H32       1.0  0.23210  0.82390  0.69490  1.0000 0.1292711636
H   H33       1.0  0.06960  0.88340  0.16570  1.0000 0.1381482559
H   H34       1.0  0.93040  0.11660  0.16570  1.0000 0.1381482559
H   H35       1.0  0.11660  0.93040  0.33430  1.0000 0.1381482559
H   H36       1.0  0.88340  0.06960  0.33430  1.0000 0.1381482559
H   H37       1.0  0.93040  0.11660  0.83430  1.0000 0.1381482559
H   H38       1.0  0.06960  0.88340  0.83430  1.0000 0.1381482559
H   H39       1.0  0.88340  0.06960  0.66570  1.0000 0.1381482559
H   H40       1.0  0.11660  0.93040  0.66570  1.0000 0.1381482559
H   H41       1.0  0.00590  0.94870  0.16570  1.0000 0.1208308926
H   H42       1.0  0.99410  0.05130  0.16570  1.0000 0.1208308926
H   H43       1.0  0.05130  0.99410  0.33430  1.0000 0.1208308926
H   H44       1.0  0.94870  0.00590  0.33430  1.0000 0.1208308926
H   H45       1.0  0.99410  0.05130  0.83430  1.0000 0.1208308926
H   H46       1.0  0.00590  0.94870  0.83430  1.0000 0.1208308926
H   H47       1.0  0.94870  0.00590  0.66570  1.0000 0.1208308926
H   H48       1.0  0.05130  0.99410  0.66570  1.0000 0.1208308926
C   C1        1.0  0.38838  0.95372  0.07848  1.0000 0.5905726096
C   C2        1.0  0.61162  0.04628  0.07848  1.0000 0.5905726096
C   C3        1.0  0.04628  0.61162  0.42152  1.0000 0.5905726096
C   C4        1.0  0.95372  0.38838  0.42152  1.0000 0.5905726096
C   C5        1.0  0.61162  0.04628  0.92152  1.0000 0.5905726096
C   C6        1.0  0.38838  0.95372  0.92152  1.0000 0.5905726096
C   C7        1.0  0.95372  0.38838  0.57848  1.0000 0.5905726096
C   C8        1.0  0.04628  0.61162  0.57848  1.0000 0.5905726096
C   C9        1.0  0.32448  0.92926  0.12303  1.0000 -0.078522035
C   C10       1.0  0.67552  0.07074  0.12303  1.0000 -0.078522035
C   C11       1.0  0.07074  0.67552  0.37697  1.0000 -0.078522035
C   C12       1.0  0.92926  0.32448  0.37697  1.0000 -0.078522035
C   C13       1.0  0.67552  0.07074  0.87697  1.0000 -0.078522035
C   C14       1.0  0.32448  0.92926  0.87697  1.0000 -0.078522035
C   C15       1.0  0.92926  0.32448  0.62303  1.0000 -0.078522035
C   C16       1.0  0.07074  0.67552  0.62303  1.0000 -0.078522035
C   C17       1.0  0.27158  0.84796  0.14279  1.0000 -0.0688581387
C   C18       1.0  0.72842  0.15204  0.14279  1.0000 -0.0688581387
C   C19       1.0  0.15204  0.72842  0.35721  1.0000 -0.0688581387
C   C20       1.0  0.84796  0.27158  0.35721  1.0000 -0.0688581387
C   C21       1.0  0.72842  0.15204  0.85721  1.0000 -0.0688581387
C   C22       1.0  0.27158  0.84796  0.85721  1.0000 -0.0688581387
C   C23       1.0  0.84796  0.27158  0.64279  1.0000 -0.0688581387
C   C24       1.0  0.15204  0.72842  0.64279  1.0000 -0.0688581387
C   C25       1.0  0.20229  0.88269  0.20807  1.0000 0.174846082
C   C26       1.0  0.79771  0.11731  0.20807  1.0000 0.174846082
C   C27       1.0  0.11731  0.79771  0.29193  1.0000 0.174846082
C   C28       1.0  0.88269  0.20229  0.29193  1.0000 0.174846082
C   C29       1.0  0.79771  0.11731  0.79193  1.0000 0.1757501801
C   C30       1.0  0.20229  0.88269  0.79193  1.0000 0.174846082
C   C31       1.0  0.88269  0.20229  0.70807  1.0000 0.1757501801
C   C32       1.0  0.11731  0.79771  0.70807  1.0000 0.174846082
C   C33       1.0  0.25405  0.96275  0.18934  1.0000 -0.1931282217
C   C34       1.0  0.74595  0.03725  0.18934  1.0000 -0.1931282217
C   C35       1.0  0.03725  0.74595  0.31066  1.0000 -0.1931282217
C   C36       1.0  0.96275  0.25405  0.31066  1.0000 -0.1931282217
C   C37       1.0  0.74595  0.03725  0.81066  1.0000 -0.1931282217
C   C38       1.0  0.25405  0.96275  0.81066  1.0000 -0.1931282217
C   C39       1.0  0.96275  0.25405  0.68934  1.0000 -0.1931282217
C   C40       1.0  0.03725  0.74595  0.68934  1.0000 -0.1931282217
C   C41       1.0  0.31419  0.98703  0.14667  1.0000 -0.0688581387
C   C42       1.0  0.68581  0.01297  0.14667  1.0000 -0.0688581387
C   C43       1.0  0.01297  0.68581  0.35333  1.0000 -0.0688581387
C   C44       1.0  0.98703  0.31419  0.35333  1.0000 -0.0688581387
C   C45       1.0  0.68581  0.01297  0.85333  1.0000 -0.0688581387
C   C46       1.0  0.31419  0.98703  0.85333  1.0000 -0.0688581387
C   C47       1.0  0.98703  0.31419  0.64667  1.0000 -0.0688581387
C   C48       1.0  0.01297  0.68581  0.64667  1.0000 -0.0688581387
C   C49       1.0  0.21121  0.82359  0.18348  1.0000 -0.1931282217
C   C50       1.0  0.78879  0.17641  0.18348  1.0000 -0.1931282217
C   C51       1.0  0.17641  0.78879  0.31652  1.0000 -0.1931282217
C   C52       1.0  0.82359  0.21121  0.31652  1.0000 -0.1931282217
C   C53       1.0  0.78879  0.17641  0.81652  1.0000 -0.1931282217
C   C54       1.0  0.21121  0.82359  0.81652  1.0000 -0.1931282217
C   C55       1.0  0.82359  0.21121  0.68348  1.0000 -0.1931282217
C   C56       1.0  0.17641  0.78879  0.68348  1.0000 -0.1931282217
C   C57       1.0  0.09989  0.90011  0.25000  1.0000 0.1381482559
C   C58       1.0  0.90011  0.09989  0.25000  1.0000 0.1381482559
C   C59       1.0  0.90011  0.09989  0.75000  1.0000 0.1381482559
C   C60       1.0  0.09989  0.90011  0.75000  1.0000 0.1381482559
C   C61       1.0  0.06630  0.90604  0.20005  1.0000 -0.176564225
C   C62       1.0  0.93370  0.09396  0.20005  1.0000 -0.176564225
C   C63       1.0  0.09396  0.93370  0.29995  1.0000 -0.176564225
C   C64       1.0  0.90604  0.06630  0.29995  1.0000 -0.176564225
C   C65       1.0  0.93370  0.09396  0.79995  1.0000 -0.176564225
C   C66       1.0  0.06630  0.90604  0.79995  1.0000 -0.176564225
C   C67       1.0  0.90604  0.06630  0.70005  1.0000 -0.176564225
C   C68       1.0  0.09396  0.93370  0.70005  1.0000 -0.176564225
C   C69       1.0  0.02796  0.94500  0.20014  1.0000 -0.1375004845
C   C70       1.0  0.97204  0.05500  0.20014  1.0000 -0.1375004845
C   C71       1.0  0.05500  0.97204  0.29986  1.0000 -0.1375004845
C   C72       1.0  0.94500  0.02796  0.29986  1.0000 -0.1375004845
C   C73       1.0  0.97204  0.05500  0.79986  1.0000 -0.1375004845
C   C74       1.0  0.02796  0.94500  0.79986  1.0000 -0.1375004845
C   C75       1.0  0.94500  0.02796  0.70014  1.0000 -0.1375004845
C   C76       1.0  0.05500  0.97204  0.70014  1.0000 -0.1375004845
C   C77       1.0  0.02118  0.97882  0.25000  1.0000 0.0314322216
C   C78       1.0  0.97882  0.02118  0.25000  1.0000 0.0314322216
C   C79       1.0  0.97882  0.02118  0.75000  1.0000 0.0314322216
C   C80       1.0  0.02118  0.97882  0.75000  1.0000 0.0314322216
N   N1        1.0  0.14054  0.85946  0.25000  1.0000 -0.176564225
N   N2        1.0  0.85946  0.14054  0.25000  1.0000 -0.176564225
N   N3        1.0  0.85946  0.14054  0.75000  1.0000 -0.176564225
N   N4        1.0  0.14054  0.85946  0.75000  1.0000 -0.176564225
O   O1        1.0  0.39654  0.89860  0.06143  1.0000 -0.5336170504
O   O2        1.0  0.60346  0.10140  0.06143  1.0000 -0.5336170504
O   O3        1.0  0.10140  0.60346  0.43857  1.0000 -0.5336170504
O   O4        1.0  0.89860  0.39654  0.43857  1.0000 -0.5336170504
O   O5        1.0  0.60346  0.10140  0.93857  1.0000 -0.5336170504
O   O6        1.0  0.39654  0.89860  0.93857  1.0000 -0.5336170504
O   O7        1.0  0.89860  0.39654  0.56143  1.0000 -0.5336170504
O   O8        1.0  0.10140  0.60346  0.56143  1.0000 -0.5336170504
O   O9        1.0  0.43093  0.02869  0.06115  1.0000 -0.5447122464
O   O10       1.0  0.56907  0.97131  0.06115  1.0000 -0.5447122464
O   O11       1.0  0.97131  0.56907  0.43885  1.0000 -0.5447122464
O   O12       1.0  0.02869  0.43093  0.43885  1.0000 -0.5447122464
O   O13       1.0  0.56907  0.97131  0.93885  1.0000 -0.5447122464
O   O14       1.0  0.43093  0.02869  0.93885  1.0000 -0.5447122464
O   O15       1.0  0.02869  0.43093  0.56115  1.0000 -0.5447122464
O   O16       1.0  0.97131  0.56907  0.56115  1.0000 -0.5447122464
