# DDEC6 charges by PACMAN v1.1 (https://github.com/mtap-research/PACMAN-charge/)
data_2010[Y][htp]3[ASR]1
_chemical_formula_sum              "Y4 H12 C36 O24"
_cell_length_a       8.8326
_cell_length_b       10.159
_cell_length_c       16.5356
_cell_angle_alpha    90
_cell_angle_beta     122.287
_cell_angle_gamma    90

_symmetry_space_group_name_H-M    "P 1"
_symmetry_Int_Tables_number       1

loop_
  _symmetry_equiv_pos_as_xyz
  'x, y, z'

loop_
  _atom_site_type_symbol
  _atom_site_label
  _atom_site_symmetry_multiplicity
  _atom_site_fract_x
  _atom_site_fract_y
  _atom_site_fract_z
  _atom_site_occupancy
  _atom_site_charge
Y   Y1        1.0  0.86310  0.50007  0.11321  1.0000 1.8427277681
Y   Y2        1.0  0.13690  0.00007  0.38679  1.0000 1.8427277681
Y   Y3        1.0  0.13690  0.49993  0.88679  1.0000 1.8427277681
Y   Y4        1.0  0.86310  0.99993  0.61321  1.0000 1.8427277681
H   H1        1.0  0.52490  0.34320  0.12280  1.0000 0.1277664796
H   H2        1.0  0.47510  0.84320  0.37720  1.0000 0.1277664796
H   H3        1.0  0.47510  0.65680  0.87720  1.0000 0.1277664796
H   H4        1.0  0.52490  0.15680  0.62280  1.0000 0.1277664796
H   H5        1.0  0.25690  0.24970  0.24880  1.0000 0.138799521
H   H6        1.0  0.74310  0.74970  0.25120  1.0000 0.138799521
H   H7        1.0  0.74310  0.75030  0.75120  1.0000 0.138799521
H   H8        1.0  0.25690  0.25030  0.74880  1.0000 0.138799521
H   H9        1.0  0.78020  0.15720  0.37790  1.0000 0.1277664796
H   H10       1.0  0.21980  0.65720  0.12210  1.0000 0.1277664796
H   H11       1.0  0.21980  0.84280  0.62210  1.0000 0.1277664796
H   H12       1.0  0.78020  0.34280  0.87790  1.0000 0.1277664796
C   C1        1.0  0.19820  0.36370  0.09210  1.0000 0.6473151025
C   C2        1.0  0.80180  0.86370  0.40790  1.0000 0.6473151025
C   C3        1.0  0.80180  0.63630  0.90790  1.0000 0.6473151025
C   C4        1.0  0.19820  0.13630  0.59210  1.0000 0.6473151025
C   C5        1.0  0.36450  0.30410  0.17330  1.0000 -0.0412336999
C   C6        1.0  0.63550  0.80410  0.32670  1.0000 -0.0412336999
C   C7        1.0  0.63550  0.69590  0.82670  1.0000 -0.0412336999
C   C8        1.0  0.36450  0.19590  0.67330  1.0000 -0.0412336999
C   C9        1.0  0.52210  0.30480  0.17300  1.0000 -0.1163142093
C   C10       1.0  0.47790  0.80480  0.32700  1.0000 -0.1163142093
C   C11       1.0  0.47790  0.69520  0.82700  1.0000 -0.1163142093
C   C12       1.0  0.52210  0.19520  0.67300  1.0000 -0.1163142093
C   C13       1.0  0.67610  0.24670  0.24960  1.0000 -0.0335700141
C   C14       1.0  0.32390  0.74670  0.25040  1.0000 -0.0335700141
C   C15       1.0  0.32390  0.75330  0.75040  1.0000 -0.0335700141
C   C16       1.0  0.67610  0.25330  0.74960  1.0000 -0.0335700141
C   C17       1.0  0.51470  0.13420  0.40860  1.0000 0.6406242427
C   C18       1.0  0.48530  0.63420  0.09140  1.0000 0.6406242427
C   C19       1.0  0.48530  0.86580  0.59140  1.0000 0.6406242427
C   C20       1.0  0.51470  0.36580  0.90860  1.0000 0.6406242427
C   C21       1.0  0.51860  0.19680  0.32620  1.0000 -0.0249342836
C   C22       1.0  0.48140  0.69680  0.17380  1.0000 -0.0249342836
C   C23       1.0  0.48140  0.80320  0.67380  1.0000 -0.0249342836
C   C24       1.0  0.51860  0.30320  0.82620  1.0000 -0.0249342836
C   C25       1.0  0.36240  0.25040  0.24900  1.0000 -0.1036299776
C   C26       1.0  0.63760  0.75040  0.25100  1.0000 -0.1036299776
C   C27       1.0  0.63760  0.74960  0.75100  1.0000 -0.1036299776
C   C28       1.0  0.36240  0.24960  0.74900  1.0000 -0.1036299776
C   C29       1.0  0.67660  0.19380  0.32680  1.0000 -0.1122952301
C   C30       1.0  0.32340  0.69380  0.17320  1.0000 -0.1122952301
C   C31       1.0  0.32340  0.80620  0.67320  1.0000 -0.1122952301
C   C32       1.0  0.67660  0.30620  0.82680  1.0000 -0.1122952301
C   C33       1.0  0.84220  0.24100  0.24420  1.0000 0.6650160131
C   C34       1.0  0.15780  0.74100  0.25580  1.0000 0.6650160131
C   C35       1.0  0.15780  0.75900  0.75580  1.0000 0.6650160131
C   C36       1.0  0.84220  0.25900  0.74420  1.0000 0.6650160131
O   O1        1.0  0.07900  0.39750  0.10630  1.0000 -0.6206985984
O   O2        1.0  0.92100  0.89750  0.39370  1.0000 -0.6206985984
O   O3        1.0  0.92100  0.60250  0.89370  1.0000 -0.6206985984
O   O4        1.0  0.07900  0.10250  0.60630  1.0000 -0.6206985984
O   O5        1.0  0.85750  0.32550  0.19180  1.0000 -0.6512334023
O   O6        1.0  0.14250  0.82550  0.30820  1.0000 -0.6512334023
O   O7        1.0  0.14250  0.67450  0.80820  1.0000 -0.6512334023
O   O8        1.0  0.85750  0.17450  0.69180  1.0000 -0.6512334023
O   O9        1.0  0.36620  0.10120  0.39350  1.0000 -0.6305012528
O   O10       1.0  0.63380  0.60120  0.10650  1.0000 -0.6305012528
O   O11       1.0  0.63380  0.89880  0.60650  1.0000 -0.6305012528
O   O12       1.0  0.36620  0.39880  0.89350  1.0000 -0.6305012528
O   O13       1.0  0.18790  0.37800  0.01390  1.0000 -0.6206985984
O   O14       1.0  0.81210  0.87800  0.48610  1.0000 -0.6206985984
O   O15       1.0  0.81210  0.62200  0.98610  1.0000 -0.6206985984
O   O16       1.0  0.18790  0.12200  0.51390  1.0000 -0.6206985984
O   O17       1.0  0.65970  0.12210  0.48570  1.0000 -0.6044050876
O   O18       1.0  0.34030  0.62210  0.01430  1.0000 -0.6044050876
O   O19       1.0  0.34030  0.87790  0.51430  1.0000 -0.6044050876
O   O20       1.0  0.65970  0.37790  0.98570  1.0000 -0.6044050876
O   O21       1.0  0.97230  0.17480  0.30780  1.0000 -0.6305012528
O   O22       1.0  0.02770  0.67480  0.19220  1.0000 -0.6305012528
O   O23       1.0  0.02770  0.82520  0.69220  1.0000 -0.6305012528
O   O24       1.0  0.97230  0.32520  0.80780  1.0000 -0.6305012528
