# DDEC6 charges by PACMAN v1.1 (https://github.com/mtap-research/PACMAN-charge/)
data_2010[Zn][tfz]3[ASR]1
_chemical_formula_sum              "Zn4 H32 C44 N4 O16"
_cell_length_a       9.8401
_cell_length_b       11.0617
_cell_length_c       13.5307
_cell_angle_alpha    66.181
_cell_angle_beta     85.823
_cell_angle_gamma    69.89

_symmetry_space_group_name_H-M    "P 1"
_symmetry_Int_Tables_number       1

loop_
  _symmetry_equiv_pos_as_xyz
  'x, y, z'

loop_
  _atom_site_type_symbol
  _atom_site_label
  _atom_site_symmetry_multiplicity
  _atom_site_fract_x
  _atom_site_fract_y
  _atom_site_fract_z
  _atom_site_occupancy
  _atom_site_charge
Zn  Zn1       1.0  0.11134  0.47295  0.20420  1.0000 0.8510781741
Zn  Zn2       1.0  0.16858  0.44590  0.98252  1.0000 0.9320007777
Zn  Zn3       1.0  0.88866  0.52705  0.79580  1.0000 0.8510781741
Zn  Zn4       1.0  0.83142  0.55410  0.01748  1.0000 0.9320007777
H   H1        1.0  0.12280  0.90630  0.10390  1.0000 0.1292020536
H   H2        1.0  0.32710  0.13560  0.87130  1.0000 0.1224016688
H   H3        1.0  0.35340  0.75060  0.89520  1.0000 0.1292020536
H   H4        1.0  0.41810  0.83720  0.73200  1.0000 0.1130717843
H   H5        1.0  0.52260  0.91900  0.66410  1.0000 0.1292020536
H   H6        1.0  0.20430  0.67310  0.76790  1.0000 0.1130717843
H   H7        1.0  0.35230  0.70170  0.62590  1.0000 0.1292020536
H   H8        1.0  0.60280  0.29360  0.78110  1.0000 0.1391377863
H   H9        1.0  0.44720  0.27600  0.91920  1.0000 0.1130717843
H   H10       1.0  0.55930  0.61030  0.53640  1.0000 0.1224016688
H   H11       1.0  0.74860  0.34690  0.65540  1.0000 0.1292020536
H   H12       1.0  0.71140  0.66140  0.40870  1.0000 0.1391377863
H   H13       1.0  0.86890  0.67190  0.26940  1.0000 0.1130717843
H   H14       1.0  0.08060  0.26670  0.41920  1.0000 0.1130717843
H   H15       1.0  0.93890  0.24740  0.56130  1.0000 0.1391377863
H   H16       1.0  0.87720  0.09370  0.89610  1.0000 0.1292020536
H   H17       1.0  0.67290  0.86440  0.12870  1.0000 0.1224016688
H   H18       1.0  0.64660  0.24940  0.10480  1.0000 0.1292020536
H   H19       1.0  0.58190  0.16280  0.26800  1.0000 0.1130717843
H   H20       1.0  0.47740  0.08100  0.33590  1.0000 0.1292020536
H   H21       1.0  0.79570  0.32690  0.23210  1.0000 0.1130717843
H   H22       1.0  0.64770  0.29830  0.37410  1.0000 0.1292020536
H   H23       1.0  0.39720  0.70640  0.21890  1.0000 0.1391377863
H   H24       1.0  0.55280  0.72400  0.08080  1.0000 0.1130717843
H   H25       1.0  0.44070  0.38970  0.46360  1.0000 0.1224016688
H   H26       1.0  0.25140  0.65310  0.34460  1.0000 0.1292020536
H   H27       1.0  0.28860  0.33860  0.59130  1.0000 0.1391377863
H   H28       1.0  0.13110  0.32810  0.73060  1.0000 0.1130717843
H   H29       1.0  0.91940  0.73330  0.58080  1.0000 0.1130717843
H   H30       1.0  0.06110  0.75260  0.43870  1.0000 0.1391377863
H   H31       1.0  0.02570  0.31998  0.14293  1.0000 0.3818384624
H   H32       1.0  0.97430  0.68002  0.85707  1.0000 0.3818384624
C   C1        1.0  0.19100  0.68160  0.05460  1.0000 0.588412962
C   C2        1.0  0.22940  0.81370  0.00430  1.0000 -0.0006814024
C   C3        1.0  0.17970  0.91750  0.04320  1.0000 -0.1714844116
C   C4        1.0  0.21500  0.04100  0.99110  1.0000 0.0172040938
C   C5        1.0  0.30350  0.05250  0.90630  1.0000 -0.2433530175
C   C6        1.0  0.35850  0.94350  0.87170  1.0000 0.2573625064
C   C7        1.0  0.31900  0.82410  0.92000  1.0000 -0.2482591131
C   C8        1.0  0.49740  0.87020  0.73840  1.0000 -0.1714844116
C   C9        1.0  0.62870  0.74290  0.79940  1.0000 0.6135125375
C   C10       1.0  0.15520  0.16430  0.02560  1.0000 0.5760621643
C   C11       1.0  0.28630  0.59460  0.77080  1.0000 0.0870782836
C   C12       1.0  0.37490  0.61290  0.68570  1.0000 -0.2188123399
C   C13       1.0  0.49620  0.50150  0.68800  1.0000 0.1610096014
C   C14       1.0  0.52160  0.37360  0.77670  1.0000 -0.1889180326
C   C15       1.0  0.42770  0.36370  0.85870  1.0000 0.0955348081
C   C16       1.0  0.59180  0.52250  0.59730  1.0000 -0.1364152067
C   C17       1.0  0.71470  0.43310  0.59320  1.0000 -0.1364152067
C   C18       1.0  0.80940  0.45050  0.50090  1.0000 0.1512623942
C   C19       1.0  0.78840  0.57890  0.41230  1.0000 -0.2006528051
C   C20       1.0  0.88220  0.58440  0.32910  1.0000 0.0870782836
C   C21       1.0  0.00510  0.34920  0.41720  1.0000 0.0615236155
C   C22       1.0  0.92050  0.33600  0.50190  1.0000 -0.2006528051
C   C23       1.0  0.80900  0.31840  0.94540  1.0000 0.588412962
C   C24       1.0  0.77060  0.18630  0.99570  1.0000 -0.0006814024
C   C25       1.0  0.82030  0.08250  0.95680  1.0000 -0.1714844116
C   C26       1.0  0.78500  0.95900  0.00890  1.0000 0.0172040938
C   C27       1.0  0.69650  0.94750  0.09370  1.0000 -0.2433530175
C   C28       1.0  0.64150  0.05650  0.12830  1.0000 0.2573625064
C   C29       1.0  0.68100  0.17590  0.08000  1.0000 -0.2482591131
C   C30       1.0  0.50260  0.12980  0.26160  1.0000 -0.1714844116
C   C31       1.0  0.37130  0.25710  0.20060  1.0000 0.6135125375
C   C32       1.0  0.84480  0.83570  0.97440  1.0000 0.5760621643
C   C33       1.0  0.71370  0.40540  0.22920  1.0000 0.0870782836
C   C34       1.0  0.62510  0.38710  0.31430  1.0000 -0.2188123399
C   C35       1.0  0.50380  0.49850  0.31200  1.0000 0.1610096014
C   C36       1.0  0.47840  0.62640  0.22330  1.0000 -0.1889180326
C   C37       1.0  0.57230  0.63630  0.14130  1.0000 0.0955348081
C   C38       1.0  0.40820  0.47750  0.40270  1.0000 -0.1364152067
C   C39       1.0  0.28530  0.56690  0.40680  1.0000 -0.1364152067
C   C40       1.0  0.19060  0.54950  0.49910  1.0000 0.1512623942
C   C41       1.0  0.21160  0.42110  0.58770  1.0000 -0.2006528051
C   C42       1.0  0.11780  0.41560  0.67090  1.0000 0.0870782836
C   C43       1.0  0.99490  0.65080  0.58280  1.0000 0.0615236155
C   C44       1.0  0.07950  0.66400  0.49810  1.0000 -0.2006528051
N   N1        1.0  0.30960  0.47330  0.85620  1.0000 -0.2188123399
N   N2        1.0  0.99040  0.46910  0.33130  1.0000 -0.2433530175
N   N3        1.0  0.69040  0.52670  0.14380  1.0000 -0.2188123399
N   N4        1.0  0.00960  0.53090  0.66870  1.0000 -0.2433530175
O   O1        1.0  0.14210  0.65410  0.14750  1.0000 -0.5474381232
O   O2        1.0  0.21110  0.60820  0.00160  1.0000 -0.5557959461
O   O3        1.0  0.44530  0.96860  0.78680  1.0000 -0.1641426915
O   O4        1.0  0.65430  0.70720  0.89620  1.0000 -0.5086648249
O   O5        1.0  0.70150  0.68210  0.73900  1.0000 -0.5793431335
O   O6        1.0  0.15930  0.27930  0.95640  1.0000 -0.5793431335
O   O7        1.0  0.10930  0.14310  0.11750  1.0000 -0.5557959461
O   O8        1.0  0.02570  0.41880  0.11030  1.0000 -0.8647266412
O   O9        1.0  0.85790  0.34590  0.85250  1.0000 -0.5474381232
O   O10       1.0  0.78890  0.39180  0.99840  1.0000 -0.5557959461
O   O11       1.0  0.55470  0.03140  0.21320  1.0000 -0.1641426915
O   O12       1.0  0.34570  0.29280  0.10380  1.0000 -0.5086648249
O   O13       1.0  0.29850  0.31790  0.26100  1.0000 -0.5793431335
O   O14       1.0  0.84070  0.72070  0.04360  1.0000 -0.5793431335
O   O15       1.0  0.89070  0.85690  0.88250  1.0000 -0.5557959461
O   O16       1.0  0.97430  0.58120  0.88970  1.0000 -0.8647266412
