# DDEC6 charges by PACMAN v1.1 (https://github.com/mtap-research/PACMAN-charge/)
data_2010[In][nan]3[ASR]1
_chemical_formula_sum              "In18 H48 C144 O100"
_cell_length_a       22.3285
_cell_length_b       22.3285
_cell_length_c       22.3285
_cell_angle_alpha    111.348
_cell_angle_beta     111.348
_cell_angle_gamma    105.779

_symmetry_space_group_name_H-M    "P 1"
_symmetry_Int_Tables_number       1

loop_
  _symmetry_equiv_pos_as_xyz
  'x, y, z'

loop_
  _atom_site_type_symbol
  _atom_site_label
  _atom_site_symmetry_multiplicity
  _atom_site_fract_x
  _atom_site_fract_y
  _atom_site_fract_z
  _atom_site_occupancy
  _atom_site_charge
In  In1       1.0  0.23122  0.50000  0.73122  1.0000 1.3821362955
In  In2       1.0  0.50000  0.23122  0.73122  1.0000 1.3821362955
In  In3       1.0  0.76878  0.50000  0.26878  1.0000 1.3880081875
In  In4       1.0  0.50000  0.76878  0.26878  1.0000 1.3880081875
In  In5       1.0  0.75000  0.25000  0.50000  1.0000 1.3541613323
In  In6       1.0  0.25000  0.75000  0.50000  1.0000 1.3541613323
In  In7       1.0  0.08950  0.08950  0.79726  1.0000 1.5437890989
In  In8       1.0  0.91050  0.70776  0.00000  1.0000 1.5526132536
In  In9       1.0  0.29224  0.29224  0.20274  1.0000 1.5437890989
In  In10      1.0  0.70776  0.91050  0.00000  1.0000 1.5526132536
In  In11      1.0  0.89856  0.99920  0.69108  1.0000 1.5526132536
In  In12      1.0  0.00080  0.69188  0.89936  1.0000 1.5526132536
In  In13      1.0  0.30812  0.20748  0.30892  1.0000 1.5526132536
In  In14      1.0  0.79252  0.10144  0.10064  1.0000 1.5580122573
In  In15      1.0  0.10144  0.79252  0.10064  1.0000 1.5526132536
In  In16      1.0  0.20748  0.30812  0.30892  1.0000 1.5526132536
In  In17      1.0  0.69188  0.00080  0.89936  1.0000 1.5580122573
In  In18      1.0  0.99920  0.89856  0.69108  1.0000 1.5526132536
H   H1        1.0  0.38860  0.38860  0.73060  1.0000 0.1574233053
H   H2        1.0  0.61140  0.34200  0.00000  1.0000 0.1574233053
H   H3        1.0  0.65800  0.65800  0.26940  1.0000 0.1574233053
H   H4        1.0  0.34200  0.61140  0.00000  1.0000 0.1574233053
H   H5        1.0  0.09660  0.20320  0.00000  1.0000 0.1404427753
H   H6        1.0  0.79680  0.79680  0.89340  1.0000 0.1404427753
H   H7        1.0  0.20320  0.09660  0.00000  1.0000 0.1404427753
H   H8        1.0  0.90340  0.90340  0.10660  1.0000 0.1404427753
H   H9        1.0  0.10750  0.23920  0.72110  1.0000 0.1343142699
H   H10       1.0  0.76080  0.48190  0.86830  1.0000 0.1343142699
H   H11       1.0  0.51810  0.38640  0.27890  1.0000 0.1343142699
H   H12       1.0  0.61360  0.89250  0.13170  1.0000 0.1343142699
H   H13       1.0  0.89250  0.61360  0.13170  1.0000 0.1343142699
H   H14       1.0  0.38640  0.51810  0.27890  1.0000 0.1343142699
H   H15       1.0  0.48190  0.76080  0.86830  1.0000 0.1343142699
H   H16       1.0  0.23920  0.10750  0.72110  1.0000 0.1343142699
H   H17       1.0  0.87640  0.09560  0.88560  1.0000 0.1343142699
H   H18       1.0  0.90440  0.79000  0.78080  1.0000 0.1343142699
H   H19       1.0  0.21000  0.99080  0.11440  1.0000 0.1343142699
H   H20       1.0  0.00920  0.12360  0.21920  1.0000 0.1343142699
H   H21       1.0  0.12360  0.00920  0.21920  1.0000 0.1343142699
H   H22       1.0  0.99080  0.21000  0.11440  1.0000 0.1343142699
H   H23       1.0  0.79000  0.90440  0.78080  1.0000 0.1343142699
H   H24       1.0  0.09560  0.87640  0.88560  1.0000 0.1343142699
H   H25       1.0  0.00670  0.32720  0.61470  1.0000 0.1404427753
H   H26       1.0  0.67280  0.28750  0.67950  1.0000 0.1404427753
H   H27       1.0  0.71250  0.39200  0.38530  1.0000 0.1404427753
H   H28       1.0  0.60800  0.99330  0.32050  1.0000 0.1404427753
H   H29       1.0  0.99330  0.60800  0.32050  1.0000 0.1404427753
H   H30       1.0  0.39200  0.71250  0.38530  1.0000 0.1404427753
H   H31       1.0  0.28750  0.67280  0.67950  1.0000 0.1404427753
H   H32       1.0  0.32720  0.00670  0.61470  1.0000 0.1404427753
H   H33       1.0  0.28030  0.39580  0.54610  1.0000 0.1343142699
H   H34       1.0  0.60420  0.15030  0.88450  1.0000 0.1343142699
H   H35       1.0  0.84970  0.73420  0.45390  1.0000 0.1343142699
H   H36       1.0  0.26580  0.71970  0.11550  1.0000 0.1343142699
H   H37       1.0  0.71970  0.26580  0.11550  1.0000 0.1404427753
H   H38       1.0  0.73420  0.84970  0.45390  1.0000 0.1343142699
H   H39       1.0  0.15030  0.60420  0.88450  1.0000 0.1343142699
H   H40       1.0  0.39580  0.28030  0.54610  1.0000 0.1343142699
H   H41       1.0  0.89130  0.15490  0.61440  1.0000 0.1404427753
H   H42       1.0  0.84510  0.45950  0.73640  1.0000 0.1404427753
H   H43       1.0  0.54050  0.27690  0.38560  1.0000 0.1404427753
H   H44       1.0  0.72310  0.10870  0.26360  1.0000 0.1404427753
H   H45       1.0  0.10870  0.72310  0.26360  1.0000 0.1404427753
H   H46       1.0  0.27690  0.54050  0.38560  1.0000 0.1404427753
H   H47       1.0  0.45950  0.84510  0.73640  1.0000 0.1404427753
H   H48       1.0  0.15490  0.89130  0.61440  1.0000 0.1404427753
C   C1        1.0  0.29720  0.43710  0.67530  1.0000 0.5326771838
C   C2        1.0  0.56290  0.23820  0.86010  1.0000 0.5326771838
C   C3        1.0  0.76180  0.62190  0.32470  1.0000 0.5326771838
C   C4        1.0  0.37810  0.70280  0.13990  1.0000 0.5326771838
C   C5        1.0  0.70280  0.37810  0.13990  1.0000 0.5326771838
C   C6        1.0  0.62190  0.76180  0.32470  1.0000 0.5326771838
C   C7        1.0  0.23820  0.56290  0.86010  1.0000 0.5326771838
C   C8        1.0  0.43710  0.29720  0.67530  1.0000 0.5326771838
C   C9        1.0  0.37500  0.37500  0.68120  1.0000 -0.0706037576
C   C10       1.0  0.62500  0.30620  0.00000  1.0000 -0.0706037576
C   C11       1.0  0.69380  0.69380  0.31880  1.0000 -0.0706037576
C   C12       1.0  0.30620  0.62500  0.00000  1.0000 -0.0706037576
C   C13       1.0  0.33180  0.39760  0.64340  1.0000 -0.0056128761
C   C14       1.0  0.60240  0.24580  0.93420  1.0000 -0.0056128761
C   C15       1.0  0.75420  0.68840  0.35660  1.0000 -0.0056128761
C   C16       1.0  0.31160  0.66820  0.06580  1.0000 -0.0056128761
C   C17       1.0  0.66820  0.31160  0.06580  1.0000 -0.0056128761
C   C18       1.0  0.68840  0.75420  0.35660  1.0000 -0.0056128761
C   C19       1.0  0.24580  0.60240  0.93420  1.0000 -0.0056128761
C   C20       1.0  0.39760  0.33180  0.64340  1.0000 -0.0056128761
C   C21       1.0  0.31880  0.31880  0.45560  1.0000 0.6039565307
C   C22       1.0  0.68120  0.13680  0.00000  1.0000 0.6039565307
C   C23       1.0  0.86320  0.86320  0.54440  1.0000 0.6039565307
C   C24       1.0  0.13680  0.68120  0.00000  1.0000 0.6039565307
C   C25       1.0  0.98720  0.11870  0.86010  1.0000 0.6259256107
C   C26       1.0  0.88130  0.74140  0.86850  1.0000 0.6259256107
C   C27       1.0  0.25860  0.12710  0.13990  1.0000 0.6259256107
C   C28       1.0  0.87290  0.01280  0.13150  1.0000 0.6259256107
C   C29       1.0  0.01280  0.87290  0.13150  1.0000 0.6259256107
C   C30       1.0  0.12710  0.25860  0.13990  1.0000 0.6259256107
C   C31       1.0  0.74140  0.88130  0.86850  1.0000 0.6259256107
C   C32       1.0  0.11870  0.98720  0.86010  1.0000 0.6259256107
C   C33       1.0  0.13950  0.35140  0.70090  1.0000 0.5742159587
C   C34       1.0  0.64860  0.34950  0.78810  1.0000 0.5752978128
C   C35       1.0  0.65050  0.43860  0.29910  1.0000 0.5752978128
C   C36       1.0  0.56140  0.86050  0.21190  1.0000 0.5752978128
C   C37       1.0  0.86050  0.56140  0.21190  1.0000 0.5742159587
C   C38       1.0  0.43860  0.65050  0.29910  1.0000 0.5752978128
C   C39       1.0  0.34950  0.64860  0.78810  1.0000 0.5752978128
C   C40       1.0  0.35140  0.13950  0.70090  1.0000 0.5752978128
C   C41       1.0  0.99670  0.13120  0.68990  1.0000 0.6152611774
C   C42       1.0  0.86880  0.55870  0.86550  1.0000 0.6152611774
C   C43       1.0  0.44130  0.30680  0.31010  1.0000 0.6152611774
C   C44       1.0  0.69320  0.00330  0.13450  1.0000 0.6152611774
C   C45       1.0  0.00330  0.69320  0.13450  1.0000 0.6152611774
C   C46       1.0  0.30680  0.44130  0.31010  1.0000 0.6152611774
C   C47       1.0  0.55870  0.86880  0.86550  1.0000 0.6152611774
C   C48       1.0  0.13120  0.99670  0.68990  1.0000 0.6152611774
C   C49       1.0  0.06710  0.29360  0.67310  1.0000 -0.0279036828
C   C50       1.0  0.70640  0.37950  0.77350  1.0000 -0.0279036828
C   C51       1.0  0.62050  0.39400  0.32690  1.0000 -0.0279036828
C   C52       1.0  0.60600  0.93290  0.22650  1.0000 -0.0279036828
C   C53       1.0  0.93290  0.60600  0.22650  1.0000 -0.0279036828
C   C54       1.0  0.39400  0.62050  0.32690  1.0000 -0.0279036828
C   C55       1.0  0.37950  0.70640  0.77350  1.0000 -0.0279036828
C   C56       1.0  0.29360  0.06710  0.67310  1.0000 -0.0279036828
C   C57       1.0  0.87320  0.24770  0.56930  1.0000 0.5415738029
C   C58       1.0  0.75230  0.32160  0.62550  1.0000 0.5415738029
C   C59       1.0  0.67840  0.30390  0.43070  1.0000 0.5415738029
C   C60       1.0  0.69610  0.12680  0.37450  1.0000 0.5415738029
C   C61       1.0  0.12680  0.69610  0.37450  1.0000 0.5415738029
C   C62       1.0  0.30390  0.67840  0.43070  1.0000 0.5415738029
C   C63       1.0  0.32160  0.75230  0.62550  1.0000 0.5415738029
C   C64       1.0  0.24770  0.87320  0.56930  1.0000 0.5415738029
C   C65       1.0  0.99770  0.18850  0.67000  1.0000 -0.0279036828
C   C66       1.0  0.81150  0.48150  0.80920  1.0000 -0.0279036828
C   C67       1.0  0.51850  0.32770  0.33000  1.0000 -0.0279036828
C   C68       1.0  0.67230  0.00230  0.19080  1.0000 -0.0279036828
C   C69       1.0  0.00230  0.67230  0.19080  1.0000 -0.0279036828
C   C70       1.0  0.32770  0.51850  0.33000  1.0000 -0.0279036828
C   C71       1.0  0.48150  0.81150  0.80920  1.0000 -0.0279036828
C   C72       1.0  0.18850  0.99770  0.67000  1.0000 -0.0279036828
C   C73       1.0  0.05330  0.19190  0.00000  1.0000 -0.083889749
C   C74       1.0  0.80810  0.80810  0.86140  1.0000 -0.083889749
C   C75       1.0  0.19190  0.05330  0.00000  1.0000 -0.083889749
C   C76       1.0  0.94670  0.94670  0.13860  1.0000 -0.083889749
C   C77       1.0  0.06510  0.23980  0.69330  1.0000 -0.0888495632
C   C78       1.0  0.76020  0.45350  0.82530  1.0000 -0.0888495632
C   C79       1.0  0.54650  0.37180  0.30670  1.0000 -0.0888495632
C   C80       1.0  0.62820  0.93490  0.17470  1.0000 -0.0888495632
C   C81       1.0  0.93490  0.62820  0.17470  1.0000 -0.0888495632
C   C82       1.0  0.37180  0.54650  0.30670  1.0000 -0.0888495632
C   C83       1.0  0.45350  0.76020  0.82530  1.0000 -0.0888495632
C   C84       1.0  0.23980  0.06510  0.69330  1.0000 -0.0888495632
C   C85       1.0  0.92050  0.12640  0.93090  1.0000 -0.1012489247
C   C86       1.0  0.87360  0.80450  0.79410  1.0000 -0.1012489247
C   C87       1.0  0.19550  0.98960  0.06910  1.0000 -0.1012489247
C   C88       1.0  0.01040  0.07950  0.20590  1.0000 -0.1012489247
C   C89       1.0  0.07950  0.01040  0.20590  1.0000 -0.1012489247
C   C90       1.0  0.98960  0.19550  0.06910  1.0000 -0.1012489247
C   C91       1.0  0.80450  0.87360  0.79410  1.0000 -0.1012489247
C   C92       1.0  0.12640  0.92050  0.93090  1.0000 -0.1012489247
C   C93       1.0  0.85440  0.12600  0.00000  1.0000 0.6134760928
C   C94       1.0  0.87400  0.87400  0.72840  1.0000 0.6134760928
C   C95       1.0  0.12600  0.85440  0.00000  1.0000 0.6134760928
C   C96       1.0  0.14560  0.14560  0.27160  1.0000 0.6134760928
C   C97       1.0  0.33950  0.33950  0.53180  1.0000 -0.083889749
C   C98       1.0  0.66050  0.19230  0.00000  1.0000 -0.083889749
C   C99       1.0  0.80770  0.80770  0.46820  1.0000 -0.083889749
C   C100      1.0  0.19230  0.66050  0.00000  1.0000 -0.083889749
C   C101      1.0  0.98950  0.15090  0.93400  1.0000 -0.0279036828
C   C102      1.0  0.84910  0.78310  0.83860  1.0000 -0.0279036828
C   C103      1.0  0.21690  0.05550  0.06600  1.0000 -0.0279036828
C   C104      1.0  0.94450  0.01050  0.16140  1.0000 -0.0279036828
C   C105      1.0  0.01050  0.94450  0.16140  1.0000 -0.0279036828
C   C106      1.0  0.05550  0.21690  0.06600  1.0000 -0.0279036828
C   C107      1.0  0.78310  0.84910  0.83860  1.0000 -0.0279036828
C   C108      1.0  0.15090  0.98950  0.93400  1.0000 -0.0279036828
C   C109      1.0  0.00410  0.29340  0.62990  1.0000 -0.0706037576
C   C110      1.0  0.70660  0.33650  0.71070  1.0000 -0.0706037576
C   C111      1.0  0.66350  0.37420  0.37010  1.0000 -0.0706037576
C   C112      1.0  0.62580  0.99590  0.28930  1.0000 -0.0706037576
C   C113      1.0  0.99590  0.62580  0.28930  1.0000 -0.0706037576
C   C114      1.0  0.37420  0.66350  0.37010  1.0000 -0.0706037576
C   C115      1.0  0.33650  0.70660  0.71070  1.0000 -0.0706037576
C   C116      1.0  0.29340  0.00410  0.62990  1.0000 -0.0706037576
C   C117      1.0  0.31130  0.38080  0.56990  1.0000 -0.083889749
C   C118      1.0  0.61920  0.18910  0.93050  1.0000 -0.083889749
C   C119      1.0  0.81090  0.74140  0.43010  1.0000 -0.083889749
C   C120      1.0  0.25860  0.68870  0.06950  1.0000 -0.083889749
C   C121      1.0  0.68870  0.25860  0.06950  1.0000 -0.083889749
C   C122      1.0  0.74140  0.81090  0.43010  1.0000 -0.083889749
C   C123      1.0  0.18910  0.61920  0.93050  1.0000 -0.083889749
C   C124      1.0  0.38080  0.31130  0.56990  1.0000 -0.083889749
C   C125      1.0  0.94010  0.24520  0.61030  1.0000 -0.0163941576
C   C126      1.0  0.75480  0.36510  0.69490  1.0000 -0.0163941576
C   C127      1.0  0.63490  0.32980  0.38970  1.0000 -0.0163941576
C   C128      1.0  0.67020  0.05990  0.30510  1.0000 -0.0163941576
C   C129      1.0  0.05990  0.67020  0.30510  1.0000 -0.0163941576
C   C130      1.0  0.32980  0.63490  0.38970  1.0000 -0.0163941576
C   C131      1.0  0.36510  0.75480  0.69490  1.0000 -0.0163941576
C   C132      1.0  0.24520  0.94010  0.61030  1.0000 -0.0163941576
C   C133      1.0  0.93620  0.18990  0.62970  1.0000 -0.0706037576
C   C134      1.0  0.81010  0.43980  0.74630  1.0000 -0.0706037576
C   C135      1.0  0.56020  0.30650  0.37030  1.0000 -0.0706037576
C   C136      1.0  0.69350  0.06380  0.25370  1.0000 -0.0706037576
C   C137      1.0  0.06380  0.69350  0.25370  1.0000 -0.0706037576
C   C138      1.0  0.30650  0.56020  0.37030  1.0000 -0.0706037576
C   C139      1.0  0.43980  0.81010  0.74630  1.0000 -0.0706037576
C   C140      1.0  0.18990  0.93620  0.62970  1.0000 -0.0706037576
C   C141      1.0  0.92430  0.15170  0.00000  1.0000 -0.0279036828
C   C142      1.0  0.84830  0.84830  0.77260  1.0000 -0.0279036828
C   C143      1.0  0.15170  0.92430  0.00000  1.0000 -0.0279036828
C   C144      1.0  0.07570  0.07570  0.22740  1.0000 -0.0279036828
O   O1        1.0  0.14740  0.40140  0.69000  1.0000 -0.502288838
O   O2        1.0  0.59860  0.28860  0.74600  1.0000 -0.502288838
O   O3        1.0  0.71140  0.45740  0.31000  1.0000 -0.502288838
O   O4        1.0  0.54260  0.85260  0.25400  1.0000 -0.502288838
O   O5        1.0  0.85260  0.54260  0.25400  1.0000 -0.502288838
O   O6        1.0  0.45740  0.71140  0.31000  1.0000 -0.502288838
O   O7        1.0  0.28860  0.59860  0.74600  1.0000 -0.502288838
O   O8        1.0  0.40140  0.14740  0.69000  1.0000 -0.502288838
O   O9        1.0  0.31610  0.46310  0.74300  1.0000 -0.4597323137
O   O10       1.0  0.53690  0.27990  0.85300  1.0000 -0.4597323137
O   O11       1.0  0.72010  0.57310  0.25700  1.0000 -0.4597323137
O   O12       1.0  0.42690  0.68390  0.14700  1.0000 -0.4597323137
O   O13       1.0  0.68390  0.42690  0.14700  1.0000 -0.4597323137
O   O14       1.0  0.57310  0.72010  0.25700  1.0000 -0.4597323137
O   O15       1.0  0.27990  0.53690  0.85300  1.0000 -0.4597323137
O   O16       1.0  0.46310  0.31610  0.74300  1.0000 -0.4597323137
O   O17       1.0  0.25390  0.45330  0.63980  1.0000 -0.4879610548
O   O18       1.0  0.54670  0.18650  0.80060  1.0000 -0.4879610548
O   O19       1.0  0.81350  0.61410  0.36020  1.0000 -0.4879610548
O   O20       1.0  0.38590  0.74610  0.19940  1.0000 -0.4879610548
O   O21       1.0  0.74610  0.38590  0.19940  1.0000 -0.4879610548
O   O22       1.0  0.61410  0.81350  0.36020  1.0000 -0.4879610548
O   O23       1.0  0.18650  0.54670  0.80060  1.0000 -0.4879610548
O   O24       1.0  0.45330  0.25390  0.63980  1.0000 -0.4879610548
O   O25       1.0  0.99430  0.99430  0.72640  1.0000 -1.0973093408
O   O26       1.0  0.00570  0.73210  0.00000  1.0000 -1.0973093408
O   O27       1.0  0.26790  0.26790  0.27360  1.0000 -1.0973093408
O   O28       1.0  0.73210  0.00570  0.00000  1.0000 -1.0973093408
O   O29       1.0  0.85960  0.15090  0.06350  1.0000 -0.580052455
O   O30       1.0  0.84910  0.91260  0.70870  1.0000 -0.580052455
O   O31       1.0  0.08740  0.79610  0.93650  1.0000 -0.580052455
O   O32       1.0  0.20390  0.14040  0.29130  1.0000 -0.580052455
O   O33       1.0  0.14040  0.20390  0.29130  1.0000 -0.580052455
O   O34       1.0  0.79610  0.08740  0.93650  1.0000 -0.580052455
O   O35       1.0  0.91260  0.84910  0.70870  1.0000 -0.580052455
O   O36       1.0  0.15090  0.85960  0.06350  1.0000 -0.580052455
O   O37       1.0  0.19440  0.34020  0.72620  1.0000 -0.4597323137
O   O38       1.0  0.65980  0.38600  0.85420  1.0000 -0.4597323137
O   O39       1.0  0.61400  0.46820  0.27380  1.0000 -0.4597323137
O   O40       1.0  0.53180  0.80560  0.14580  1.0000 -0.4597323137
O   O41       1.0  0.80560  0.53180  0.14580  1.0000 -0.4597323137
O   O42       1.0  0.46820  0.61400  0.27380  1.0000 -0.4597323137
O   O43       1.0  0.38600  0.65980  0.85420  1.0000 -0.4597323137
O   O44       1.0  0.34020  0.19440  0.72620  1.0000 -0.4597323137
O   O45       1.0  0.92620  0.08200  0.66120  1.0000 -0.6525064903
O   O46       1.0  0.91800  0.57920  0.84420  1.0000 -0.6525064903
O   O47       1.0  0.42080  0.26500  0.33880  1.0000 -0.6525064903
O   O48       1.0  0.73500  0.07380  0.15580  1.0000 -0.6525064903
O   O49       1.0  0.07380  0.73500  0.15580  1.0000 -0.6525064903
O   O50       1.0  0.26500  0.42080  0.33880  1.0000 -0.6525064903
O   O51       1.0  0.57920  0.91800  0.84420  1.0000 -0.6525064903
O   O52       1.0  0.08200  0.92620  0.66120  1.0000 -0.6525064903
O   O53       1.0  0.92520  0.07550  0.79910  1.0000 -0.580052455
O   O54       1.0  0.92450  0.72360  0.84970  1.0000 -0.580052455
O   O55       1.0  0.27640  0.12610  0.20090  1.0000 -0.580052455
O   O56       1.0  0.87390  0.07480  0.15030  1.0000 -0.580052455
O   O57       1.0  0.07480  0.87390  0.15030  1.0000 -0.580052455
O   O58       1.0  0.12610  0.27640  0.20090  1.0000 -0.580052455
O   O59       1.0  0.72360  0.92450  0.84970  1.0000 -0.580052455
O   O60       1.0  0.07550  0.92520  0.79910  1.0000 -0.580052455
O   O61       1.0  0.81230  0.20370  0.55620  1.0000 -0.5266285661
O   O62       1.0  0.79630  0.35250  0.60860  1.0000 -0.5266285661
O   O63       1.0  0.64750  0.25610  0.44380  1.0000 -0.5266285661
O   O64       1.0  0.74390  0.18770  0.39140  1.0000 -0.5266285661
O   O65       1.0  0.18770  0.74390  0.39140  1.0000 -0.5266285661
O   O66       1.0  0.25610  0.64750  0.44380  1.0000 -0.5266285661
O   O67       1.0  0.35250  0.79630  0.60860  1.0000 -0.5266285661
O   O68       1.0  0.20370  0.81230  0.55620  1.0000 -0.5266285661
O   O69       1.0  0.05810  0.14050  0.73280  1.0000 -0.5477503884
O   O70       1.0  0.85950  0.59230  0.91760  1.0000 -0.5477503884
O   O71       1.0  0.40770  0.32530  0.26720  1.0000 -0.5477503884
O   O72       1.0  0.67470  0.94190  0.08240  1.0000 -0.5477503884
O   O73       1.0  0.94190  0.67470  0.08240  1.0000 -0.5477503884
O   O74       1.0  0.32530  0.40770  0.26720  1.0000 -0.5477503884
O   O75       1.0  0.59230  0.85950  0.91760  1.0000 -0.5477503884
O   O76       1.0  0.14050  0.05810  0.73280  1.0000 -0.5477503884
O   O77       1.0  0.87650  0.29560  0.54830  1.0000 -0.502288838
O   O78       1.0  0.70440  0.25270  0.58090  1.0000 -0.502288838
O   O79       1.0  0.74730  0.32820  0.45170  1.0000 -0.502288838
O   O80       1.0  0.67180  0.12350  0.41910  1.0000 -0.502288838
O   O81       1.0  0.12350  0.67180  0.41910  1.0000 -0.502288838
O   O82       1.0  0.32820  0.74730  0.45170  1.0000 -0.502288838
O   O83       1.0  0.25270  0.70440  0.58090  1.0000 -0.502288838
O   O84       1.0  0.29560  0.87650  0.54830  1.0000 -0.502288838
O   O85       1.0  0.34360  0.27800  0.42500  1.0000 -0.580052455
O   O86       1.0  0.72200  0.14700  0.06560  1.0000 -0.580052455
O   O87       1.0  0.85300  0.91860  0.57500  1.0000 -0.580052455
O   O88       1.0  0.08140  0.65640  0.93440  1.0000 -0.580052455
O   O89       1.0  0.65640  0.08140  0.93440  1.0000 -0.580052455
O   O90       1.0  0.91860  0.85300  0.57500  1.0000 -0.580052455
O   O91       1.0  0.14700  0.72200  0.06560  1.0000 -0.580052455
O   O92       1.0  0.27800  0.34360  0.42500  1.0000 -0.580052455
O   O93       1.0  0.05060  0.13580  0.86620  1.0000 -0.6100908044
O   O94       1.0  0.86420  0.73040  0.91480  1.0000 -0.6100908044
O   O95       1.0  0.26960  0.18440  0.13380  1.0000 -0.6100908044
O   O96       1.0  0.81560  0.94940  0.08520  1.0000 -0.6100908044
O   O97       1.0  0.94940  0.81560  0.08520  1.0000 -0.6100908044
O   O98       1.0  0.18440  0.26960  0.13380  1.0000 -0.6100908044
O   O99       1.0  0.73040  0.86420  0.91480  1.0000 -0.6100908044
O   O100      1.0  0.13580  0.05060  0.86620  1.0000 -0.6100908044
