# DDEC6 charges by PACMAN v1.1 (https://github.com/mtap-research/PACMAN-charge/)
data_2010[Mn][nan]3[ASR]9
_chemical_formula_sum              "Mn4 H32 C52 N4 O20"
_cell_length_a       12.7287
_cell_length_b       12.7287
_cell_length_c       14.391
_cell_angle_alpha    60.8335
_cell_angle_beta     119.167
_cell_angle_gamma    98.1105

_symmetry_space_group_name_H-M    "P 1"
_symmetry_Int_Tables_number       1

loop_
  _symmetry_equiv_pos_as_xyz
  'x, y, z'

loop_
  _atom_site_type_symbol
  _atom_site_label
  _atom_site_symmetry_multiplicity
  _atom_site_fract_x
  _atom_site_fract_y
  _atom_site_fract_z
  _atom_site_occupancy
  _atom_site_charge
Mn  Mn1       1.0  0.50000  0.50000  0.50000  1.0000 1.0491254495
Mn  Mn2       1.0  0.50000  0.50000  0.00000  1.0000 1.0491254495
Mn  Mn3       1.0  0.56338  0.56338  0.25000  1.0000 1.0586760209
Mn  Mn4       1.0  0.43662  0.43662  0.75000  1.0000 1.0586760209
H   H1        1.0  0.88680  0.53960  0.72270  1.0000 0.1185658963
H   H2        1.0  0.53960  0.88680  0.77730  1.0000 0.1185658963
H   H3        1.0  0.11320  0.46040  0.27730  1.0000 0.1185658963
H   H4        1.0  0.46040  0.11320  0.22270  1.0000 0.1185658963
H   H5        1.0  0.09130  0.54110  0.82340  1.0000 0.1071977557
H   H6        1.0  0.54110  0.09130  0.67660  1.0000 0.1071977557
H   H7        1.0  0.90870  0.45890  0.17660  1.0000 0.1071977557
H   H8        1.0  0.45890  0.90870  0.32340  1.0000 0.1071977557
H   H9        1.0  0.11090  0.62430  0.52750  1.0000 0.1185658963
H   H10       1.0  0.62430  0.11090  0.97250  1.0000 0.1185658963
H   H11       1.0  0.88910  0.37570  0.47250  1.0000 0.1185658963
H   H12       1.0  0.37570  0.88910  0.02750  1.0000 0.1185658963
H   H13       1.0  0.90430  0.63310  0.42310  1.0000 0.128301637
H   H14       1.0  0.63310  0.90430  0.07690  1.0000 0.128301637
H   H15       1.0  0.09570  0.36690  0.57690  1.0000 0.128301637
H   H16       1.0  0.36690  0.09570  0.92310  1.0000 0.128301637
H   H17       1.0  0.32060  0.72540  0.52080  1.0000 0.1396086074
H   H18       1.0  0.72540  0.32060  0.97920  1.0000 0.1396086074
H   H19       1.0  0.67940  0.27460  0.47920  1.0000 0.1396086074
H   H20       1.0  0.27460  0.67940  0.02080  1.0000 0.1396086074
H   H21       1.0  0.32050  0.92650  0.46920  1.0000 0.1396086074
H   H22       1.0  0.92650  0.32050  0.03080  1.0000 0.1396086074
H   H23       1.0  0.67950  0.07350  0.53080  1.0000 0.1396086074
H   H24       1.0  0.07350  0.67950  0.96920  1.0000 0.1396086074
H   H25       1.0  0.67450  0.88930  0.58170  1.0000 0.1396086074
H   H26       1.0  0.88930  0.67450  0.91830  1.0000 0.1396086074
H   H27       1.0  0.32550  0.11070  0.41830  1.0000 0.1396086074
H   H28       1.0  0.11070  0.32550  0.08170  1.0000 0.1396086074
H   H29       1.0  0.66460  0.69220  0.62490  1.0000 0.1396086074
H   H30       1.0  0.69220  0.66460  0.87510  1.0000 0.1396086074
H   H31       1.0  0.33540  0.30780  0.37510  1.0000 0.1396086074
H   H32       1.0  0.30780  0.33540  0.12490  1.0000 0.1396086074
C   C1        1.0  0.74060  0.57460  0.49640  1.0000 0.5914381759
C   C2        1.0  0.57460  0.74060  0.00360  1.0000 0.5914381759
C   C3        1.0  0.25940  0.42540  0.50360  1.0000 0.5914381759
C   C4        1.0  0.42540  0.25940  0.99640  1.0000 0.5914381759
C   C5        1.0  0.87300  0.58200  0.56190  1.0000 -0.0253278578
C   C6        1.0  0.58200  0.87300  0.93810  1.0000 -0.0231446182
C   C7        1.0  0.12700  0.41800  0.43810  1.0000 -0.0231446182
C   C8        1.0  0.41800  0.12700  0.06190  1.0000 -0.0231446182
C   C9        1.0  0.93160  0.55660  0.68270  1.0000 -0.1197567819
C   C10       1.0  0.55660  0.93160  0.81730  1.0000 -0.1197567819
C   C11       1.0  0.06840  0.44340  0.31730  1.0000 -0.1197567819
C   C12       1.0  0.44340  0.06840  0.18270  1.0000 -0.1197567819
C   C13       1.0  0.05440  0.55680  0.74320  1.0000 -0.1197567819
C   C14       1.0  0.55680  0.05440  0.75680  1.0000 -0.1141245299
C   C15       1.0  0.94560  0.44320  0.25680  1.0000 -0.1141245299
C   C16       1.0  0.44320  0.94560  0.24320  1.0000 -0.1141245299
C   C17       1.0  0.12520  0.57960  0.68790  1.0000 -0.0231446182
C   C18       1.0  0.57960  0.12520  0.81210  1.0000 -0.0231446182
C   C19       1.0  0.87480  0.42040  0.31210  1.0000 -0.0231446182
C   C20       1.0  0.42040  0.87480  0.18790  1.0000 -0.0231446182
C   C21       1.0  0.06630  0.60750  0.56750  1.0000 -0.1006537949
C   C22       1.0  0.60750  0.06630  0.93250  1.0000 -0.1006537949
C   C23       1.0  0.93370  0.39250  0.43250  1.0000 -0.1006537949
C   C24       1.0  0.39250  0.93370  0.06750  1.0000 -0.1006537949
C   C25       1.0  0.94210  0.61090  0.50510  1.0000 -0.1006537949
C   C26       1.0  0.61090  0.94210  0.99490  1.0000 -0.1006537949
C   C27       1.0  0.05790  0.38910  0.49490  1.0000 -0.1006537949
C   C28       1.0  0.38910  0.05790  0.00510  1.0000 -0.1006537949
C   C29       1.0  0.26010  0.56870  0.75700  1.0000 0.5914381759
C   C30       1.0  0.56870  0.26010  0.74300  1.0000 0.5914381759
C   C31       1.0  0.73990  0.43130  0.24300  1.0000 0.5914381759
C   C32       1.0  0.43130  0.73990  0.25700  1.0000 0.5914381759
C   C33       1.0  0.39290  0.75930  0.53340  1.0000 -0.0095147297
C   C34       1.0  0.75930  0.39290  0.96660  1.0000 -0.0095147297
C   C35       1.0  0.60710  0.24070  0.46660  1.0000 -0.0095147297
C   C36       1.0  0.24070  0.60710  0.03340  1.0000 -0.0095147297
C   C37       1.0  0.39240  0.88060  0.50140  1.0000 -0.1925691145
C   C38       1.0  0.88060  0.39240  0.99860  1.0000 -0.1925691145
C   C39       1.0  0.60760  0.11940  0.49860  1.0000 -0.1925691145
C   C40       1.0  0.11940  0.60760  0.00140  1.0000 -0.1925691145
C   C41       1.0  0.49800  0.93520  0.51690  1.0000 0.0915165634
C   C42       1.0  0.93520  0.49800  0.98310  1.0000 0.0915165634
C   C43       1.0  0.50200  0.06480  0.48310  1.0000 0.0915165634
C   C44       1.0  0.06480  0.50200  0.01690  1.0000 0.0915165634
C   C45       1.0  0.60040  0.85880  0.56700  1.0000 -0.1925691145
C   C46       1.0  0.85880  0.60040  0.93300  1.0000 -0.1925691145
C   C47       1.0  0.39960  0.14120  0.43300  1.0000 -0.1925691145
C   C48       1.0  0.14120  0.39960  0.06700  1.0000 -0.1925691145
C   C49       1.0  0.59500  0.74000  0.59510  1.0000 -0.0477763547
C   C50       1.0  0.74000  0.59500  0.90490  1.0000 -0.0477763547
C   C51       1.0  0.40500  0.26000  0.40490  1.0000 -0.0477763547
C   C52       1.0  0.26000  0.40500  0.09510  1.0000 -0.0477763547
N   N1        1.0  0.49200  0.69020  0.58080  1.0000 0.3186225162
N   N2        1.0  0.69020  0.49200  0.91920  1.0000 0.3186225162
N   N3        1.0  0.50800  0.30980  0.41920  1.0000 0.3186225162
N   N4        1.0  0.30980  0.50800  0.08080  1.0000 0.3186225162
O   O1        1.0  0.68420  0.53520  0.55730  1.0000 -0.5722373559
O   O2        1.0  0.53520  0.68420  0.94270  1.0000 -0.5722373559
O   O3        1.0  0.31580  0.46480  0.44270  1.0000 -0.5722373559
O   O4        1.0  0.46480  0.31580  0.05730  1.0000 -0.5722373559
O   O5        1.0  0.69380  0.60600  0.38560  1.0000 -0.5608247353
O   O6        1.0  0.60600  0.69380  0.11440  1.0000 -0.5608247353
O   O7        1.0  0.30620  0.39400  0.61440  1.0000 -0.5608247353
O   O8        1.0  0.39400  0.30620  0.88560  1.0000 -0.5608247353
O   O9        1.0  0.30850  0.55450  0.86270  1.0000 -0.5459885283
O   O10       1.0  0.55450  0.30850  0.63730  1.0000 -0.5459885283
O   O11       1.0  0.69150  0.44550  0.13730  1.0000 -0.5459885283
O   O12       1.0  0.44550  0.69150  0.36270  1.0000 -0.5459885283
O   O13       1.0  0.31710  0.57550  0.70350  1.0000 -0.5827355816
O   O14       1.0  0.57550  0.31710  0.79650  1.0000 -0.5827355816
O   O15       1.0  0.68290  0.42450  0.29650  1.0000 -0.5827355816
O   O16       1.0  0.42450  0.68290  0.20350  1.0000 -0.5827355816
O   O17       1.0  0.49070  0.57410  0.61240  1.0000 -0.4903342559
O   O18       1.0  0.57410  0.49070  0.88760  1.0000 -0.4903342559
O   O19       1.0  0.50930  0.42590  0.38760  1.0000 -0.4903342559
O   O20       1.0  0.42590  0.50930  0.11240  1.0000 -0.4903342559
