# DDEC6 charges by PACMAN v1.1 (https://github.com/mtap-research/PACMAN-charge/)
data_2010[Cu][nan]3[ASR]31
_chemical_formula_sum              "Cu8 H96 C96 O56"
_cell_length_a       11.928
_cell_length_b       18.253
_cell_length_c       18.66
_cell_angle_alpha    90
_cell_angle_beta     90
_cell_angle_gamma    90

_symmetry_space_group_name_H-M    "P 1"
_symmetry_Int_Tables_number       1

loop_
  _symmetry_equiv_pos_as_xyz
  'x, y, z'

loop_
  _atom_site_type_symbol
  _atom_site_label
  _atom_site_symmetry_multiplicity
  _atom_site_fract_x
  _atom_site_fract_y
  _atom_site_fract_z
  _atom_site_occupancy
  _atom_site_charge
Cu  Cu1       1.0  0.91271  0.71958  0.72857  1.0000 0.8079506292
Cu  Cu2       1.0  0.91271  0.28042  0.27143  1.0000 0.8079506292
Cu  Cu3       1.0  0.08729  0.78042  0.22857  1.0000 0.8079506292
Cu  Cu4       1.0  0.08729  0.21958  0.77143  1.0000 0.8079506292
Cu  Cu5       1.0  0.07113  0.79148  0.79760  1.0000 0.7814607158
Cu  Cu6       1.0  0.07113  0.20852  0.20240  1.0000 0.7814607158
Cu  Cu7       1.0  0.92887  0.70852  0.29760  1.0000 0.7814607158
Cu  Cu8       1.0  0.92887  0.29148  0.70240  1.0000 0.7814607158
H   H1        1.0  0.04680  0.50340  0.74820  1.0000 0.1191935863
H   H2        1.0  0.04680  0.49660  0.25180  1.0000 0.1191935863
H   H3        1.0  0.95320  0.99660  0.24820  1.0000 0.1191935863
H   H4        1.0  0.95320  0.00340  0.75180  1.0000 0.1191935863
H   H5        1.0  0.32680  0.61650  0.80420  1.0000 0.1297902412
H   H6        1.0  0.32680  0.38350  0.19580  1.0000 0.1297902412
H   H7        1.0  0.67320  0.88350  0.30420  1.0000 0.1297902412
H   H8        1.0  0.67320  0.11650  0.69580  1.0000 0.1297902412
H   H9        1.0  0.33990  0.39810  0.78830  1.0000 0.1191935863
H   H10       1.0  0.33990  0.60190  0.21170  1.0000 0.1191935863
H   H11       1.0  0.66010  0.10190  0.28830  1.0000 0.1191935863
H   H12       1.0  0.66010  0.89810  0.71170  1.0000 0.1191935863
H   H13       1.0  0.51420  0.43040  0.74730  1.0000 0.10026124
H   H14       1.0  0.51420  0.56960  0.25270  1.0000 0.10026124
H   H15       1.0  0.48580  0.06960  0.24730  1.0000 0.10026124
H   H16       1.0  0.48580  0.93040  0.75270  1.0000 0.10026124
H   H17       1.0  0.52050  0.41570  0.83210  1.0000 0.1093713826
H   H18       1.0  0.52050  0.58430  0.16790  1.0000 0.1093713826
H   H19       1.0  0.47950  0.08430  0.33210  1.0000 0.1093713826
H   H20       1.0  0.47950  0.91570  0.66790  1.0000 0.1093713826
H   H21       1.0  0.66860  0.50460  0.83940  1.0000 0.1093713826
H   H22       1.0  0.66860  0.49540  0.16060  1.0000 0.10026124
H   H23       1.0  0.33140  0.99540  0.33940  1.0000 0.10026124
H   H24       1.0  0.33140  0.00460  0.66060  1.0000 0.10026124
H   H25       1.0  0.70310  0.43420  0.79310  1.0000 0.1093713826
H   H26       1.0  0.70310  0.56580  0.20690  1.0000 0.1093713826
H   H27       1.0  0.29690  0.06580  0.29310  1.0000 0.1093713826
H   H28       1.0  0.29690  0.93420  0.70690  1.0000 0.1093713826
H   H29       1.0  0.83010  0.48530  0.72530  1.0000 0.1093713826
H   H30       1.0  0.83010  0.51470  0.27470  1.0000 0.1093713826
H   H31       1.0  0.16990  0.01470  0.22530  1.0000 0.1093713826
H   H32       1.0  0.16990  0.98530  0.77470  1.0000 0.1093713826
H   H33       1.0  0.82160  0.56000  0.77000  1.0000 0.1093713826
H   H34       1.0  0.82160  0.44000  0.23000  1.0000 0.1093713826
H   H35       1.0  0.17840  0.94000  0.27000  1.0000 0.1093713826
H   H36       1.0  0.17840  0.06000  0.73000  1.0000 0.1093713826
H   H37       1.0  0.89680  0.57040  0.64810  1.0000 0.1191935863
H   H38       1.0  0.89680  0.42960  0.35190  1.0000 0.1191935863
H   H39       1.0  0.10320  0.92960  0.14810  1.0000 0.1191935863
H   H40       1.0  0.10320  0.07040  0.85190  1.0000 0.1191935863
H   H41       1.0  0.77130  0.55690  0.62090  1.0000 0.10026124
H   H42       1.0  0.77130  0.44310  0.37910  1.0000 0.10026124
H   H43       1.0  0.22870  0.94310  0.12090  1.0000 0.10026124
H   H44       1.0  0.22870  0.05690  0.87910  1.0000 0.10026124
H   H45       1.0  0.96940  0.74390  0.00950  1.0000 0.1093713826
H   H46       1.0  0.96940  0.25610  0.99050  1.0000 0.1093713826
H   H47       1.0  0.03060  0.75610  0.50950  1.0000 0.1093713826
H   H48       1.0  0.03060  0.24390  0.49050  1.0000 0.1093713826
H   H49       1.0  0.70080  0.65770  0.90600  1.0000 0.1297902412
H   H50       1.0  0.70080  0.34230  0.09400  1.0000 0.1297902412
H   H51       1.0  0.29920  0.84230  0.40600  1.0000 0.1297902412
H   H52       1.0  0.29920  0.15770  0.59400  1.0000 0.1297902412
H   H53       1.0  0.71060  0.65730  0.12390  1.0000 0.1297902412
H   H54       1.0  0.71060  0.34270  0.87610  1.0000 0.1297902412
H   H55       1.0  0.28940  0.84270  0.62390  1.0000 0.1297902412
H   H56       1.0  0.28940  0.15730  0.37610  1.0000 0.1297902412
H   H57       1.0  0.54790  0.56850  0.93570  1.0000 0.10026124
H   H58       1.0  0.54790  0.43150  0.06430  1.0000 0.10026124
H   H59       1.0  0.45210  0.93150  0.43570  1.0000 0.10026124
H   H60       1.0  0.45210  0.06850  0.56430  1.0000 0.10026124
H   H61       1.0  0.51730  0.65400  0.93270  1.0000 0.10026124
H   H62       1.0  0.51730  0.34600  0.06730  1.0000 0.10026124
H   H63       1.0  0.48270  0.84600  0.43270  1.0000 0.10026124
H   H64       1.0  0.48270  0.15400  0.56730  1.0000 0.10026124
H   H65       1.0  0.35750  0.58130  0.94350  1.0000 0.0907913207
H   H66       1.0  0.35750  0.41870  0.05650  1.0000 0.0907913207
H   H67       1.0  0.64250  0.91870  0.44350  1.0000 0.0907913207
H   H68       1.0  0.64250  0.08130  0.55650  1.0000 0.0907913207
H   H69       1.0  0.40440  0.54850  0.01670  1.0000 0.0907913207
H   H70       1.0  0.40440  0.45150  0.98330  1.0000 0.0907913207
H   H71       1.0  0.59560  0.95150  0.51670  1.0000 0.0907913207
H   H72       1.0  0.59560  0.04850  0.48330  1.0000 0.0907913207
H   H73       1.0  0.20300  0.67320  0.06570  1.0000 0.1191935863
H   H74       1.0  0.20300  0.32680  0.93430  1.0000 0.1191935863
H   H75       1.0  0.79700  0.82680  0.56570  1.0000 0.1191935863
H   H76       1.0  0.79700  0.17320  0.43430  1.0000 0.1191935863
H   H77       1.0  0.20330  0.66450  0.98190  1.0000 0.1093713826
H   H78       1.0  0.20330  0.33550  0.01810  1.0000 0.1093713826
H   H79       1.0  0.79670  0.83550  0.48190  1.0000 0.1093713826
H   H80       1.0  0.79670  0.16450  0.51810  1.0000 0.1093713826
H   H81       1.0  0.21410  0.77940  0.96420  1.0000 0.1191935863
H   H82       1.0  0.21410  0.22060  0.03580  1.0000 0.1191935863
H   H83       1.0  0.78590  0.72060  0.46420  1.0000 0.1191935863
H   H84       1.0  0.78590  0.27940  0.53580  1.0000 0.1191935863
H   H85       1.0  0.13810  0.77310  0.03620  1.0000 0.1093713826
H   H86       1.0  0.13810  0.22690  0.96380  1.0000 0.1093713826
H   H87       1.0  0.86190  0.72690  0.53620  1.0000 0.1093713826
H   H88       1.0  0.86190  0.27310  0.46380  1.0000 0.1093713826
H   H89       1.0  0.73060  0.65680  0.69040  1.0000 0.3443527653
H   H90       1.0  0.73060  0.34320  0.30960  1.0000 0.3443527653
H   H91       1.0  0.26940  0.84320  0.19040  1.0000 0.3443527653
H   H92       1.0  0.26940  0.15680  0.80960  1.0000 0.3443527653
H   H93       1.0  0.28290  0.78160  0.09730  1.0000 0.3233915925
H   H94       1.0  0.28290  0.21840  0.90270  1.0000 0.3233915925
H   H95       1.0  0.71710  0.71840  0.59730  1.0000 0.3233915925
H   H96       1.0  0.71710  0.28160  0.40270  1.0000 0.3233915925
C   C1        1.0  0.18300  0.44170  0.76590  1.0000 0.0029367114
C   C2        1.0  0.18300  0.55830  0.23410  1.0000 0.0029367114
C   C3        1.0  0.81700  0.05830  0.26590  1.0000 0.0029367114
C   C4        1.0  0.81700  0.94170  0.73410  1.0000 0.0029367114
C   C5        1.0  0.12360  0.50510  0.76140  1.0000 -0.1465714291
C   C6        1.0  0.12360  0.49490  0.23860  1.0000 -0.1465714291
C   C7        1.0  0.87640  0.99490  0.26140  1.0000 -0.1465714291
C   C8        1.0  0.87640  0.00510  0.73860  1.0000 -0.1465714291
C   C9        1.0  0.17400  0.57330  0.77600  1.0000 -0.0145915408
C   C10       1.0  0.17400  0.42670  0.22400  1.0000 -0.0145915408
C   C11       1.0  0.82600  0.92670  0.27600  1.0000 -0.0145915408
C   C12       1.0  0.82600  0.07330  0.72400  1.0000 -0.0145915408
C   C13       1.0  0.28980  0.57190  0.79310  1.0000 -0.2361920938
C   C14       1.0  0.28980  0.42810  0.20690  1.0000 -0.2361920938
C   C15       1.0  0.71020  0.92810  0.29310  1.0000 -0.2361920938
C   C16       1.0  0.71020  0.07190  0.70690  1.0000 -0.2361920938
C   C17       1.0  0.35080  0.50690  0.79420  1.0000 0.2303573474
C   C18       1.0  0.35080  0.49310  0.20580  1.0000 0.2303573474
C   C19       1.0  0.64920  0.99310  0.29420  1.0000 0.2303573474
C   C20       1.0  0.64920  0.00690  0.70580  1.0000 0.2303573474
C   C21       1.0  0.29940  0.44270  0.78380  1.0000 -0.2470239491
C   C22       1.0  0.29940  0.55730  0.21620  1.0000 -0.2470239491
C   C23       1.0  0.70060  0.05730  0.28380  1.0000 -0.2470239491
C   C24       1.0  0.70060  0.94270  0.71620  1.0000 -0.2470239491
C   C25       1.0  0.12470  0.37020  0.75640  1.0000 0.5672221317
C   C26       1.0  0.12470  0.62980  0.24360  1.0000 0.5672221317
C   C27       1.0  0.87530  0.12980  0.25640  1.0000 0.5672221317
C   C28       1.0  0.87530  0.87020  0.74360  1.0000 0.5672221317
C   C29       1.0  0.11170  0.64250  0.77570  1.0000 0.5508086815
C   C30       1.0  0.11170  0.35750  0.22430  1.0000 0.5508086815
C   C31       1.0  0.88830  0.85750  0.27570  1.0000 0.5508086815
C   C32       1.0  0.88830  0.14250  0.72430  1.0000 0.5508086815
C   C33       1.0  0.53310  0.45270  0.79410  1.0000 -0.0616325919
C   C34       1.0  0.53310  0.54730  0.20590  1.0000 -0.0616325919
C   C35       1.0  0.46690  0.04730  0.29410  1.0000 -0.0616325919
C   C36       1.0  0.46690  0.95270  0.70590  1.0000 -0.0616325919
C   C37       1.0  0.65310  0.47750  0.79460  1.0000 -0.0746498198
C   C38       1.0  0.65310  0.52250  0.20540  1.0000 -0.0746498198
C   C39       1.0  0.34690  0.02250  0.29460  1.0000 -0.0746498198
C   C40       1.0  0.34690  0.97750  0.70540  1.0000 -0.0746498198
C   C41       1.0  0.79220  0.53340  0.72780  1.0000 -0.0924940274
C   C42       1.0  0.79220  0.46660  0.27220  1.0000 -0.0924940274
C   C43       1.0  0.20780  0.96660  0.22780  1.0000 -0.0924940274
C   C44       1.0  0.20780  0.03340  0.77220  1.0000 -0.0924940274
C   C45       1.0  0.81680  0.57650  0.66080  1.0000 -0.0179181715
C   C46       1.0  0.81680  0.42350  0.33920  1.0000 -0.0179181715
C   C47       1.0  0.18320  0.92350  0.16080  1.0000 -0.0179181715
C   C48       1.0  0.18320  0.07650  0.83920  1.0000 -0.0179181715
C   C49       1.0  0.84840  0.70170  0.07910  1.0000 -0.0345663071
C   C50       1.0  0.84840  0.29830  0.92090  1.0000 -0.0345663071
C   C51       1.0  0.15160  0.79830  0.57910  1.0000 -0.0345663071
C   C52       1.0  0.15160  0.20170  0.42090  1.0000 -0.0345663071
C   C53       1.0  0.89870  0.72010  0.01170  1.0000 -0.171737747
C   C54       1.0  0.89870  0.27990  0.98830  1.0000 -0.171737747
C   C55       1.0  0.10130  0.77990  0.51170  1.0000 -0.171737747
C   C56       1.0  0.10130  0.22010  0.48830  1.0000 -0.171737747
C   C57       1.0  0.84110  0.70240  0.95000  1.0000 0.0249637871
C   C58       1.0  0.84110  0.29760  0.05000  1.0000 0.0249637871
C   C59       1.0  0.15890  0.79760  0.45000  1.0000 0.0249637871
C   C60       1.0  0.15890  0.20240  0.55000  1.0000 0.0249637871
C   C61       1.0  0.73830  0.66800  0.94980  1.0000 -0.2470239491
C   C62       1.0  0.73830  0.33200  0.05020  1.0000 -0.2470239491
C   C63       1.0  0.26170  0.83200  0.44980  1.0000 -0.2470239491
C   C64       1.0  0.26170  0.16800  0.55020  1.0000 -0.2470239491
C   C65       1.0  0.69080  0.64870  0.01470  1.0000 0.243643476
C   C66       1.0  0.69080  0.35130  0.98530  1.0000 0.243643476
C   C67       1.0  0.30920  0.85130  0.51470  1.0000 0.243643476
C   C68       1.0  0.30920  0.14870  0.48530  1.0000 0.243643476
C   C69       1.0  0.74570  0.66800  0.07940  1.0000 -0.2104200289
C   C70       1.0  0.74570  0.33200  0.92060  1.0000 -0.2104200289
C   C71       1.0  0.25430  0.83200  0.57940  1.0000 -0.2104200289
C   C72       1.0  0.25430  0.16800  0.42060  1.0000 -0.2104200289
C   C73       1.0  0.90850  0.71690  0.14440  1.0000 0.5586338176
C   C74       1.0  0.90850  0.28310  0.85560  1.0000 0.5586338176
C   C75       1.0  0.09150  0.78310  0.64440  1.0000 0.5586338176
C   C76       1.0  0.09150  0.21690  0.35560  1.0000 0.5586338176
C   C77       1.0  0.89340  0.72530  0.87930  1.0000 0.5759713783
C   C78       1.0  0.89340  0.27470  0.12070  1.0000 0.5759713783
C   C79       1.0  0.10660  0.77470  0.37930  1.0000 0.5759713783
C   C80       1.0  0.10660  0.22530  0.62070  1.0000 0.5759713783
C   C81       1.0  0.51740  0.61000  0.96370  1.0000 -0.0411874574
C   C82       1.0  0.51740  0.39000  0.03630  1.0000 -0.0411874574
C   C83       1.0  0.48260  0.89000  0.46370  1.0000 -0.0411874574
C   C84       1.0  0.48260  0.11000  0.53630  1.0000 -0.0411874574
C   C85       1.0  0.40200  0.59320  0.98700  1.0000 -0.0746498198
C   C86       1.0  0.40200  0.40680  0.01300  1.0000 -0.0746498198
C   C87       1.0  0.59800  0.90680  0.48700  1.0000 -0.0746498198
C   C88       1.0  0.59800  0.09320  0.51300  1.0000 -0.0746498198
C   C89       1.0  0.24300  0.68870  0.02200  1.0000 -0.0616325919
C   C90       1.0  0.24300  0.31130  0.97800  1.0000 -0.0616325919
C   C91       1.0  0.75700  0.81130  0.52200  1.0000 -0.0616325919
C   C92       1.0  0.75700  0.18870  0.47800  1.0000 -0.0616325919
C   C93       1.0  0.21200  0.76220  0.01400  1.0000 -0.0179181715
C   C94       1.0  0.21200  0.23780  0.98600  1.0000 -0.0179181715
C   C95       1.0  0.78800  0.73780  0.51400  1.0000 -0.0179181715
C   C96       1.0  0.78800  0.26220  0.48600  1.0000 -0.0179181715
O   O1        1.0  0.15320  0.69760  0.80260  1.0000 -0.4882231594
O   O2        1.0  0.15320  0.30240  0.19740  1.0000 -0.4882231594
O   O3        1.0  0.84680  0.80240  0.30260  1.0000 -0.4882231594
O   O4        1.0  0.84680  0.19760  0.69740  1.0000 -0.4882231594
O   O5        1.0  0.01410  0.63700  0.74410  1.0000 -0.5468863115
O   O6        1.0  0.01410  0.36300  0.25590  1.0000 -0.5468863115
O   O7        1.0  0.98590  0.86300  0.24410  1.0000 -0.5468863115
O   O8        1.0  0.98590  0.13700  0.75590  1.0000 -0.5468863115
O   O9        1.0  0.03290  0.37340  0.72040  1.0000 -0.5341081635
O   O10       1.0  0.03290  0.62660  0.27960  1.0000 -0.5341081635
O   O11       1.0  0.96710  0.12660  0.22040  1.0000 -0.5341081635
O   O12       1.0  0.96710  0.87340  0.77960  1.0000 -0.5341081635
O   O13       1.0  0.16910  0.31230  0.77710  1.0000 -0.5172821299
O   O14       1.0  0.16910  0.68770  0.22290  1.0000 -0.5172821299
O   O15       1.0  0.83090  0.18770  0.27710  1.0000 -0.5172821299
O   O16       1.0  0.83090  0.81230  0.72290  1.0000 -0.5172821299
O   O17       1.0  0.46520  0.51540  0.80650  1.0000 -0.2104200289
O   O18       1.0  0.46520  0.48460  0.19350  1.0000 -0.2104200289
O   O19       1.0  0.53480  0.98460  0.30650  1.0000 -0.2104200289
O   O20       1.0  0.53480  0.01540  0.69350  1.0000 -0.2104200289
O   O21       1.0  0.67580  0.52300  0.73540  1.0000 -0.1960463241
O   O22       1.0  0.67580  0.47700  0.26460  1.0000 -0.1960463241
O   O23       1.0  0.32420  0.97700  0.23540  1.0000 -0.1960463241
O   O24       1.0  0.32420  0.02300  0.76460  1.0000 -0.1960463241
O   O25       1.0  0.79290  0.65300  0.66960  1.0000 -0.4412953124
O   O26       1.0  0.79290  0.34700  0.33040  1.0000 -0.4412953124
O   O27       1.0  0.20710  0.84700  0.16960  1.0000 -0.4412953124
O   O28       1.0  0.20710  0.15300  0.83040  1.0000 -0.4412953124
O   O29       1.0  0.85950  0.69460  0.20310  1.0000 -0.5360886917
O   O30       1.0  0.85950  0.30540  0.79690  1.0000 -0.5360886917
O   O31       1.0  0.14050  0.80540  0.70310  1.0000 -0.5360886917
O   O32       1.0  0.14050  0.19460  0.29690  1.0000 -0.5360886917
O   O33       1.0  0.99790  0.75110  0.14500  1.0000 -0.5097671018
O   O34       1.0  0.99790  0.24890  0.85500  1.0000 -0.5097671018
O   O35       1.0  0.00210  0.74890  0.64500  1.0000 -0.5097671018
O   O36       1.0  0.00210  0.25110  0.35500  1.0000 -0.5097671018
O   O37       1.0  0.98300  0.76100  0.88160  1.0000 -0.5097671018
O   O38       1.0  0.98300  0.23900  0.11840  1.0000 -0.5097671018
O   O39       1.0  0.01700  0.73900  0.38160  1.0000 -0.5097671018
O   O40       1.0  0.01700  0.26100  0.61840  1.0000 -0.5097671018
O   O41       1.0  0.84640  0.70050  0.82240  1.0000 -0.5341081635
O   O42       1.0  0.84640  0.29950  0.17760  1.0000 -0.5341081635
O   O43       1.0  0.15360  0.79950  0.32240  1.0000 -0.5341081635
O   O44       1.0  0.15360  0.20050  0.67760  1.0000 -0.5341081635
O   O45       1.0  0.58300  0.62220  0.02250  1.0000 -0.1641417161
O   O46       1.0  0.58300  0.37780  0.97750  1.0000 -0.1641417161
O   O47       1.0  0.41700  0.87780  0.52250  1.0000 -0.1641417161
O   O48       1.0  0.41700  0.12220  0.47750  1.0000 -0.1641417161
O   O49       1.0  0.34380  0.64920  0.02600  1.0000 -0.2104200289
O   O50       1.0  0.34380  0.35080  0.97400  1.0000 -0.2104200289
O   O51       1.0  0.65620  0.85080  0.52600  1.0000 -0.2104200289
O   O52       1.0  0.65620  0.14920  0.47400  1.0000 -0.2104200289
O   O53       1.0  0.29780  0.78700  0.05350  1.0000 -0.2990338147
O   O54       1.0  0.29780  0.21300  0.94650  1.0000 -0.2990338147
O   O55       1.0  0.70220  0.71300  0.55350  1.0000 -0.2990338147
O   O56       1.0  0.70220  0.28700  0.44650  1.0000 -0.2990338147
