# DDEC6 charges by PACMAN v1.1 (https://github.com/mtap-research/PACMAN-charge/)
data_2010[Co][tfz]3[ASR]1
_chemical_formula_sum              "Co4 H32 C44 N4 O16"
_cell_length_a       9.8385
_cell_length_b       11.0629
_cell_length_c       13.6669
_cell_angle_alpha    65.407
_cell_angle_beta     77.8929
_cell_angle_gamma    69.717

_symmetry_space_group_name_H-M    "P 1"
_symmetry_Int_Tables_number       1

loop_
  _symmetry_equiv_pos_as_xyz
  'x, y, z'

loop_
  _atom_site_type_symbol
  _atom_site_label
  _atom_site_symmetry_multiplicity
  _atom_site_fract_x
  _atom_site_fract_y
  _atom_site_fract_z
  _atom_site_occupancy
  _atom_site_charge
Co  Co1       1.0  0.89257  0.82071  0.20252  1.0000 0.8640944347
Co  Co2       1.0  0.10743  0.17929  0.79748  1.0000 0.8640944347
Co  Co3       1.0  0.82947  0.06952  0.98566  1.0000 0.9874922022
Co  Co4       1.0  0.17053  0.93048  0.01434  1.0000 0.9874922022
H   H1        1.0  0.95790  0.04270  0.12930  1.0000 0.3832899318
H   H2        1.0  0.04210  0.95730  0.87070  1.0000 0.3832899318
H   H3        1.0  0.64740  0.85390  0.89600  1.0000 0.1316260174
H   H4        1.0  0.35260  0.14610  0.10400  1.0000 0.1316260174
H   H5        1.0  0.67010  0.49220  0.87470  1.0000 0.120894754
H   H6        1.0  0.32990  0.50780  0.12530  1.0000 0.120894754
H   H7        1.0  0.87850  0.48670  0.10460  1.0000 0.120894754
H   H8        1.0  0.12150  0.51330  0.89540  1.0000 0.120894754
H   H9        1.0  0.47840  0.91990  0.66550  1.0000 0.1316260174
H   H10       1.0  0.52160  0.08010  0.33450  1.0000 0.1316260174
H   H11       1.0  0.58180  0.93280  0.73430  1.0000 0.120894754
H   H12       1.0  0.41820  0.06720  0.26570  1.0000 0.120894754
H   H13       1.0  0.79230  0.06050  0.76880  1.0000 0.1121154842
H   H14       1.0  0.20770  0.93950  0.23120  1.0000 0.1121154842
H   H15       1.0  0.64190  0.17460  0.63050  1.0000 0.120894754
H   H16       1.0  0.35810  0.82540  0.36950  1.0000 0.120894754
H   H17       1.0  0.39560  0.42780  0.78400  1.0000 0.1316260174
H   H18       1.0  0.60440  0.57220  0.21600  1.0000 0.1316260174
H   H19       1.0  0.55370  0.30640  0.92060  1.0000 0.1121154842
H   H20       1.0  0.44630  0.69360  0.07940  1.0000 0.1121154842
H   H21       1.0  0.44190  0.35150  0.54010  1.0000 0.120894754
H   H22       1.0  0.55810  0.64850  0.45990  1.0000 0.120894754
H   H23       1.0  0.24920  0.50230  0.65560  1.0000 0.1316260174
H   H24       1.0  0.75080  0.49770  0.34440  1.0000 0.1316260174
H   H25       1.0  0.29470  0.42290  0.40830  1.0000 0.1316260174
H   H26       1.0  0.70530  0.57710  0.59170  1.0000 0.1316260174
H   H27       1.0  0.13590  0.55610  0.26550  1.0000 0.1121154842
H   H28       1.0  0.86410  0.44390  0.73450  1.0000 0.1121154842
H   H29       1.0  0.91910  0.80350  0.42060  1.0000 0.1121154842
H   H30       1.0  0.08090  0.19650  0.57940  1.0000 0.1121154842
H   H31       1.0  0.06520  0.68560  0.55900  1.0000 0.1425612554
H   H32       1.0  0.93480  0.31440  0.44100  1.0000 0.1425612554
C   C1        1.0  0.81130  0.75950  0.05580  1.0000 0.5804350362
C   C2        1.0  0.18870  0.24050  0.94420  1.0000 0.5804350362
C   C3        1.0  0.77150  0.68130  0.00540  1.0000 -0.0027265921
C   C4        1.0  0.22850  0.31870  0.99460  1.0000 -0.0027265921
C   C5        1.0  0.68190  0.75540  0.92100  1.0000 -0.2417963311
C   C6        1.0  0.31810  0.24460  0.07900  1.0000 -0.2417963311
C   C7        1.0  0.64290  0.68430  0.87310  1.0000 0.2531778202
C   C8        1.0  0.35710  0.31570  0.12690  1.0000 0.2531778202
C   C9        1.0  0.69620  0.54000  0.90830  1.0000 -0.2417963311
C   C10       1.0  0.30380  0.46000  0.09170  1.0000 -0.2417963311
C   C11       1.0  0.78750  0.46550  0.99230  1.0000 0.0153088294
C   C12       1.0  0.21250  0.53450  0.00770  1.0000 0.0153088294
C   C13       1.0  0.82170  0.53680  0.04400  1.0000 -0.1683629269
C   C14       1.0  0.17830  0.46320  0.95600  1.0000 -0.1683629269
C   C15       1.0  0.50240  0.89410  0.73970  1.0000 -0.1683629269
C   C16       1.0  0.49760  0.10590  0.26030  1.0000 -0.1683629269
C   C17       1.0  0.36920  0.96080  0.80020  1.0000 0.6095910654
C   C18       1.0  0.63080  0.03920  0.19980  1.0000 0.6095910654
C   C19       1.0  0.84540  0.30950  0.02620  1.0000 0.5804350362
C   C20       1.0  0.15460  0.69050  0.97380  1.0000 0.5804350362
C   C21       1.0  0.71050  0.13620  0.77250  1.0000 0.0847959131
C   C22       1.0  0.28950  0.86380  0.22750  1.0000 0.0847959131
C   C23       1.0  0.62100  0.20400  0.68960  1.0000 -0.21609454
C   C24       1.0  0.37900  0.79600  0.31040  1.0000 -0.21609454
C   C25       1.0  0.50110  0.31430  0.69100  1.0000 0.1580385551
C   C26       1.0  0.49890  0.68570  0.30900  1.0000 0.1580385551
C   C27       1.0  0.47690  0.35220  0.77920  1.0000 -0.1897021994
C   C28       1.0  0.52310  0.64780  0.22080  1.0000 -0.1897021994
C   C29       1.0  0.57200  0.27900  0.86070  1.0000 0.0993637502
C   C30       1.0  0.42800  0.72100  0.13930  1.0000 0.0993637502
C   C31       1.0  0.40860  0.38040  0.59960  1.0000 -0.1397006526
C   C32       1.0  0.59140  0.61960  0.40040  1.0000 -0.1397006526
C   C33       1.0  0.28480  0.47540  0.59530  1.0000 -0.1270017564
C   C34       1.0  0.71520  0.52460  0.40470  1.0000 -0.1270017564
C   C35       1.0  0.19420  0.54540  0.49930  1.0000 0.1484897718
C   C36       1.0  0.80580  0.45460  0.50070  1.0000 0.1484897718
C   C37       1.0  0.21760  0.50250  0.41080  1.0000 -0.2035365045
C   C38       1.0  0.78240  0.49750  0.58920  1.0000 -0.2035365045
C   C39       1.0  0.12220  0.58220  0.32570  1.0000 0.0993637502
C   C40       1.0  0.87780  0.41780  0.67430  1.0000 0.0993637502
C   C41       1.0  0.99760  0.72530  0.41710  1.0000 0.0650802985
C   C42       1.0  0.00240  0.27470  0.58290  1.0000 0.0650802985
C   C43       1.0  0.08370  0.65580  0.50030  1.0000 -0.1897021994
C   C44       1.0  0.91630  0.34420  0.49970  1.0000 -0.1897021994
N   N1        1.0  0.68870  0.17110  0.85850  1.0000 -0.2331311941
N   N2        1.0  0.31130  0.82890  0.14150  1.0000 -0.2331311941
N   N3        1.0  0.01340  0.69380  0.33060  1.0000 -0.2571983352
N   N4        1.0  0.98660  0.30620  0.66940  1.0000 -0.2571983352
O   O1        1.0  0.86420  0.69370  0.14670  1.0000 -0.5437478438
O   O2        1.0  0.13580  0.30630  0.85330  1.0000 -0.5437478438
O   O3        1.0  0.79010  0.88790  0.00350  1.0000 -0.5711462959
O   O4        1.0  0.20990  0.11210  0.99650  1.0000 -0.5711462959
O   O5        1.0  0.55410  0.74560  0.78880  1.0000 -0.1683629269
O   O6        1.0  0.44590  0.25440  0.21120  1.0000 -0.1683629269
O   O7        1.0  0.29500  0.07930  0.74070  1.0000 -0.5711462959
O   O8        1.0  0.70500  0.92070  0.25930  1.0000 -0.5711462959
O   O9        1.0  0.34530  0.89660  0.89770  1.0000 -0.5312249973
O   O10       1.0  0.65470  0.10340  0.10230  1.0000 -0.5312249973
O   O11       1.0  0.84100  0.26320  0.95710  1.0000 -0.5928086653
O   O12       1.0  0.15900  0.73680  0.04290  1.0000 -0.5928086653
O   O13       1.0  0.89030  0.23650  0.11820  1.0000 -0.5478977575
O   O14       1.0  0.10970  0.76350  0.88180  1.0000 -0.5478977575
O   O15       1.0  0.97750  0.96980  0.10960  1.0000 -0.8771361724
O   O16       1.0  0.02250  0.03020  0.89040  1.0000 -0.8771361724
