# DDEC6 charges by PACMAN v1.1 (https://github.com/mtap-research/PACMAN-charge/)
data_2010[Zr][fcu]3[ASR]1
_chemical_formula_sum              "Zr6 H28 C48 O32"
_cell_length_a       14.8174
_cell_length_b       14.8174
_cell_length_c       14.8174
_cell_angle_alpha    60
_cell_angle_beta     60
_cell_angle_gamma    60

_symmetry_space_group_name_H-M    "P 1"
_symmetry_Int_Tables_number       1

loop_
  _symmetry_equiv_pos_as_xyz
  'x, y, z'

loop_
  _atom_site_type_symbol
  _atom_site_label
  _atom_site_symmetry_multiplicity
  _atom_site_fract_x
  _atom_site_fract_y
  _atom_site_fract_z
  _atom_site_occupancy
  _atom_site_charge
Zr  Zr1       1.0  0.87630  0.87630  0.12370  1.0000 2.2089229252
Zr  Zr2       1.0  0.12370  0.12370  0.87630  1.0000 2.2089229252
Zr  Zr3       1.0  0.12370  0.87630  0.87630  1.0000 2.2089229252
Zr  Zr4       1.0  0.87630  0.12370  0.12370  1.0000 2.2089229252
Zr  Zr5       1.0  0.87630  0.12370  0.87630  1.0000 2.2089229252
Zr  Zr6       1.0  0.12370  0.87630  0.12370  1.0000 2.2089229252
H   H1        1.0  0.59077  0.14413  0.40923  1.0000 0.0901387732
H   H2        1.0  0.14413  0.59077  0.85587  1.0000 0.0901387732
H   H3        1.0  0.40923  0.85587  0.59077  1.0000 0.0901387732
H   H4        1.0  0.85587  0.40923  0.14413  1.0000 0.0901387732
H   H5        1.0  0.40923  0.59077  0.14413  1.0000 0.0901387732
H   H6        1.0  0.85587  0.14413  0.59077  1.0000 0.0901387732
H   H7        1.0  0.59077  0.40923  0.85587  1.0000 0.0901387732
H   H8        1.0  0.14413  0.85587  0.40923  1.0000 0.0901387732
H   H9        1.0  0.14413  0.40923  0.59077  1.0000 0.0901387732
H   H10       1.0  0.59077  0.85587  0.14413  1.0000 0.0901387732
H   H11       1.0  0.85587  0.59077  0.40923  1.0000 0.0901387732
H   H12       1.0  0.40923  0.14413  0.85587  1.0000 0.0901387732
H   H13       1.0  0.14413  0.59077  0.40923  1.0000 0.0901387732
H   H14       1.0  0.59077  0.14413  0.85587  1.0000 0.0901387732
H   H15       1.0  0.85587  0.40923  0.59077  1.0000 0.0901387732
H   H16       1.0  0.40923  0.85587  0.14413  1.0000 0.0901387732
H   H17       1.0  0.59077  0.40923  0.14413  1.0000 0.0901387732
H   H18       1.0  0.14413  0.85587  0.59077  1.0000 0.0901387732
H   H19       1.0  0.40923  0.59077  0.85587  1.0000 0.0901387732
H   H20       1.0  0.85587  0.14413  0.40923  1.0000 0.0901387732
H   H21       1.0  0.40923  0.14413  0.59077  1.0000 0.0901387732
H   H22       1.0  0.85587  0.59077  0.14413  1.0000 0.0901387732
H   H23       1.0  0.59077  0.85587  0.40923  1.0000 0.0901387732
H   H24       1.0  0.14413  0.40923  0.85587  1.0000 0.0901387732
H   H25       1.0  0.90640  0.90640  0.28079  1.0000 0.3958978977
H   H26       1.0  0.90640  0.90640  0.90640  1.0000 0.3958978977
H   H27       1.0  0.28079  0.90640  0.90640  1.0000 0.3958978977
H   H28       1.0  0.90640  0.28079  0.90640  1.0000 0.3958978977
C   C1        1.0  0.55230  0.07750  0.44770  1.0000 -0.0455774805
C   C2        1.0  0.07750  0.55230  0.92250  1.0000 -0.0455774805
C   C3        1.0  0.44770  0.92250  0.55230  1.0000 -0.0443179246
C   C4        1.0  0.92250  0.44770  0.07750  1.0000 -0.0443179246
C   C5        1.0  0.44770  0.55230  0.07750  1.0000 -0.0455774805
C   C6        1.0  0.92250  0.07750  0.55230  1.0000 -0.0443179246
C   C7        1.0  0.55230  0.44770  0.92250  1.0000 -0.0443179246
C   C8        1.0  0.07750  0.92250  0.44770  1.0000 -0.0455774805
C   C9        1.0  0.07750  0.44770  0.55230  1.0000 -0.0455774805
C   C10       1.0  0.55230  0.92250  0.07750  1.0000 -0.0455774805
C   C11       1.0  0.92250  0.55230  0.44770  1.0000 -0.0443179246
C   C12       1.0  0.44770  0.07750  0.92250  1.0000 -0.0455774805
C   C13       1.0  0.07750  0.55230  0.44770  1.0000 -0.0455774805
C   C14       1.0  0.55230  0.07750  0.92250  1.0000 -0.0455774805
C   C15       1.0  0.92250  0.44770  0.55230  1.0000 -0.0455774805
C   C16       1.0  0.44770  0.92250  0.07750  1.0000 -0.0455774805
C   C17       1.0  0.55230  0.44770  0.07750  1.0000 -0.0455774805
C   C18       1.0  0.07750  0.92250  0.55230  1.0000 -0.0455774805
C   C19       1.0  0.44770  0.55230  0.92250  1.0000 -0.0455774805
C   C20       1.0  0.92250  0.07750  0.44770  1.0000 -0.0455774805
C   C21       1.0  0.44770  0.07750  0.55230  1.0000 -0.0455774805
C   C22       1.0  0.92250  0.55230  0.07750  1.0000 -0.0455774805
C   C23       1.0  0.55230  0.92250  0.44770  1.0000 -0.0455774805
C   C24       1.0  0.07750  0.44770  0.92250  1.0000 -0.0455774805
C   C25       1.0  0.68740  0.00000  0.31260  1.0000 0.5938429859
C   C26       1.0  0.59340  0.00000  0.40660  1.0000 -0.0956475336
C   C27       1.0  0.00000  0.68740  0.00000  1.0000 0.5938429859
C   C28       1.0  0.00000  0.59340  0.00000  1.0000 -0.0956475336
C   C29       1.0  0.31260  0.00000  0.68740  1.0000 0.5938429859
C   C30       1.0  0.40660  0.00000  0.59340  1.0000 -0.0956475336
C   C31       1.0  0.00000  0.31260  0.00000  1.0000 0.5938429859
C   C32       1.0  0.00000  0.40660  0.00000  1.0000 -0.0956475336
C   C33       1.0  0.31260  0.68740  0.00000  1.0000 0.5938429859
C   C34       1.0  0.40660  0.59340  0.00000  1.0000 -0.0956475336
C   C35       1.0  0.00000  0.00000  0.68740  1.0000 0.5938429859
C   C36       1.0  0.00000  0.00000  0.59340  1.0000 -0.0956475336
C   C37       1.0  0.68740  0.31260  0.00000  1.0000 0.5938429859
C   C38       1.0  0.59340  0.40660  0.00000  1.0000 -0.0956475336
C   C39       1.0  0.00000  0.00000  0.31260  1.0000 0.5938429859
C   C40       1.0  0.00000  0.00000  0.40660  1.0000 -0.0956475336
C   C41       1.0  0.00000  0.31260  0.68740  1.0000 0.5938429859
C   C42       1.0  0.00000  0.40660  0.59340  1.0000 -0.0956475336
C   C43       1.0  0.68740  0.00000  0.00000  1.0000 0.5938429859
C   C44       1.0  0.59340  0.00000  0.00000  1.0000 -0.0956475336
C   C45       1.0  0.00000  0.68740  0.31260  1.0000 0.5938429859
C   C46       1.0  0.00000  0.59340  0.40660  1.0000 -0.0956475336
C   C47       1.0  0.31260  0.00000  0.00000  1.0000 0.5938429859
C   C48       1.0  0.40660  0.00000  0.00000  1.0000 -0.0956475336
O   O1        1.0  0.72690  0.92450  0.27310  1.0000 -0.545924641
O   O2        1.0  0.92450  0.72690  0.07550  1.0000 -0.545924641
O   O3        1.0  0.27310  0.07550  0.72690  1.0000 -0.545924641
O   O4        1.0  0.07550  0.27310  0.92450  1.0000 -0.545924641
O   O5        1.0  0.27310  0.72690  0.92450  1.0000 -0.545924641
O   O6        1.0  0.07550  0.92450  0.72690  1.0000 -0.545924641
O   O7        1.0  0.72690  0.27310  0.07550  1.0000 -0.545924641
O   O8        1.0  0.92450  0.07550  0.27310  1.0000 -0.545924641
O   O9        1.0  0.92450  0.27310  0.72690  1.0000 -0.545924641
O   O10       1.0  0.72690  0.07550  0.92450  1.0000 -0.545924641
O   O11       1.0  0.07550  0.72690  0.27310  1.0000 -0.545924641
O   O12       1.0  0.27310  0.92450  0.07550  1.0000 -0.545924641
O   O13       1.0  0.92450  0.72690  0.27310  1.0000 -0.545924641
O   O14       1.0  0.72690  0.92450  0.07550  1.0000 -0.545924641
O   O15       1.0  0.07550  0.27310  0.72690  1.0000 -0.545924641
O   O16       1.0  0.27310  0.07550  0.92450  1.0000 -0.545924641
O   O17       1.0  0.72690  0.27310  0.92450  1.0000 -0.545924641
O   O18       1.0  0.92450  0.07550  0.72690  1.0000 -0.545924641
O   O19       1.0  0.27310  0.72690  0.07550  1.0000 -0.545924641
O   O20       1.0  0.07550  0.92450  0.27310  1.0000 -0.545924641
O   O21       1.0  0.27310  0.92450  0.72690  1.0000 -0.545924641
O   O22       1.0  0.07550  0.72690  0.92450  1.0000 -0.545924641
O   O23       1.0  0.72690  0.07550  0.27310  1.0000 -0.545924641
O   O24       1.0  0.92450  0.27310  0.07550  1.0000 -0.545924641
O   O25       1.0  0.78640  0.07120  0.07120  1.0000 -1.1382966612
O   O26       1.0  0.07120  0.78640  0.07120  1.0000 -1.1340494726
O   O27       1.0  0.07120  0.07120  0.78640  1.0000 -1.1340494726
O   O28       1.0  0.07120  0.07120  0.07120  1.0000 -1.1382966612
O   O29       1.0  0.92880  0.92880  0.21360  1.0000 -1.0610899303
O   O30       1.0  0.92880  0.92880  0.92880  1.0000 -1.0610899303
O   O31       1.0  0.21360  0.92880  0.92880  1.0000 -1.0610899303
O   O32       1.0  0.92880  0.21360  0.92880  1.0000 -1.0610899303
