# DDEC6 charges by PACMAN v1.1 (https://github.com/mtap-research/PACMAN-charge/)
data_2010[Cu][nan]3[ASR]35
_chemical_formula_sum              "Cu4 H28 C44 S4 N8 O16"
_cell_length_a       8.522
_cell_length_b       10.18
_cell_length_c       18.0265
_cell_angle_alpha    90
_cell_angle_beta     107.06
_cell_angle_gamma    90

_symmetry_space_group_name_H-M    "P 1"
_symmetry_Int_Tables_number       1

loop_
  _symmetry_equiv_pos_as_xyz
  'x, y, z'

loop_
  _atom_site_type_symbol
  _atom_site_label
  _atom_site_symmetry_multiplicity
  _atom_site_fract_x
  _atom_site_fract_y
  _atom_site_fract_z
  _atom_site_occupancy
  _atom_site_charge
Cu  Cu1       1.0  0.91986  0.32708  0.90464  1.0000 0.7742047772
Cu  Cu2       1.0  0.08014  0.82708  0.59536  1.0000 0.7742047772
Cu  Cu3       1.0  0.08014  0.67292  0.09536  1.0000 0.7742047772
Cu  Cu4       1.0  0.91986  0.17292  0.40464  1.0000 0.7742047772
H   H1        1.0  0.39640  0.61360  0.96370  1.0000 0.1218093208
H   H2        1.0  0.60360  0.11360  0.53630  1.0000 0.1218093208
H   H3        1.0  0.60360  0.38640  0.03630  1.0000 0.1218093208
H   H4        1.0  0.39640  0.88640  0.46370  1.0000 0.1218093208
H   H5        1.0  0.33830  0.72220  0.84380  1.0000 0.1292391136
H   H6        1.0  0.66170  0.22220  0.65620  1.0000 0.1292391136
H   H7        1.0  0.66170  0.27780  0.15620  1.0000 0.1292391136
H   H8        1.0  0.33830  0.77780  0.34380  1.0000 0.1292391136
H   H9        1.0  0.93250  0.50300  0.77220  1.0000 0.1292391136
H   H10       1.0  0.06750  0.00300  0.72780  1.0000 0.1292391136
H   H11       1.0  0.06750  0.49700  0.22780  1.0000 0.1292391136
H   H12       1.0  0.93250  0.99700  0.27220  1.0000 0.1292391136
H   H13       1.0  0.58060  0.25760  0.85970  1.0000 0.1218093208
H   H14       1.0  0.41940  0.75760  0.64030  1.0000 0.1218093208
H   H15       1.0  0.41940  0.74240  0.14030  1.0000 0.1218093208
H   H16       1.0  0.58060  0.24240  0.35970  1.0000 0.1218093208
H   H17       1.0  0.39170  0.13220  0.89700  1.0000 0.1469964996
H   H18       1.0  0.60830  0.63220  0.60300  1.0000 0.1469964996
H   H19       1.0  0.60830  0.86780  0.10300  1.0000 0.1469964996
H   H20       1.0  0.39170  0.36780  0.39700  1.0000 0.1469964996
H   H21       1.0  0.76720  0.98950  0.06770  1.0000 0.1469964996
H   H22       1.0  0.23280  0.48950  0.43230  1.0000 0.1469964996
H   H23       1.0  0.23280  0.01050  0.93230  1.0000 0.1469964996
H   H24       1.0  0.76720  0.51050  0.56770  1.0000 0.1469964996
H   H25       1.0  0.94050  0.11700  0.02280  1.0000 0.1218093208
H   H26       1.0  0.05950  0.61700  0.47720  1.0000 0.1218093208
H   H27       1.0  0.05950  0.88300  0.97720  1.0000 0.1218093208
H   H28       1.0  0.94050  0.38300  0.52280  1.0000 0.1218093208
C   C1        1.0  0.20060  0.49540  0.93360  1.0000 0.0899454035
C   C2        1.0  0.79940  0.99540  0.56640  1.0000 0.0899454035
C   C3        1.0  0.79940  0.50460  0.06640  1.0000 0.0899454035
C   C4        1.0  0.20060  0.00460  0.43360  1.0000 0.0899454035
C   C5        1.0  0.30370  0.59160  0.92350  1.0000 -0.1592548698
C   C6        1.0  0.69630  0.09160  0.57650  1.0000 -0.1592548698
C   C7        1.0  0.69630  0.40840  0.07650  1.0000 -0.1592548698
C   C8        1.0  0.30370  0.90840  0.42350  1.0000 -0.1592548698
C   C9        1.0  0.26920  0.65690  0.85230  1.0000 -0.0249318018
C   C10       1.0  0.73080  0.15690  0.64770  1.0000 -0.0249318018
C   C11       1.0  0.73080  0.34310  0.14770  1.0000 -0.0249318018
C   C12       1.0  0.26920  0.84310  0.35230  1.0000 -0.0249318018
C   C13       1.0  0.12730  0.62080  0.79430  1.0000 -0.0521141722
C   C14       1.0  0.87270  0.12080  0.70570  1.0000 -0.0521141722
C   C15       1.0  0.87270  0.37920  0.20570  1.0000 -0.0521141722
C   C16       1.0  0.12730  0.87920  0.29430  1.0000 -0.0521141722
C   C17       1.0  0.07900  0.68340  0.71540  1.0000 0.538594769
C   C18       1.0  0.92100  0.18340  0.78460  1.0000 0.538594769
C   C19       1.0  0.92100  0.31660  0.28460  1.0000 0.538594769
C   C20       1.0  0.07900  0.81660  0.21540  1.0000 0.538594769
C   C21       1.0  0.02910  0.52470  0.81030  1.0000 0.0815246642
C   C22       1.0  0.97090  0.02470  0.68970  1.0000 0.0815246642
C   C23       1.0  0.97090  0.47530  0.18970  1.0000 0.0815246642
C   C24       1.0  0.02910  0.97530  0.31030  1.0000 0.0815246642
C   C25       1.0  0.61800  0.20270  0.90250  1.0000 0.0997514181
C   C26       1.0  0.38200  0.70270  0.59750  1.0000 0.0997514181
C   C27       1.0  0.38200  0.79730  0.09750  1.0000 0.0997514181
C   C28       1.0  0.61800  0.29730  0.40250  1.0000 0.0997514181
C   C29       1.0  0.50270  0.12670  0.92390  1.0000 -0.1906233862
C   C30       1.0  0.49730  0.62670  0.57610  1.0000 -0.1906233862
C   C31       1.0  0.49730  0.87330  0.07610  1.0000 -0.1906233862
C   C32       1.0  0.50270  0.37330  0.42390  1.0000 -0.1906233862
C   C33       1.0  0.55850  0.04210  0.98680  1.0000 0.110961394
C   C34       1.0  0.44150  0.54210  0.51320  1.0000 0.110961394
C   C35       1.0  0.44150  0.95790  0.01320  1.0000 0.110961394
C   C36       1.0  0.55850  0.45790  0.48680  1.0000 0.110961394
C   C37       1.0  0.72490  0.04240  0.02440  1.0000 -0.1834032073
C   C38       1.0  0.27510  0.54240  0.47560  1.0000 -0.1834032073
C   C39       1.0  0.27510  0.95760  0.97560  1.0000 -0.1834032073
C   C40       1.0  0.72490  0.45760  0.52440  1.0000 -0.1834032073
C   C41       1.0  0.82840  0.12110  0.99780  1.0000 0.0899454035
C   C42       1.0  0.17160  0.62110  0.50220  1.0000 0.0899454035
C   C43       1.0  0.17160  0.87890  0.00220  1.0000 0.0899454035
C   C44       1.0  0.82840  0.37890  0.49780  1.0000 0.0899454035
S   S1        1.0  0.23995  0.40332  0.02355  1.0000 0.5745733544
S   S2        1.0  0.76005  0.90332  0.47645  1.0000 0.5745733544
S   S3        1.0  0.76005  0.59668  0.97645  1.0000 0.5745733544
S   S4        1.0  0.23995  0.09668  0.52355  1.0000 0.5745733544
N   N1        1.0  0.77570  0.20190  0.93850  1.0000 -0.216578944
N   N2        1.0  0.22430  0.70190  0.56150  1.0000 -0.216578944
N   N3        1.0  0.22430  0.79810  0.06150  1.0000 -0.216578944
N   N4        1.0  0.77570  0.29810  0.43850  1.0000 -0.216578944
N   N5        1.0  0.06580  0.46050  0.87810  1.0000 -0.2346035078
N   N6        1.0  0.93420  0.96050  0.62190  1.0000 -0.2346035078
N   N7        1.0  0.93420  0.53950  0.12190  1.0000 -0.2346035078
N   N8        1.0  0.06580  0.03950  0.37810  1.0000 -0.2353003159
O   O1        1.0  0.17440  0.77520  0.70470  1.0000 -0.5378645792
O   O2        1.0  0.82560  0.27520  0.79530  1.0000 -0.5378645792
O   O3        1.0  0.82560  0.22480  0.29530  1.0000 -0.5378645792
O   O4        1.0  0.17440  0.72480  0.20470  1.0000 -0.5378645792
O   O5        1.0  0.95630  0.64650  0.66550  1.0000 -0.5568775818
O   O6        1.0  0.04370  0.14650  0.83450  1.0000 -0.5568775818
O   O7        1.0  0.04370  0.35350  0.33450  1.0000 -0.5568775818
O   O8        1.0  0.95630  0.85350  0.16550  1.0000 -0.5568775818
O   O9        1.0  0.26060  0.50810  0.08320  1.0000 -0.5713378325
O   O10       1.0  0.73940  0.00810  0.41680  1.0000 -0.5713378325
O   O11       1.0  0.73940  0.49190  0.91680  1.0000 -0.5713378325
O   O12       1.0  0.26060  0.99190  0.58320  1.0000 -0.5713378325
O   O13       1.0  0.07640  0.33450  0.00980  1.0000 -0.549636288
O   O14       1.0  0.92360  0.83450  0.49020  1.0000 -0.549636288
O   O15       1.0  0.92360  0.66550  0.99020  1.0000 -0.549636288
O   O16       1.0  0.07640  0.16550  0.50980  1.0000 -0.549636288
