# DDEC6 charges by PACMAN v1.1 (https://github.com/mtap-research/PACMAN-charge/)
data_2010[Cu][nan]3[ASR]15
_chemical_formula_sum              "Cu8 H12 C32 S4 O32"
_cell_length_a       7.3333
_cell_length_b       18.153
_cell_length_c       12.0778
_cell_angle_alpha    90
_cell_angle_beta     122.879
_cell_angle_gamma    90

_symmetry_space_group_name_H-M    "P 1"
_symmetry_Int_Tables_number       1

loop_
  _symmetry_equiv_pos_as_xyz
  'x, y, z'

loop_
  _atom_site_type_symbol
  _atom_site_label
  _atom_site_symmetry_multiplicity
  _atom_site_fract_x
  _atom_site_fract_y
  _atom_site_fract_z
  _atom_site_occupancy
  _atom_site_charge
Cu  Cu1       1.0  0.35140  0.09430  0.21860  1.0000 1.0440348641
Cu  Cu2       1.0  0.64860  0.59430  0.28140  1.0000 1.0440348641
Cu  Cu3       1.0  0.64860  0.90570  0.78140  1.0000 1.0440348641
Cu  Cu4       1.0  0.35140  0.40570  0.71860  1.0000 1.0440348641
Cu  Cu5       1.0  0.88750  0.06820  0.93260  1.0000 1.1217212038
Cu  Cu6       1.0  0.11250  0.56820  0.56740  1.0000 1.1217212038
Cu  Cu7       1.0  0.11250  0.93180  0.06740  1.0000 1.1217212038
Cu  Cu8       1.0  0.88750  0.43180  0.43260  1.0000 1.1217212038
H   H1        1.0  0.39300  0.30780  0.16380  1.0000 0.14821372
H   H2        1.0  0.60700  0.80780  0.33620  1.0000 0.14821372
H   H3        1.0  0.60700  0.69220  0.83620  1.0000 0.14821372
H   H4        1.0  0.39300  0.19220  0.66380  1.0000 0.14821372
H   H5        1.0  0.86140  0.29150  0.79990  1.0000 0.14821372
H   H6        1.0  0.13860  0.79150  0.70010  1.0000 0.14821372
H   H7        1.0  0.13860  0.70850  0.20010  1.0000 0.14821372
H   H8        1.0  0.86140  0.20850  0.29990  1.0000 0.14821372
H   H9        1.0  0.16030  0.48720  0.94720  1.0000 0.14821372
H   H10       1.0  0.83970  0.98720  0.55280  1.0000 0.14821372
H   H11       1.0  0.83970  0.51280  0.05280  1.0000 0.14821372
H   H12       1.0  0.16030  0.01280  0.44720  1.0000 0.14821372
C   C1        1.0  0.98700  0.39580  0.85300  1.0000 -0.0533825761
C   C2        1.0  0.01300  0.89580  0.64700  1.0000 -0.0533825761
C   C3        1.0  0.01300  0.60420  0.14700  1.0000 -0.0533825761
C   C4        1.0  0.98700  0.10420  0.35300  1.0000 -0.0533825761
C   C5        1.0  0.29700  0.40240  0.07000  1.0000 0.00370256
C   C6        1.0  0.70300  0.90240  0.43000  1.0000 0.00370256
C   C7        1.0  0.70300  0.59760  0.93000  1.0000 0.00370256
C   C8        1.0  0.29700  0.09760  0.57000  1.0000 0.00370256
C   C9        1.0  0.28700  0.33000  0.08600  1.0000 -0.0926078378
C   C10       1.0  0.71300  0.83000  0.41400  1.0000 -0.0926078378
C   C11       1.0  0.71300  0.67000  0.91400  1.0000 -0.0926078378
C   C12       1.0  0.28700  0.17000  0.58600  1.0000 -0.0926078378
C   C13       1.0  0.12300  0.28800  0.99000  1.0000 0.0093210574
C   C14       1.0  0.87700  0.78800  0.51000  1.0000 0.0093210574
C   C15       1.0  0.87700  0.71200  0.01000  1.0000 0.0093210574
C   C16       1.0  0.12300  0.21200  0.49000  1.0000 0.0093210574
C   C17       1.0  0.09300  0.20490  0.00100  1.0000 0.6118198069
C   C18       1.0  0.90700  0.70490  0.49900  1.0000 0.6118198069
C   C19       1.0  0.90700  0.79510  0.99900  1.0000 0.6118198069
C   C20       1.0  0.09300  0.29510  0.50100  1.0000 0.6118198069
C   C21       1.0  0.97000  0.31970  0.86800  1.0000 -0.096658101
C   C22       1.0  0.03000  0.81970  0.63200  1.0000 -0.096658101
C   C23       1.0  0.03000  0.68030  0.13200  1.0000 -0.096658101
C   C24       1.0  0.97000  0.18030  0.36800  1.0000 -0.096658101
C   C25       1.0  0.15100  0.43670  0.95600  1.0000 -0.096658101
C   C26       1.0  0.84900  0.93670  0.54400  1.0000 -0.096658101
C   C27       1.0  0.84900  0.56330  0.04400  1.0000 -0.096658101
C   C28       1.0  0.15100  0.06330  0.45600  1.0000 -0.096658101
C   C29       1.0  0.48500  0.44430  0.18300  1.0000 0.6118198069
C   C30       1.0  0.51500  0.94430  0.31700  1.0000 0.6118198069
C   C31       1.0  0.51500  0.55570  0.81700  1.0000 0.6118198069
C   C32       1.0  0.48500  0.05570  0.68300  1.0000 0.6118198069
S   S1        1.0  0.80780  0.43400  0.69090  1.0000 1.1860591329
S   S2        1.0  0.19220  0.93400  0.80910  1.0000 1.1860591329
S   S3        1.0  0.19220  0.56600  0.30910  1.0000 1.1860591329
S   S4        1.0  0.80780  0.06600  0.19090  1.0000 1.1847308235
O   O1        1.0  0.96250  0.16640  0.91450  1.0000 -0.4582262454
O   O2        1.0  0.03750  0.66640  0.58550  1.0000 -0.4582262454
O   O3        1.0  0.03750  0.83360  0.08550  1.0000 -0.4582262454
O   O4        1.0  0.96250  0.33360  0.41450  1.0000 -0.4582262454
O   O5        1.0  0.18850  0.03450  0.05450  1.0000 -0.8828728093
O   O6        1.0  0.81150  0.53450  0.44550  1.0000 -0.8828728093
O   O7        1.0  0.81150  0.96550  0.94550  1.0000 -0.8828728093
O   O8        1.0  0.18850  0.46550  0.55450  1.0000 -0.8828728093
O   O9        1.0  0.49960  0.51110  0.16160  1.0000 -0.5524918331
O   O10       1.0  0.50040  0.01110  0.33840  1.0000 -0.5524918331
O   O11       1.0  0.50040  0.48890  0.83840  1.0000 -0.5524918331
O   O12       1.0  0.49960  0.98890  0.66160  1.0000 -0.5524918331
O   O13       1.0  0.23610  0.18530  0.12210  1.0000 -0.5570391162
O   O14       1.0  0.76390  0.68530  0.37790  1.0000 -0.5570391162
O   O15       1.0  0.76390  0.81470  0.87790  1.0000 -0.5570391162
O   O16       1.0  0.23610  0.31470  0.62210  1.0000 -0.5570391162
O   O17       1.0  0.82450  0.51240  0.70050  1.0000 -0.5198206348
O   O18       1.0  0.17550  0.01240  0.79950  1.0000 -0.5198206348
O   O19       1.0  0.17550  0.48760  0.29950  1.0000 -0.5198206348
O   O20       1.0  0.82450  0.98760  0.20050  1.0000 -0.5198206348
O   O21       1.0  0.60270  0.41120  0.28970  1.0000 -0.4884295283
O   O22       1.0  0.39730  0.91120  0.21030  1.0000 -0.4884295283
O   O23       1.0  0.39730  0.58880  0.71030  1.0000 -0.4884295283
O   O24       1.0  0.60270  0.08880  0.78970  1.0000 -0.4884295283
O   O25       1.0  0.88580  0.40490  0.60980  1.0000 -0.6576470776
O   O26       1.0  0.11420  0.90490  0.89020  1.0000 -0.6576470776
O   O27       1.0  0.11420  0.59510  0.39020  1.0000 -0.6576470776
O   O28       1.0  0.88580  0.09510  0.10980  1.0000 -0.6576470776
O   O29       1.0  0.59250  0.40450  0.64250  1.0000 -0.5776462002
O   O30       1.0  0.40750  0.90450  0.85750  1.0000 -0.5776462002
O   O31       1.0  0.40750  0.59550  0.35750  1.0000 -0.5776462002
O   O32       1.0  0.59250  0.09550  0.14250  1.0000 -0.5748760147
