# DDEC6 charges by PACMAN v1.1 (https://github.com/mtap-research/PACMAN-charge/)
data_2010[Tb][nan]3[ASR]1
_chemical_formula_sum              "Tb4 H12 C36 O24"
_cell_length_a       10.33
_cell_length_b       10.33
_cell_length_c       14.51
_cell_angle_alpha    90
_cell_angle_beta     90
_cell_angle_gamma    90

_symmetry_space_group_name_H-M    "P 1"
_symmetry_Int_Tables_number       1

loop_
  _symmetry_equiv_pos_as_xyz
  'x, y, z'

loop_
  _atom_site_type_symbol
  _atom_site_label
  _atom_site_symmetry_multiplicity
  _atom_site_fract_x
  _atom_site_fract_y
  _atom_site_fract_z
  _atom_site_occupancy
  _atom_site_charge
Tb  Tb1       1.0  0.14702  0.14702  0.12500  1.0000 2.1112283509
Tb  Tb2       1.0  0.85298  0.85298  0.62500  1.0000 2.1112283509
Tb  Tb3       1.0  0.85298  0.14702  0.87500  1.0000 2.1112283509
Tb  Tb4       1.0  0.14702  0.85298  0.37500  1.0000 2.1112283509
H   H1        1.0  0.07190  0.55870  0.12880  1.0000 0.1354738514
H   H2        1.0  0.92810  0.44130  0.62880  1.0000 0.1349085163
H   H3        1.0  0.44130  0.07190  0.87880  1.0000 0.1349085163
H   H4        1.0  0.55870  0.92810  0.37880  1.0000 0.1349085163
H   H5        1.0  0.92810  0.55870  0.87120  1.0000 0.1349085163
H   H6        1.0  0.07190  0.44130  0.37120  1.0000 0.1349085163
H   H7        1.0  0.55870  0.07190  0.12120  1.0000 0.1349085163
H   H8        1.0  0.44130  0.92810  0.62120  1.0000 0.1349085163
H   H9        1.0  0.00000  0.89560  0.00000  1.0000 0.1071646477
H   H10       1.0  0.00000  0.10440  0.50000  1.0000 0.1071646477
H   H11       1.0  0.10440  0.00000  0.75000  1.0000 0.1071646477
H   H12       1.0  0.89560  0.00000  0.25000  1.0000 0.1071646477
C   C1        1.0  0.04300  0.60380  0.07730  1.0000 -0.0930518542
C   C2        1.0  0.95700  0.39620  0.57730  1.0000 -0.0930518542
C   C3        1.0  0.39620  0.04300  0.82730  1.0000 -0.0930518542
C   C4        1.0  0.60380  0.95700  0.32730  1.0000 -0.0930518542
C   C5        1.0  0.95700  0.60380  0.92270  1.0000 -0.0930518542
C   C6        1.0  0.04300  0.39620  0.42270  1.0000 -0.0930518542
C   C7        1.0  0.60380  0.04300  0.17270  1.0000 -0.0930518542
C   C8        1.0  0.39620  0.95700  0.67270  1.0000 -0.0930518542
C   C9        1.0  0.00000  0.53600  0.00000  1.0000 -0.041253952
C   C10       1.0  0.00000  0.46400  0.50000  1.0000 -0.041253952
C   C11       1.0  0.46400  0.00000  0.75000  1.0000 -0.041253952
C   C12       1.0  0.53600  0.00000  0.25000  1.0000 -0.041253952
C   C13       1.0  0.00000  0.39060  0.00000  1.0000 0.6673931222
C   C14       1.0  0.00000  0.60940  0.50000  1.0000 0.6673931222
C   C15       1.0  0.60940  0.00000  0.75000  1.0000 0.6673931222
C   C16       1.0  0.39060  0.00000  0.25000  1.0000 0.6673931222
C   C17       1.0  0.04280  0.73840  0.07770  1.0000 -0.041253952
C   C18       1.0  0.95720  0.26160  0.57770  1.0000 -0.041253952
C   C19       1.0  0.26160  0.04280  0.82770  1.0000 -0.041253952
C   C20       1.0  0.73840  0.95720  0.32770  1.0000 -0.041253952
C   C21       1.0  0.95720  0.73840  0.92230  1.0000 -0.041253952
C   C22       1.0  0.04280  0.26160  0.42230  1.0000 -0.041253952
C   C23       1.0  0.73840  0.04280  0.17230  1.0000 -0.041253952
C   C24       1.0  0.26160  0.95720  0.67230  1.0000 -0.041253952
C   C25       1.0  0.08560  0.81380  0.16040  1.0000 0.6373720209
C   C26       1.0  0.91440  0.18620  0.66040  1.0000 0.6373720209
C   C27       1.0  0.18620  0.08560  0.91040  1.0000 0.6373720209
C   C28       1.0  0.81380  0.91440  0.41040  1.0000 0.6373720209
C   C29       1.0  0.91440  0.81380  0.83960  1.0000 0.6373720209
C   C30       1.0  0.08560  0.18620  0.33960  1.0000 0.6373720209
C   C31       1.0  0.81380  0.08560  0.08960  1.0000 0.6373720209
C   C32       1.0  0.18620  0.91440  0.58960  1.0000 0.6373720209
C   C33       1.0  0.00000  0.80550  0.00000  1.0000 -0.1102461328
C   C34       1.0  0.00000  0.19450  0.50000  1.0000 -0.1102461328
C   C35       1.0  0.19450  0.00000  0.75000  1.0000 -0.1102461328
C   C36       1.0  0.80550  0.00000  0.25000  1.0000 -0.1102461328
O   O1        1.0  0.09240  0.75600  0.23611  1.0000 -0.6571010311
O   O2        1.0  0.90760  0.24400  0.73611  1.0000 -0.6571010311
O   O3        1.0  0.24400  0.09240  0.98611  1.0000 -0.6571010311
O   O4        1.0  0.75600  0.90760  0.48611  1.0000 -0.6571010311
O   O5        1.0  0.90760  0.75600  0.76389  1.0000 -0.6571010311
O   O6        1.0  0.09240  0.24400  0.26389  1.0000 -0.6571010311
O   O7        1.0  0.75600  0.09240  0.01389  1.0000 -0.6571010311
O   O8        1.0  0.24400  0.90760  0.51389  1.0000 -0.6571010311
O   O9        1.0  0.06950  0.33590  0.05880  1.0000 -0.6807932143
O   O10       1.0  0.93050  0.66410  0.55880  1.0000 -0.6807932143
O   O11       1.0  0.66410  0.06950  0.80880  1.0000 -0.6807932143
O   O12       1.0  0.33590  0.93050  0.30880  1.0000 -0.6807932143
O   O13       1.0  0.93050  0.33590  0.94120  1.0000 -0.6807932143
O   O14       1.0  0.06950  0.66410  0.44120  1.0000 -0.6807932143
O   O15       1.0  0.33590  0.06950  0.19120  1.0000 -0.6807932143
O   O16       1.0  0.66410  0.93050  0.69120  1.0000 -0.6807932143
O   O17       1.0  0.10900  0.92910  0.15210  1.0000 -0.6672941704
O   O18       1.0  0.89100  0.07090  0.65210  1.0000 -0.6672941704
O   O19       1.0  0.07090  0.10900  0.90210  1.0000 -0.6672941704
O   O20       1.0  0.92910  0.89100  0.40210  1.0000 -0.6672941704
O   O21       1.0  0.89100  0.92910  0.84790  1.0000 -0.6672941704
O   O22       1.0  0.10900  0.07090  0.34790  1.0000 -0.6672941704
O   O23       1.0  0.92910  0.10900  0.09790  1.0000 -0.6672941704
O   O24       1.0  0.07090  0.89100  0.59790  1.0000 -0.6672941704
