# DDEC6 charges by PACMAN v1.1 (https://github.com/mtap-research/PACMAN-charge/)
data_2010[Ga][nan]3[ASR]1
_chemical_formula_sum              "Ga8 H20 C20 O32"
_cell_length_a       9.84786
_cell_length_b       20.2164
_cell_length_c       7.62728
_cell_angle_alpha    90
_cell_angle_beta     133.198
_cell_angle_gamma    90

_symmetry_space_group_name_H-M    "P 1"
_symmetry_Int_Tables_number       1

loop_
  _symmetry_equiv_pos_as_xyz
  'x, y, z'

loop_
  _atom_site_type_symbol
  _atom_site_label
  _atom_site_symmetry_multiplicity
  _atom_site_fract_x
  _atom_site_fract_y
  _atom_site_fract_z
  _atom_site_occupancy
  _atom_site_charge
Ga  Ga1       1.0  0.00000  0.29373  0.00000  1.0000 1.3901773647
Ga  Ga2       1.0  0.00000  0.70627  0.00000  1.0000 1.3901773647
Ga  Ga3       1.0  0.50000  0.79373  0.00000  1.0000 1.3901773647
Ga  Ga4       1.0  0.50000  0.20627  0.00000  1.0000 1.3901773647
Ga  Ga5       1.0  0.75000  0.25000  0.50000  1.0000 1.4000392512
Ga  Ga6       1.0  0.25000  0.75000  0.50000  1.0000 1.4000392512
Ga  Ga7       1.0  0.25000  0.25000  0.50000  1.0000 1.4000392512
Ga  Ga8       1.0  0.75000  0.75000  0.50000  1.0000 1.4000392512
H   H1        1.0  0.33392  0.33233  0.32300  1.0000 0.4010144261
H   H2        1.0  0.66608  0.66767  0.67700  1.0000 0.4010144261
H   H3        1.0  0.66608  0.33233  0.67700  1.0000 0.4010144261
H   H4        1.0  0.33392  0.66767  0.32300  1.0000 0.4010144261
H   H5        1.0  0.83392  0.83233  0.32300  1.0000 0.4010144261
H   H6        1.0  0.16608  0.16767  0.67700  1.0000 0.4010144261
H   H7        1.0  0.16608  0.83233  0.67700  1.0000 0.4010144261
H   H8        1.0  0.83392  0.16767  0.32300  1.0000 0.4010144261
H   H9        1.0  0.09116  0.23541  0.79534  1.0000 0.4010144261
H   H10       1.0  0.90884  0.76459  0.20466  1.0000 0.4010144261
H   H11       1.0  0.90884  0.23541  0.20466  1.0000 0.4010144261
H   H12       1.0  0.09116  0.76459  0.79534  1.0000 0.4010144261
H   H13       1.0  0.59116  0.73541  0.79534  1.0000 0.4010144261
H   H14       1.0  0.40884  0.26459  0.20466  1.0000 0.4010144261
H   H15       1.0  0.40884  0.73541  0.20466  1.0000 0.4010144261
H   H16       1.0  0.59116  0.26459  0.79534  1.0000 0.4010144261
H   H17       1.0  0.94679  0.50000  0.77754  1.0000 0.1270865307
H   H18       1.0  0.05321  0.50000  0.22246  1.0000 0.1270865307
H   H19       1.0  0.44679  0.00000  0.77754  1.0000 0.1270865307
H   H20       1.0  0.55321  0.00000  0.22246  1.0000 0.1270865307
C   C1        1.0  0.95365  0.37739  0.64778  1.0000 0.6116008715
C   C2        1.0  0.04635  0.62261  0.35222  1.0000 0.6116008715
C   C3        1.0  0.04635  0.37739  0.35222  1.0000 0.6116008715
C   C4        1.0  0.95365  0.62261  0.64778  1.0000 0.6116008715
C   C5        1.0  0.45365  0.87739  0.64778  1.0000 0.6116008715
C   C6        1.0  0.54635  0.12261  0.35222  1.0000 0.6116008715
C   C7        1.0  0.54635  0.87739  0.35222  1.0000 0.6116008715
C   C8        1.0  0.45365  0.12261  0.64778  1.0000 0.6116008715
C   C9        1.0  0.98566  0.44044  0.57869  1.0000 -0.0301409435
C   C10       1.0  0.01434  0.55956  0.42131  1.0000 -0.0301409435
C   C11       1.0  0.01434  0.44044  0.42131  1.0000 -0.0301409435
C   C12       1.0  0.98566  0.55956  0.57869  1.0000 -0.0301409435
C   C13       1.0  0.48566  0.94044  0.57869  1.0000 -0.0301409435
C   C14       1.0  0.51434  0.05956  0.42131  1.0000 -0.0301409435
C   C15       1.0  0.51434  0.94044  0.42131  1.0000 -0.0301409435
C   C16       1.0  0.48566  0.05956  0.57869  1.0000 -0.0301409435
C   C17       1.0  0.97250  0.50000  0.65884  1.0000 -0.1095329753
C   C18       1.0  0.02750  0.50000  0.34116  1.0000 -0.1095329753
C   C19       1.0  0.47250  0.00000  0.65884  1.0000 -0.1095329753
C   C20       1.0  0.52750  0.00000  0.34116  1.0000 -0.1095329753
O   O1        1.0  0.27760  0.28861  0.27907  1.0000 -0.8447216197
O   O2        1.0  0.72240  0.71139  0.72093  1.0000 -0.8447216197
O   O3        1.0  0.72240  0.28861  0.72093  1.0000 -0.8447216197
O   O4        1.0  0.27760  0.71139  0.27907  1.0000 -0.8447216197
O   O5        1.0  0.77760  0.78861  0.27907  1.0000 -0.8447216197
O   O6        1.0  0.22240  0.21139  0.72093  1.0000 -0.8447216197
O   O7        1.0  0.22240  0.78861  0.72093  1.0000 -0.8447216197
O   O8        1.0  0.77760  0.21139  0.27907  1.0000 -0.8447216197
O   O9        1.0  0.99527  0.23096  0.80265  1.0000 -0.8487200334
O   O10       1.0  0.00473  0.76904  0.19735  1.0000 -0.8487200334
O   O11       1.0  0.00473  0.23096  0.19735  1.0000 -0.8487200334
O   O12       1.0  0.99527  0.76904  0.80265  1.0000 -0.8487200334
O   O13       1.0  0.49527  0.73096  0.80265  1.0000 -0.8487200334
O   O14       1.0  0.50473  0.26904  0.19735  1.0000 -0.8487200334
O   O15       1.0  0.50473  0.73096  0.19735  1.0000 -0.8487200334
O   O16       1.0  0.49527  0.26904  0.80265  1.0000 -0.8487200334
O   O17       1.0  0.04216  0.37032  0.87038  1.0000 -0.558725719
O   O18       1.0  0.95784  0.62968  0.12962  1.0000 -0.558725719
O   O19       1.0  0.95784  0.37032  0.12962  1.0000 -0.558725719
O   O20       1.0  0.04216  0.62968  0.87038  1.0000 -0.558725719
O   O21       1.0  0.54216  0.87032  0.87038  1.0000 -0.558725719
O   O22       1.0  0.45784  0.12968  0.12962  1.0000 -0.558725719
O   O23       1.0  0.45784  0.87032  0.12962  1.0000 -0.558725719
O   O24       1.0  0.54216  0.12968  0.87038  1.0000 -0.558725719
O   O25       1.0  0.83165  0.33873  0.47317  1.0000 -0.5346312567
O   O26       1.0  0.16835  0.66127  0.52683  1.0000 -0.5357817307
O   O27       1.0  0.16835  0.33873  0.52683  1.0000 -0.5357817307
O   O28       1.0  0.83165  0.66127  0.47317  1.0000 -0.5346312567
O   O29       1.0  0.33165  0.83873  0.47317  1.0000 -0.5346312567
O   O30       1.0  0.66835  0.16127  0.52683  1.0000 -0.5357817307
O   O31       1.0  0.66835  0.83873  0.52683  1.0000 -0.5357817307
O   O32       1.0  0.33165  0.16127  0.47317  1.0000 -0.5346312567
