# DDEC6 charges by PACMAN v1.1 (https://github.com/mtap-research/PACMAN-charge/)
data_2010[Co][pcu]3[ASR]2
_chemical_formula_sum              "Co4 H52 C102 O24 F36"
_cell_length_a       18.9503
_cell_length_b       7.1992
_cell_length_c       23.5351
_cell_angle_alpha    90
_cell_angle_beta     123.836
_cell_angle_gamma    90

_symmetry_space_group_name_H-M    "P 1"
_symmetry_Int_Tables_number       1

loop_
  _symmetry_equiv_pos_as_xyz
  'x, y, z'

loop_
  _atom_site_type_symbol
  _atom_site_label
  _atom_site_symmetry_multiplicity
  _atom_site_fract_x
  _atom_site_fract_y
  _atom_site_fract_z
  _atom_site_occupancy
  _atom_site_charge
Co  Co1       1.0  0.55070  0.66867  0.52452  1.0000 0.9540654402
Co  Co2       1.0  0.44930  0.66867  0.97548  1.0000 0.9540654402
Co  Co3       1.0  0.44930  0.33133  0.47548  1.0000 0.9540654402
Co  Co4       1.0  0.55070  0.33133  0.02452  1.0000 0.9540654402
H   H1        1.0  0.58660  0.98520  0.41690  1.0000 0.1281458679
H   H2        1.0  0.41340  0.98520  0.08310  1.0000 0.1281458679
H   H3        1.0  0.41340  0.01480  0.58310  1.0000 0.1281458679
H   H4        1.0  0.58660  0.01480  0.91690  1.0000 0.1281458679
H   H5        1.0  0.73320  0.43850  0.47920  1.0000 0.1196383578
H   H6        1.0  0.26680  0.43850  0.02080  1.0000 0.1196383578
H   H7        1.0  0.26680  0.56150  0.52080  1.0000 0.1196383578
H   H8        1.0  0.73320  0.56150  0.97920  1.0000 0.1196383578
H   H9        1.0  0.57740  0.97140  0.16580  1.0000 0.1368987988
H   H10       1.0  0.42260  0.97140  0.33420  1.0000 0.1368987988
H   H11       1.0  0.42260  0.02860  0.83420  1.0000 0.1368987988
H   H12       1.0  0.57740  0.02860  0.66580  1.0000 0.1368987988
H   H13       1.0  0.66880  0.85540  0.38300  1.0000 0.1196383578
H   H14       1.0  0.33120  0.85540  0.11700  1.0000 0.1196383578
H   H15       1.0  0.33120  0.14460  0.61700  1.0000 0.1196383578
H   H16       1.0  0.66880  0.14460  0.88300  1.0000 0.1196383578
H   H17       1.0  0.81320  0.31050  0.44230  1.0000 0.1196383578
H   H18       1.0  0.18680  0.31050  0.05770  1.0000 0.1196383578
H   H19       1.0  0.18680  0.68950  0.55770  1.0000 0.1196383578
H   H20       1.0  0.81320  0.68950  0.94230  1.0000 0.1196383578
H   H21       1.0  0.71240  0.49930  0.23070  1.0000 0.1281458679
H   H22       1.0  0.28760  0.49930  0.26930  1.0000 0.1281458679
H   H23       1.0  0.28760  0.50070  0.76930  1.0000 0.1281458679
H   H24       1.0  0.71240  0.50070  0.73070  1.0000 0.1281458679
H   H25       1.0  0.66260  0.09500  0.27290  1.0000 0.1196383578
H   H26       1.0  0.33740  0.09500  0.22710  1.0000 0.1196383578
H   H27       1.0  0.33740  0.90500  0.72710  1.0000 0.1196383578
H   H28       1.0  0.66260  0.90500  0.77290  1.0000 0.1196383578
H   H29       1.0  0.72200  0.14140  0.63310  1.0000 0.1196383578
H   H30       1.0  0.27800  0.14140  0.86690  1.0000 0.1196383578
H   H31       1.0  0.27800  0.85860  0.36690  1.0000 0.1196383578
H   H32       1.0  0.72200  0.85860  0.13310  1.0000 0.1196383578
H   H33       1.0  0.87950  0.83040  0.61010  1.0000 0.1136993523
H   H34       1.0  0.12050  0.83040  0.88990  1.0000 0.1136993523
H   H35       1.0  0.12050  0.16960  0.38990  1.0000 0.1136993523
H   H36       1.0  0.87950  0.16960  0.11010  1.0000 0.1136993523
H   H37       1.0  0.98720  0.03070  0.67860  1.0000 0.1196383578
H   H38       1.0  0.01280  0.03070  0.82140  1.0000 0.1196383578
H   H39       1.0  0.01280  0.96930  0.32140  1.0000 0.1196383578
H   H40       1.0  0.98720  0.96930  0.17860  1.0000 0.1196383578
H   H41       1.0  0.83220  0.34250  0.70140  1.0000 0.1196383578
H   H42       1.0  0.16780  0.34250  0.79860  1.0000 0.1196383578
H   H43       1.0  0.16780  0.65750  0.29860  1.0000 0.1196383578
H   H44       1.0  0.83220  0.65750  0.20140  1.0000 0.1196383578
H   H45       1.0  0.79970  0.62750  0.33800  1.0000 0.1136993523
H   H46       1.0  0.20030  0.62750  0.16200  1.0000 0.1136993523
H   H47       1.0  0.20030  0.37250  0.66200  1.0000 0.1136993523
H   H48       1.0  0.79970  0.37250  0.83800  1.0000 0.1136993523
H   H49       1.0  0.70150  0.61970  0.53120  1.0000 0.3589948099
H   H50       1.0  0.29850  0.61970  0.96880  1.0000 0.3589948099
H   H51       1.0  0.29850  0.38030  0.46880  1.0000 0.3589948099
H   H52       1.0  0.70150  0.38030  0.03120  1.0000 0.3589948099
C   C1        1.0  0.58110  0.63910  0.11799  1.0000 0.5754335354
C   C2        1.0  0.41890  0.63910  0.38201  1.0000 0.5754335354
C   C3        1.0  0.41890  0.36090  0.88201  1.0000 0.5754335354
C   C4        1.0  0.58110  0.36090  0.61799  1.0000 0.5754335354
C   C5        1.0  0.59480  0.31460  0.46860  1.0000 0.5859552751
C   C6        1.0  0.40520  0.31460  0.03140  1.0000 0.5859552751
C   C7        1.0  0.40520  0.68540  0.53140  1.0000 0.5859552751
C   C8        1.0  0.59480  0.68540  0.96860  1.0000 0.5859552751
C   C9        1.0  0.63180  0.05140  0.42179  1.0000 -0.0832757857
C   C10       1.0  0.36820  0.05140  0.07821  1.0000 -0.0832757857
C   C11       1.0  0.36820  0.94860  0.57821  1.0000 -0.0832757857
C   C12       1.0  0.63180  0.94860  0.92179  1.0000 -0.0832757857
C   C13       1.0  0.65070  0.23160  0.44970  1.0000 -0.0292983466
C   C14       1.0  0.34930  0.23160  0.05030  1.0000 -0.0292983466
C   C15       1.0  0.34930  0.76840  0.55030  1.0000 -0.0292983466
C   C16       1.0  0.65070  0.76840  0.94970  1.0000 -0.0292983466
C   C17       1.0  0.71880  0.32220  0.45850  1.0000 -0.0903993715
C   C18       1.0  0.28120  0.32220  0.04150  1.0000 -0.0903993715
C   C19       1.0  0.28120  0.67780  0.54150  1.0000 -0.0903993715
C   C20       1.0  0.71880  0.67780  0.95850  1.0000 -0.0903993715
C   C21       1.0  0.72170  0.82760  0.57670  1.0000 0.5606874059
C   C22       1.0  0.27830  0.82760  0.92330  1.0000 0.5606874059
C   C23       1.0  0.27830  0.17240  0.42330  1.0000 0.5606874059
C   C24       1.0  0.72170  0.17240  0.07670  1.0000 0.5606874059
C   C25       1.0  0.86180  0.83990  0.44350  1.0000 0.6590936612
C   C26       1.0  0.13820  0.83990  0.05650  1.0000 0.6590936612
C   C27       1.0  0.13820  0.16010  0.55650  1.0000 0.6590936612
C   C28       1.0  0.86180  0.16010  0.94350  1.0000 0.6590936612
C   C29       1.0  0.85490  0.11360  0.37430  1.0000 0.6549891661
C   C30       1.0  0.14510  0.11360  0.12570  1.0000 0.6549891661
C   C31       1.0  0.14510  0.88640  0.62570  1.0000 0.6549891661
C   C32       1.0  0.85490  0.88640  0.87430  1.0000 0.6590936612
C   C33       1.0  0.01510  0.44770  0.70450  1.0000 0.6590936612
C   C34       1.0  0.98490  0.44770  0.79550  1.0000 0.6590936612
C   C35       1.0  0.98490  0.55230  0.29550  1.0000 0.6590936612
C   C36       1.0  0.01510  0.55230  0.20450  1.0000 0.6590936612
C   C37       1.0  0.63540  0.72160  0.18782  1.0000 -0.0204185192
C   C38       1.0  0.36460  0.72160  0.31218  1.0000 -0.0204185192
C   C39       1.0  0.36460  0.27840  0.81218  1.0000 -0.0204185192
C   C40       1.0  0.63540  0.27840  0.68782  1.0000 -0.0204185192
C   C41       1.0  0.62180  0.90160  0.20060  1.0000 -0.0832757857
C   C42       1.0  0.37820  0.90160  0.29940  1.0000 -0.0832757857
C   C43       1.0  0.37820  0.09840  0.79940  1.0000 -0.0832757857
C   C44       1.0  0.62180  0.09840  0.70060  1.0000 -0.0832757857
C   C45       1.0  0.80120  0.97580  0.38543  1.0000 -0.2810444603
C   C46       1.0  0.19880  0.97580  0.11457  1.0000 -0.2810444603
C   C47       1.0  0.19880  0.02420  0.61457  1.0000 -0.2810444603
C   C48       1.0  0.80120  0.02420  0.88543  1.0000 -0.2810444603
C   C49       1.0  0.74880  0.06880  0.40837  1.0000 0.0778509645
C   C50       1.0  0.25120  0.06880  0.09163  1.0000 0.0778509645
C   C51       1.0  0.25120  0.93120  0.59163  1.0000 0.0778509645
C   C52       1.0  0.74880  0.93120  0.90837  1.0000 0.0778509645
C   C53       1.0  0.74270  0.87530  0.31676  1.0000 0.0747444461
C   C54       1.0  0.25730  0.87530  0.18324  1.0000 0.0778509645
C   C55       1.0  0.25730  0.12470  0.68324  1.0000 0.0778509645
C   C56       1.0  0.74270  0.12470  0.81676  1.0000 0.0747444461
C   C57       1.0  0.68130  0.97430  0.40160  1.0000 -0.1335064602
C   C58       1.0  0.31870  0.97430  0.09840  1.0000 -0.1335064602
C   C59       1.0  0.31870  0.02570  0.59840  1.0000 -0.1335064602
C   C60       1.0  0.68130  0.02570  0.90160  1.0000 -0.1335064602
C   C61       1.0  0.76780  0.24440  0.43720  1.0000 -0.150779664
C   C62       1.0  0.23220  0.24440  0.06280  1.0000 -0.150779664
C   C63       1.0  0.23220  0.75560  0.56280  1.0000 -0.150779664
C   C64       1.0  0.76780  0.75560  0.93720  1.0000 -0.150779664
C   C65       1.0  0.70260  0.61950  0.23920  1.0000 -0.0903993715
C   C66       1.0  0.29740  0.61950  0.26080  1.0000 -0.0903993715
C   C67       1.0  0.29740  0.38050  0.76080  1.0000 -0.0903993715
C   C68       1.0  0.70260  0.38050  0.73920  1.0000 -0.0903993715
C   C69       1.0  0.67340  0.97600  0.26420  1.0000 -0.1361301262
C   C70       1.0  0.32660  0.97600  0.23580  1.0000 -0.1361301262
C   C71       1.0  0.32660  0.02400  0.73580  1.0000 -0.1361301262
C   C72       1.0  0.67340  0.02400  0.76420  1.0000 -0.1361301262
C   C73       1.0  0.77590  0.11730  0.64290  1.0000 -0.0743005612
C   C74       1.0  0.22410  0.11730  0.85710  1.0000 -0.0743005612
C   C75       1.0  0.22410  0.88270  0.35710  1.0000 -0.0743005612
C   C76       1.0  0.77590  0.88270  0.14290  1.0000 -0.0743005612
C   C77       1.0  0.79010  0.96090  0.61600  1.0000 -0.0558258379
C   C78       1.0  0.20990  0.96090  0.88400  1.0000 -0.0558258379
C   C79       1.0  0.20990  0.03910  0.38400  1.0000 -0.0558258379
C   C80       1.0  0.79010  0.03910  0.11600  1.0000 -0.0558258379
C   C81       1.0  0.86970  0.93180  0.62930  1.0000 -0.0903993715
C   C82       1.0  0.13030  0.93180  0.87070  1.0000 -0.0903993715
C   C83       1.0  0.13030  0.06820  0.37070  1.0000 -0.0903993715
C   C84       1.0  0.86970  0.06820  0.12930  1.0000 -0.0903993715
C   C85       1.0  0.93390  0.05110  0.67040  1.0000 -0.1335064602
C   C86       1.0  0.06610  0.05110  0.82960  1.0000 -0.1335064602
C   C87       1.0  0.06610  0.94890  0.32960  1.0000 -0.1335064602
C   C88       1.0  0.93390  0.94890  0.17040  1.0000 -0.1335064602
C   C89       1.0  0.00000  0.32440  0.75000  1.0000 -0.2810444603
C   C90       1.0  0.00000  0.67560  0.25000  1.0000 -0.2810444603
C   C91       1.0  0.92190  0.20270  0.70050  1.0000 0.085810637
C   C92       1.0  0.07810  0.20270  0.79950  1.0000 0.085810637
C   C93       1.0  0.07810  0.79730  0.29950  1.0000 0.085810637
C   C94       1.0  0.92190  0.79730  0.20050  1.0000 0.085810637
C   C95       1.0  0.84230  0.23660  0.68430  1.0000 -0.150779664
C   C96       1.0  0.15770  0.23660  0.81570  1.0000 -0.150779664
C   C97       1.0  0.15770  0.76340  0.31570  1.0000 -0.150779664
C   C98       1.0  0.84230  0.76340  0.18430  1.0000 -0.150779664
C   C99       1.0  0.75500  0.69720  0.30327  1.0000 -0.150779664
C   C100      1.0  0.24500  0.69720  0.19673  1.0000 -0.150779664
C   C101      1.0  0.24500  0.30280  0.69673  1.0000 -0.150779664
C   C102      1.0  0.75500  0.30280  0.80327  1.0000 -0.150779664
O   O1        1.0  0.51880  0.73450  0.07286  1.0000 -0.5374381711
O   O2        1.0  0.48120  0.73450  0.42714  1.0000 -0.5374381711
O   O3        1.0  0.48120  0.26550  0.92714  1.0000 -0.5374381711
O   O4        1.0  0.51880  0.26550  0.57286  1.0000 -0.5374381711
O   O5        1.0  0.60270  0.48440  0.10821  1.0000 -0.5482704808
O   O6        1.0  0.39730  0.48440  0.39179  1.0000 -0.5482704808
O   O7        1.0  0.39730  0.51560  0.89179  1.0000 -0.5482704808
O   O8        1.0  0.60270  0.51560  0.60821  1.0000 -0.5482704808
O   O9        1.0  0.61366  0.47340  0.49638  1.0000 -0.6005228926
O   O10       1.0  0.38634  0.47340  0.00362  1.0000 -0.6005228926
O   O11       1.0  0.38634  0.52660  0.50362  1.0000 -0.6005228926
O   O12       1.0  0.61366  0.52660  0.99638  1.0000 -0.6005228926
O   O13       1.0  0.53217  0.22680  0.45676  1.0000 -0.4919070695
O   O14       1.0  0.46783  0.22680  0.04324  1.0000 -0.4919070695
O   O15       1.0  0.46783  0.77320  0.54324  1.0000 -0.4919070695
O   O16       1.0  0.53217  0.77320  0.95676  1.0000 -0.4919070695
O   O17       1.0  0.74360  0.68350  0.55647  1.0000 -0.4328133632
O   O18       1.0  0.25640  0.68350  0.94353  1.0000 -0.4328133632
O   O19       1.0  0.25640  0.31650  0.44353  1.0000 -0.4328133632
O   O20       1.0  0.74360  0.31650  0.05647  1.0000 -0.4328133632
O   O21       1.0  0.65082  0.84750  0.56431  1.0000 -0.4689127822
O   O22       1.0  0.34918  0.84750  0.93569  1.0000 -0.4689127822
O   O23       1.0  0.34918  0.15250  0.43569  1.0000 -0.4689127822
O   O24       1.0  0.65082  0.15250  0.06431  1.0000 -0.4689127822
F   F1        1.0  0.82035  0.70100  0.44841  1.0000 -0.1898897912
F   F2        1.0  0.17965  0.70100  0.05159  1.0000 -0.1898897912
F   F3        1.0  0.17965  0.29900  0.55159  1.0000 -0.1898897912
F   F4        1.0  0.82035  0.29900  0.94841  1.0000 -0.1898897912
F   F5        1.0  0.90381  0.92490  0.50355  1.0000 -0.1898897912
F   F6        1.0  0.09619  0.92490  0.99645  1.0000 -0.1898897912
F   F7        1.0  0.09619  0.07510  0.49645  1.0000 -0.1898897912
F   F8        1.0  0.90381  0.07510  0.00355  1.0000 -0.1898897912
F   F9        1.0  0.91949  0.76500  0.43533  1.0000 -0.1898897912
F   F10       1.0  0.08051  0.76500  0.06467  1.0000 -0.1898897912
F   F11       1.0  0.08051  0.23500  0.56467  1.0000 -0.1898897912
F   F12       1.0  0.91949  0.23500  0.93533  1.0000 -0.1898897912
F   F13       1.0  0.91896  0.18470  0.43223  1.0000 -0.1980434638
F   F14       1.0  0.08104  0.18470  0.06777  1.0000 -0.1980434638
F   F15       1.0  0.08104  0.81530  0.56777  1.0000 -0.1980434638
F   F16       1.0  0.91896  0.81530  0.93223  1.0000 -0.1980434638
F   F17       1.0  0.80900  0.25140  0.33442  1.0000 -0.1898897912
F   F18       1.0  0.19100  0.25140  0.16558  1.0000 -0.1898897912
F   F19       1.0  0.19100  0.74860  0.66558  1.0000 -0.1898897912
F   F20       1.0  0.80900  0.74860  0.83442  1.0000 -0.1898897912
F   F21       1.0  0.88818  0.02970  0.34382  1.0000 -0.1898897912
F   F22       1.0  0.11182  0.02970  0.15618  1.0000 -0.1898897912
F   F23       1.0  0.11182  0.97030  0.65618  1.0000 -0.1898897912
F   F24       1.0  0.88818  0.97030  0.84382  1.0000 -0.1898897912
F   F25       1.0  0.04580  0.35380  0.67477  1.0000 -0.1839208324
F   F26       1.0  0.95420  0.35380  0.82523  1.0000 -0.1839208324
F   F27       1.0  0.95420  0.64620  0.32523  1.0000 -0.1839208324
F   F28       1.0  0.04580  0.64620  0.17477  1.0000 -0.1839208324
F   F29       1.0  0.07045  0.58850  0.74002  1.0000 -0.2115466465
F   F30       1.0  0.92955  0.58850  0.75998  1.0000 -0.2115466465
F   F31       1.0  0.92955  0.41150  0.25998  1.0000 -0.2115466465
F   F32       1.0  0.07045  0.41150  0.24002  1.0000 -0.2115466465
F   F33       1.0  0.94245  0.52550  0.65349  1.0000 -0.1898897912
F   F34       1.0  0.05755  0.52550  0.84651  1.0000 -0.1898897912
F   F35       1.0  0.05755  0.47450  0.34651  1.0000 -0.1898897912
F   F36       1.0  0.94245  0.47450  0.15349  1.0000 -0.1898897912
