# DDEC6 charges by PACMAN v1.1 (https://github.com/mtap-research/PACMAN-charge/)
data_2010[Cd][dia]3[ASR]1
_chemical_formula_sum              "Cd4 H104 C104 N16 O20"
_cell_length_a       12.0427
_cell_length_b       12.0427
_cell_length_c       27.514
_cell_angle_alpha    90
_cell_angle_beta     90
_cell_angle_gamma    134.395

_symmetry_space_group_name_H-M    "P 1"
_symmetry_Int_Tables_number       1

loop_
  _symmetry_equiv_pos_as_xyz
  'x, y, z'

loop_
  _atom_site_type_symbol
  _atom_site_label
  _atom_site_symmetry_multiplicity
  _atom_site_fract_x
  _atom_site_fract_y
  _atom_site_fract_z
  _atom_site_occupancy
  _atom_site_charge
Cd  Cd1       1.0  0.35084  0.35084  0.50000  1.0000 0.8398903357
Cd  Cd2       1.0  0.64916  0.64916  0.00000  1.0000 0.8398903357
Cd  Cd3       1.0  0.74404  0.25596  0.75000  1.0000 0.8712021159
Cd  Cd4       1.0  0.25596  0.74404  0.25000  1.0000 0.8712021159
H   H1        1.0  0.88530  0.25710  0.49100  1.0000 0.1201105841
H   H2        1.0  0.11470  0.74290  0.99100  1.0000 0.1201105841
H   H3        1.0  0.25710  0.88530  0.50900  1.0000 0.1201105841
H   H4        1.0  0.74290  0.11470  0.00900  1.0000 0.1201105841
H   H5        1.0  0.62610  0.11070  0.50610  1.0000 0.138065842
H   H6        1.0  0.37390  0.88930  0.00610  1.0000 0.138065842
H   H7        1.0  0.11070  0.62610  0.49390  1.0000 0.138065842
H   H8        1.0  0.88930  0.37390  0.99390  1.0000 0.138065842
H   H9        1.0  0.61680  0.86520  0.60660  1.0000 0.1299660066
H   H10       1.0  0.38320  0.13480  0.10660  1.0000 0.1299660066
H   H11       1.0  0.86520  0.61680  0.39340  1.0000 0.1299660066
H   H12       1.0  0.13480  0.38320  0.89340  1.0000 0.1299660066
H   H13       1.0  0.88250  0.02030  0.59310  1.0000 0.1201105841
H   H14       1.0  0.11750  0.97970  0.09310  1.0000 0.1201105841
H   H15       1.0  0.02030  0.88250  0.40690  1.0000 0.1201105841
H   H16       1.0  0.97970  0.11750  0.90690  1.0000 0.1201105841
H   H17       1.0  0.23250  0.58670  0.55260  1.0000 0.138065842
H   H18       1.0  0.76750  0.41330  0.05260  1.0000 0.138065842
H   H19       1.0  0.58670  0.23250  0.44740  1.0000 0.138065842
H   H20       1.0  0.41330  0.76750  0.94740  1.0000 0.138065842
H   H21       1.0  0.05530  0.40910  0.61040  1.0000 0.1201105841
H   H22       1.0  0.94470  0.59090  0.11040  1.0000 0.1201105841
H   H23       1.0  0.40910  0.05530  0.38960  1.0000 0.1201105841
H   H24       1.0  0.59090  0.94470  0.88960  1.0000 0.1201105841
H   H25       1.0  0.26800  0.74740  0.70890  1.0000 0.1201105841
H   H26       1.0  0.73200  0.25260  0.20890  1.0000 0.1201105841
H   H27       1.0  0.74740  0.26800  0.29110  1.0000 0.1201105841
H   H28       1.0  0.25260  0.73200  0.79110  1.0000 0.1201105841
H   H29       1.0  0.44880  0.92540  0.65040  1.0000 0.138065842
H   H30       1.0  0.55120  0.07460  0.15040  1.0000 0.138065842
H   H31       1.0  0.92540  0.44880  0.34960  1.0000 0.138065842
H   H32       1.0  0.07460  0.55120  0.84960  1.0000 0.138065842
H   H33       1.0  0.75900  0.52140  0.74090  1.0000 0.1493320763
H   H34       1.0  0.24100  0.47860  0.24090  1.0000 0.1493320763
H   H35       1.0  0.52140  0.75900  0.25910  1.0000 0.1493320763
H   H36       1.0  0.47860  0.24100  0.75910  1.0000 0.1493320763
H   H37       1.0  0.91830  0.67950  0.75970  1.0000 0.1615116009
H   H38       1.0  0.08170  0.32050  0.25970  1.0000 0.1615116009
H   H39       1.0  0.67950  0.91830  0.24030  1.0000 0.1615116009
H   H40       1.0  0.32050  0.08170  0.74030  1.0000 0.1615116009
H   H41       1.0  0.76330  0.63290  0.77240  1.0000 0.1493320763
H   H42       1.0  0.23670  0.36710  0.27240  1.0000 0.1493320763
H   H43       1.0  0.63290  0.76330  0.22760  1.0000 0.1493320763
H   H44       1.0  0.36710  0.23670  0.72760  1.0000 0.1493320763
H   H45       1.0  0.70990  0.25470  0.87430  1.0000 0.1201105841
H   H46       1.0  0.29010  0.74530  0.37430  1.0000 0.1201105841
H   H47       1.0  0.25470  0.70990  0.12570  1.0000 0.1201105841
H   H48       1.0  0.74530  0.29010  0.62570  1.0000 0.1201105841
H   H49       1.0  0.79860  0.47360  0.92370  1.0000 0.1299660066
H   H50       1.0  0.20140  0.52640  0.42370  1.0000 0.1299660066
H   H51       1.0  0.47360  0.79860  0.07630  1.0000 0.1299660066
H   H52       1.0  0.52640  0.20140  0.57630  1.0000 0.1299660066
H   H53       1.0  0.86210  0.72610  0.90340  1.0000 0.1201105841
H   H54       1.0  0.13790  0.27390  0.40340  1.0000 0.1201105841
H   H55       1.0  0.72610  0.86210  0.09660  1.0000 0.1201105841
H   H56       1.0  0.27390  0.13790  0.59660  1.0000 0.1201105841
H   H57       1.0  0.85190  0.75670  0.84890  1.0000 0.1122274172
H   H58       1.0  0.14810  0.24330  0.34890  1.0000 0.1122274172
H   H59       1.0  0.75670  0.85190  0.15110  1.0000 0.1122274172
H   H60       1.0  0.24330  0.14810  0.65110  1.0000 0.1122274172
H   H61       1.0  0.09410  0.85030  0.83370  1.0000 0.1122274172
H   H62       1.0  0.90590  0.14970  0.33370  1.0000 0.1122274172
H   H63       1.0  0.85030  0.09410  0.16630  1.0000 0.1122274172
H   H64       1.0  0.14970  0.90590  0.66630  1.0000 0.1122274172
H   H65       1.0  0.10390  0.81390  0.88730  1.0000 0.1122274172
H   H66       1.0  0.89610  0.18610  0.38730  1.0000 0.1122274172
H   H67       1.0  0.81390  0.10390  0.11270  1.0000 0.1122274172
H   H68       1.0  0.18610  0.89610  0.61270  1.0000 0.1122274172
H   H69       1.0  0.11640  0.00500  0.91640  1.0000 0.1201105841
H   H70       1.0  0.88360  0.99500  0.41640  1.0000 0.1201105841
H   H71       1.0  0.00500  0.11640  0.08360  1.0000 0.1201105841
H   H72       1.0  0.99500  0.88360  0.58360  1.0000 0.1201105841
H   H73       1.0  0.09650  0.03750  0.86340  1.0000 0.1043720441
H   H74       1.0  0.90350  0.96250  0.36340  1.0000 0.1043720441
H   H75       1.0  0.03750  0.09650  0.13660  1.0000 0.1043720441
H   H76       1.0  0.96250  0.90350  0.63660  1.0000 0.1043720441
H   H77       1.0  0.35680  0.09360  0.89380  1.0000 0.1201105841
H   H78       1.0  0.64320  0.90640  0.39380  1.0000 0.1201105841
H   H79       1.0  0.09360  0.35680  0.10620  1.0000 0.1201105841
H   H80       1.0  0.90640  0.64320  0.60620  1.0000 0.1201105841
H   H81       1.0  0.33730  0.12830  0.84130  1.0000 0.1201105841
H   H82       1.0  0.66270  0.87170  0.34130  1.0000 0.1201105841
H   H83       1.0  0.12830  0.33730  0.15870  1.0000 0.1201105841
H   H84       1.0  0.87170  0.66270  0.65870  1.0000 0.1201105841
H   H85       1.0  0.38650  0.38170  0.83160  1.0000 0.1299660066
H   H86       1.0  0.61350  0.61830  0.33160  1.0000 0.1299660066
H   H87       1.0  0.38170  0.38650  0.16840  1.0000 0.1299660066
H   H88       1.0  0.61830  0.61350  0.66840  1.0000 0.1299660066
H   H89       1.0  0.51700  0.60620  0.88420  1.0000 0.1299660066
H   H90       1.0  0.48300  0.39380  0.38420  1.0000 0.1299660066
H   H91       1.0  0.60620  0.51700  0.11580  1.0000 0.1299660066
H   H92       1.0  0.39380  0.48300  0.61580  1.0000 0.1299660066
H   H93       1.0  0.45840  0.30280  0.00590  1.0000 0.1493320763
H   H94       1.0  0.54160  0.69720  0.50590  1.0000 0.1493320763
H   H95       1.0  0.30280  0.45840  0.99410  1.0000 0.1493320763
H   H96       1.0  0.69720  0.54160  0.49410  1.0000 0.1493320763
H   H97       1.0  0.54180  0.27460  0.97220  1.0000 0.1615116009
H   H98       1.0  0.45820  0.72540  0.47220  1.0000 0.1615116009
H   H99       1.0  0.27460  0.54180  0.02780  1.0000 0.1615116009
H   H100      1.0  0.72540  0.45820  0.52780  1.0000 0.1615116009
H   H101      1.0  0.35990  0.15210  0.97390  1.0000 0.1493320763
H   H102      1.0  0.64010  0.84790  0.47390  1.0000 0.1493320763
H   H103      1.0  0.15210  0.35990  0.02610  1.0000 0.1493320763
H   H104      1.0  0.84790  0.64010  0.52610  1.0000 0.1493320763
C   C1        1.0  0.07730  0.24330  0.53080  1.0000 0.5311427163
C   C2        1.0  0.92270  0.75670  0.03080  1.0000 0.5311427163
C   C3        1.0  0.24330  0.07730  0.46920  1.0000 0.5311427163
C   C4        1.0  0.75670  0.92270  0.96920  1.0000 0.5311427163
C   C5        1.0  0.90830  0.15330  0.54040  1.0000 -0.0294906052
C   C6        1.0  0.09170  0.84670  0.04040  1.0000 -0.0294906052
C   C7        1.0  0.15330  0.90830  0.45960  1.0000 -0.0294906052
C   C8        1.0  0.84670  0.09170  0.95960  1.0000 -0.0294906052
C   C9        1.0  0.83260  0.17960  0.51450  1.0000 -0.0885508401
C   C10       1.0  0.16740  0.82040  0.01450  1.0000 -0.0885508401
C   C11       1.0  0.17960  0.83260  0.48550  1.0000 -0.0885508401
C   C12       1.0  0.82040  0.16740  0.98550  1.0000 -0.0885508401
C   C13       1.0  0.67720  0.09080  0.52320  1.0000 -0.2132599568
C   C14       1.0  0.32280  0.90920  0.02320  1.0000 -0.2132599568
C   C15       1.0  0.09080  0.67720  0.47680  1.0000 -0.2132599568
C   C16       1.0  0.90920  0.32280  0.97680  1.0000 -0.2132599568
C   C17       1.0  0.59810  0.97430  0.55660  1.0000 0.2494445788
C   C18       1.0  0.40190  0.02570  0.05660  1.0000 0.2494445788
C   C19       1.0  0.97430  0.59810  0.44340  1.0000 0.2494445788
C   C20       1.0  0.02570  0.40190  0.94340  1.0000 0.2494445788
C   C21       1.0  0.67110  0.94430  0.58360  1.0000 -0.2281622058
C   C22       1.0  0.32890  0.05570  0.08360  1.0000 -0.2281622058
C   C23       1.0  0.94430  0.67110  0.41640  1.0000 -0.2281622058
C   C24       1.0  0.05570  0.32890  0.91640  1.0000 -0.2281622058
C   C25       1.0  0.82970  0.03690  0.57520  1.0000 -0.0835614307
C   C26       1.0  0.17030  0.96310  0.07520  1.0000 -0.0835614307
C   C27       1.0  0.03690  0.82970  0.42480  1.0000 -0.0835614307
C   C28       1.0  0.96310  0.17030  0.92480  1.0000 -0.0835614307
C   C29       1.0  0.35110  0.77450  0.59580  1.0000 0.2219219552
C   C30       1.0  0.64890  0.22550  0.09580  1.0000 0.2219219552
C   C31       1.0  0.77450  0.35110  0.40420  1.0000 0.2219219552
C   C32       1.0  0.22550  0.64890  0.90420  1.0000 0.2219219552
C   C33       1.0  0.23790  0.61950  0.58390  1.0000 -0.2132599568
C   C34       1.0  0.76210  0.38050  0.08390  1.0000 -0.2132599568
C   C35       1.0  0.61950  0.23790  0.41610  1.0000 -0.2132599568
C   C36       1.0  0.38050  0.76210  0.91610  1.0000 -0.2132599568
C   C37       1.0  0.13340  0.51380  0.61850  1.0000 -0.0885508401
C   C38       1.0  0.86660  0.48620  0.11850  1.0000 -0.0885508401
C   C39       1.0  0.51380  0.13340  0.38150  1.0000 -0.0885508401
C   C40       1.0  0.48620  0.86660  0.88150  1.0000 -0.0885508401
C   C41       1.0  0.14230  0.56030  0.66510  1.0000 -0.0294906052
C   C42       1.0  0.85770  0.43970  0.16510  1.0000 -0.0294906052
C   C43       1.0  0.56030  0.14230  0.33490  1.0000 -0.0294906052
C   C44       1.0  0.43970  0.85770  0.83490  1.0000 -0.0294906052
C   C45       1.0  0.25990  0.71470  0.67730  1.0000 -0.0835614307
C   C46       1.0  0.74010  0.28530  0.17730  1.0000 -0.0885508401
C   C47       1.0  0.71470  0.25990  0.32270  1.0000 -0.0885508401
C   C48       1.0  0.28530  0.74010  0.82270  1.0000 -0.0835614307
C   C49       1.0  0.36660  0.82140  0.64210  1.0000 -0.200796227
C   C50       1.0  0.63340  0.17860  0.14210  1.0000 -0.200796227
C   C51       1.0  0.82140  0.36660  0.35790  1.0000 -0.200796227
C   C52       1.0  0.17860  0.63340  0.85790  1.0000 -0.200796227
C   C53       1.0  0.01470  0.44610  0.70120  1.0000 0.544522916
C   C54       1.0  0.98530  0.55390  0.20120  1.0000 0.544522916
C   C55       1.0  0.44610  0.01470  0.29880  1.0000 0.544522916
C   C56       1.0  0.55390  0.98530  0.79880  1.0000 0.544522916
C   C57       1.0  0.81020  0.59440  0.76730  1.0000 -0.5501686288
C   C58       1.0  0.18980  0.40560  0.26730  1.0000 -0.5501686288
C   C59       1.0  0.59440  0.81020  0.23270  1.0000 -0.5501686288
C   C60       1.0  0.40560  0.18980  0.73270  1.0000 -0.5501686288
C   C61       1.0  0.79490  0.51590  0.81240  1.0000 0.3306880342
C   C62       1.0  0.20510  0.48410  0.31240  1.0000 0.3306880342
C   C63       1.0  0.51590  0.79490  0.18760  1.0000 0.3306880342
C   C64       1.0  0.48410  0.20510  0.68760  1.0000 0.3306880342
C   C65       1.0  0.74040  0.34500  0.86250  1.0000 -0.0465596402
C   C66       1.0  0.25960  0.65500  0.36250  1.0000 -0.0465596402
C   C67       1.0  0.34500  0.74040  0.13750  1.0000 -0.0465596402
C   C68       1.0  0.65500  0.25960  0.63750  1.0000 -0.0465596402
C   C69       1.0  0.78900  0.46520  0.89000  1.0000 -0.1210110849
C   C70       1.0  0.21100  0.53480  0.39000  1.0000 -0.1210110849
C   C71       1.0  0.46520  0.78900  0.11000  1.0000 -0.1210110849
C   C72       1.0  0.53480  0.21100  0.61000  1.0000 -0.1210110849
C   C73       1.0  0.89170  0.72730  0.87040  1.0000 -0.1033218531
C   C74       1.0  0.10830  0.27270  0.37040  1.0000 -0.1033218531
C   C75       1.0  0.72730  0.89170  0.12960  1.0000 -0.1033218531
C   C76       1.0  0.27270  0.10830  0.62960  1.0000 -0.1033218531
C   C77       1.0  0.06460  0.84580  0.86700  1.0000 -0.1867162538
C   C78       1.0  0.93540  0.15420  0.36700  1.0000 -0.1867162538
C   C79       1.0  0.84580  0.06460  0.13300  1.0000 -0.1867162538
C   C80       1.0  0.15420  0.93540  0.63300  1.0000 -0.1867162538
C   C81       1.0  0.13960  0.00720  0.88240  1.0000 -0.182991649
C   C82       1.0  0.86040  0.99280  0.38240  1.0000 -0.182991649
C   C83       1.0  0.00720  0.13960  0.11760  1.0000 -0.182991649
C   C84       1.0  0.99280  0.86040  0.61760  1.0000 -0.182991649
C   C85       1.0  0.31490  0.12610  0.87540  1.0000 -0.1210110849
C   C86       1.0  0.68510  0.87390  0.37540  1.0000 -0.1210110849
C   C87       1.0  0.12610  0.31490  0.12460  1.0000 -0.1210110849
C   C88       1.0  0.87390  0.68510  0.62460  1.0000 -0.1210110849
C   C89       1.0  0.41540  0.39060  0.86380  1.0000 -0.1210110849
C   C90       1.0  0.58460  0.60940  0.36380  1.0000 -0.1210110849
C   C91       1.0  0.39060  0.41540  0.13620  1.0000 -0.1210110849
C   C92       1.0  0.60940  0.58460  0.63620  1.0000 -0.1210110849
C   C93       1.0  0.48810  0.51430  0.89300  1.0000 -0.0419877004
C   C94       1.0  0.51190  0.48570  0.39300  1.0000 -0.0419877004
C   C95       1.0  0.51430  0.48810  0.10700  1.0000 -0.0419877004
C   C96       1.0  0.48570  0.51190  0.60700  1.0000 -0.0419877004
C   C97       1.0  0.45390  0.34310  0.93510  1.0000 0.3236665772
C   C98       1.0  0.54610  0.65690  0.43510  1.0000 0.3236665772
C   C99       1.0  0.34310  0.45390  0.06490  1.0000 0.3236665772
C   C100      1.0  0.65690  0.54610  0.56490  1.0000 0.3236665772
C   C101      1.0  0.45350  0.26090  0.97530  1.0000 -0.5407035379
C   C102      1.0  0.54650  0.73910  0.47530  1.0000 -0.5407035379
C   C103      1.0  0.26090  0.45350  0.02470  1.0000 -0.5407035379
C   C104      1.0  0.73910  0.54650  0.52470  1.0000 -0.5407035379
N   N1        1.0  0.74290  0.37630  0.81430  1.0000 -0.3707743539
N   N2        1.0  0.25710  0.62370  0.31430  1.0000 -0.3707743539
N   N3        1.0  0.37630  0.74290  0.18570  1.0000 -0.3707743539
N   N4        1.0  0.62370  0.25710  0.68570  1.0000 -0.3707743539
N   N5        1.0  0.82140  0.57340  0.85780  1.0000 -0.0165840136
N   N6        1.0  0.17860  0.42660  0.35780  1.0000 -0.0165840136
N   N7        1.0  0.57340  0.82140  0.14220  1.0000 -0.0165840136
N   N8        1.0  0.42660  0.17860  0.64220  1.0000 -0.0165840136
N   N9        1.0  0.39260  0.28120  0.89040  1.0000 -0.0110878954
N   N10       1.0  0.60740  0.71880  0.39040  1.0000 -0.0110878954
N   N11       1.0  0.28120  0.39260  0.10960  1.0000 -0.0110878954
N   N12       1.0  0.71880  0.60740  0.60960  1.0000 -0.0110878954
N   N13       1.0  0.51290  0.48530  0.93736  1.0000 -0.3619522406
N   N14       1.0  0.48710  0.51470  0.43736  1.0000 -0.3619522406
N   N15       1.0  0.48530  0.51290  0.06264  1.0000 -0.3619522406
N   N16       1.0  0.51470  0.48710  0.56264  1.0000 -0.3619522406
O   O1        1.0  0.14910  0.34370  0.49720  1.0000 -0.5407035379
O   O2        1.0  0.85090  0.65630  0.99720  1.0000 -0.5407035379
O   O3        1.0  0.34370  0.14910  0.50280  1.0000 -0.5407035379
O   O4        1.0  0.65630  0.85090  0.00280  1.0000 -0.5407035379
O   O5        1.0  0.13910  0.21370  0.55530  1.0000 -0.5166047019
O   O6        1.0  0.86090  0.78630  0.05530  1.0000 -0.5166047019
O   O7        1.0  0.21370  0.13910  0.44470  1.0000 -0.5166047019
O   O8        1.0  0.78630  0.86090  0.94470  1.0000 -0.5166047019
O   O9        1.0  0.44010  0.88150  0.55812  1.0000 -0.2281622058
O   O10       1.0  0.55990  0.11850  0.05812  1.0000 -0.2281622058
O   O11       1.0  0.88150  0.44010  0.44188  1.0000 -0.2281622058
O   O12       1.0  0.11850  0.55990  0.94188  1.0000 -0.2281622058
O   O13       1.0  0.92120  0.30140  0.69200  1.0000 -0.5501686288
O   O14       1.0  0.07880  0.69860  0.19200  1.0000 -0.5501686288
O   O15       1.0  0.30140  0.92120  0.30800  1.0000 -0.5501686288
O   O16       1.0  0.69860  0.07880  0.80800  1.0000 -0.5501686288
O   O17       1.0  0.00060  0.49780  0.73810  1.0000 -0.5606967164
O   O18       1.0  0.99940  0.50220  0.23810  1.0000 -0.5606967164
O   O19       1.0  0.49780  0.00060  0.26190  1.0000 -0.5606967164
O   O20       1.0  0.50220  0.99940  0.76190  1.0000 -0.5606967164
