# DDEC6 charges by PACMAN v1.1 (https://github.com/mtap-research/PACMAN-charge/)
data_2010[Cu][nan]3[ASR]1
_chemical_formula_sum              "Cu8 H56 C112 O32"
_cell_length_a       26.2255
_cell_length_b       24.397
_cell_length_c       18.1148
_cell_angle_alpha    74.5422
_cell_angle_beta     63.7182
_cell_angle_gamma    41.7396

_symmetry_space_group_name_H-M    "P 1"
_symmetry_Int_Tables_number       1

loop_
  _symmetry_equiv_pos_as_xyz
  'x, y, z'

loop_
  _atom_site_type_symbol
  _atom_site_label
  _atom_site_symmetry_multiplicity
  _atom_site_fract_x
  _atom_site_fract_y
  _atom_site_fract_z
  _atom_site_occupancy
  _atom_site_charge
Cu  Cu1       1.0  0.11852  0.17766  0.57408  1.0000 0.8542208509
Cu  Cu2       1.0  0.17766  0.11852  0.12974  1.0000 0.8542208509
Cu  Cu3       1.0  0.12974  0.57408  0.17766  1.0000 0.8542208509
Cu  Cu4       1.0  0.57408  0.12974  0.11852  1.0000 0.8542208509
Cu  Cu5       1.0  0.13148  0.07234  0.67592  1.0000 0.8542208509
Cu  Cu6       1.0  0.07234  0.13148  0.12026  1.0000 0.8542208509
Cu  Cu7       1.0  0.12026  0.67592  0.07234  1.0000 0.8542208509
Cu  Cu8       1.0  0.67592  0.12026  0.13148  1.0000 0.8542208509
H   H1        1.0  0.84810  0.39670  0.20130  1.0000 0.1346466098
H   H2        1.0  0.39670  0.84810  0.55390  1.0000 0.1346466098
H   H3        1.0  0.55390  0.20130  0.39670  1.0000 0.1346466098
H   H4        1.0  0.20130  0.55390  0.84810  1.0000 0.1346466098
H   H5        1.0  0.40190  0.85330  0.04870  1.0000 0.1346466098
H   H6        1.0  0.85330  0.40190  0.69610  1.0000 0.1346466098
H   H7        1.0  0.69610  0.04870  0.85330  1.0000 0.1346466098
H   H8        1.0  0.04870  0.69610  0.40190  1.0000 0.1346466098
H   H9        1.0  0.91140  0.50220  0.27360  1.0000 0.1144184499
H   H10       1.0  0.50220  0.91140  0.31280  1.0000 0.1144184499
H   H11       1.0  0.31280  0.27360  0.50220  1.0000 0.1144184499
H   H12       1.0  0.27360  0.31280  0.91140  1.0000 0.1144184499
H   H13       1.0  0.33860  0.74780  0.97640  1.0000 0.1144184499
H   H14       1.0  0.74780  0.33860  0.93720  1.0000 0.1144184499
H   H15       1.0  0.93720  0.97640  0.74780  1.0000 0.1144184499
H   H16       1.0  0.97640  0.93720  0.33860  1.0000 0.1144184499
H   H17       1.0  0.74920  0.53700  0.23960  1.0000 0.1194592616
H   H18       1.0  0.53700  0.74920  0.47420  1.0000 0.1194592616
H   H19       1.0  0.47420  0.23960  0.53700  1.0000 0.1194592616
H   H20       1.0  0.23960  0.47420  0.74920  1.0000 0.1194592616
H   H21       1.0  0.50080  0.71300  0.01040  1.0000 0.1194592616
H   H22       1.0  0.71300  0.50080  0.77580  1.0000 0.1194592616
H   H23       1.0  0.77580  0.01040  0.71300  1.0000 0.1194592616
H   H24       1.0  0.01040  0.77580  0.50080  1.0000 0.1194592616
H   H25       1.0  0.01260  0.36080  0.23220  1.0000 0.1371959584
H   H26       1.0  0.36080  0.01260  0.39440  1.0000 0.1371959584
H   H27       1.0  0.39440  0.23220  0.36080  1.0000 0.1371959584
H   H28       1.0  0.23220  0.39440  0.01260  1.0000 0.1371959584
H   H29       1.0  0.23740  0.88920  0.01780  1.0000 0.1346466098
H   H30       1.0  0.88920  0.23740  0.85560  1.0000 0.1371959584
H   H31       1.0  0.85560  0.01780  0.88920  1.0000 0.1371959584
H   H32       1.0  0.01780  0.85560  0.23740  1.0000 0.1371959584
H   H33       1.0  0.65790  0.65790  0.34210  1.0000 0.1144184499
H   H34       1.0  0.34210  0.34210  0.65790  1.0000 0.1144184499
H   H35       1.0  0.59210  0.59210  0.90790  1.0000 0.1144184499
H   H36       1.0  0.90790  0.90790  0.59210  1.0000 0.1144184499
H   H37       1.0  0.85140  0.62140  0.21280  1.0000 0.1194592616
H   H38       1.0  0.62140  0.85140  0.31440  1.0000 0.1144184499
H   H39       1.0  0.31440  0.21280  0.62140  1.0000 0.1144184499
H   H40       1.0  0.21280  0.31440  0.85140  1.0000 0.1194592616
H   H41       1.0  0.39860  0.62860  0.03720  1.0000 0.1144184499
H   H42       1.0  0.62860  0.39860  0.93560  1.0000 0.1194592616
H   H43       1.0  0.93560  0.03720  0.62860  1.0000 0.1194592616
H   H44       1.0  0.03720  0.93560  0.39860  1.0000 0.1144184499
H   H45       1.0  0.89130  0.67510  0.22310  1.0000 0.1194592616
H   H46       1.0  0.67510  0.89130  0.21050  1.0000 0.1194592616
H   H47       1.0  0.21050  0.22310  0.67510  1.0000 0.1194592616
H   H48       1.0  0.22310  0.21050  0.89130  1.0000 0.1194592616
H   H49       1.0  0.35870  0.57490  0.02690  1.0000 0.1194592616
H   H50       1.0  0.57490  0.35870  0.03950  1.0000 0.1194592616
H   H51       1.0  0.03950  0.02690  0.57490  1.0000 0.1194592616
H   H52       1.0  0.02690  0.03950  0.35870  1.0000 0.1194592616
H   H53       1.0  0.86270  0.86270  0.13730  1.0000 0.1371959584
H   H54       1.0  0.13730  0.13730  0.86270  1.0000 0.1371959584
H   H55       1.0  0.38730  0.38730  0.11270  1.0000 0.1371959584
H   H56       1.0  0.11270  0.11270  0.38730  1.0000 0.1371959584
C   C1        1.0  0.94035  0.36775  0.20945  1.0000 -0.015831439
C   C2        1.0  0.36775  0.94035  0.48245  1.0000 -0.015831439
C   C3        1.0  0.48245  0.20945  0.36775  1.0000 -0.014195206
C   C4        1.0  0.20945  0.48245  0.94035  1.0000 -0.014195206
C   C5        1.0  0.30965  0.88225  0.04055  1.0000 -0.015831439
C   C6        1.0  0.88225  0.30965  0.76755  1.0000 -0.014195206
C   C7        1.0  0.76755  0.04055  0.88225  1.0000 -0.014195206
C   C8        1.0  0.04055  0.76755  0.30965  1.0000 -0.015831439
C   C9        1.0  0.86135  0.41855  0.21385  1.0000 -0.0914731143
C   C10       1.0  0.41855  0.86135  0.50625  1.0000 -0.0914731143
C   C11       1.0  0.50625  0.21385  0.41855  1.0000 -0.0914731143
C   C12       1.0  0.21385  0.50625  0.86135  1.0000 -0.0914731143
C   C13       1.0  0.38865  0.83145  0.03615  1.0000 -0.0914731143
C   C14       1.0  0.83145  0.38865  0.74375  1.0000 -0.0914731143
C   C15       1.0  0.74375  0.03615  0.83145  1.0000 -0.0914731143
C   C16       1.0  0.03615  0.74375  0.38865  1.0000 -0.0914731143
C   C17       1.0  0.89926  0.48126  0.25674  1.0000 -0.1558480177
C   C18       1.0  0.48126  0.89926  0.36274  1.0000 -0.1558480177
C   C19       1.0  0.36274  0.25674  0.48126  1.0000 -0.1558480177
C   C20       1.0  0.25674  0.36274  0.89926  1.0000 -0.1558480177
C   C21       1.0  0.35074  0.76874  0.99326  1.0000 -0.1558480177
C   C22       1.0  0.76874  0.35074  0.88726  1.0000 -0.150333613
C   C23       1.0  0.88726  0.99326  0.76874  1.0000 -0.150333613
C   C24       1.0  0.99326  0.88726  0.35074  1.0000 -0.1558480177
C   C25       1.0  0.82217  0.53377  0.25603  1.0000 0.0785701396
C   C26       1.0  0.53377  0.82217  0.38803  1.0000 0.0785701396
C   C27       1.0  0.38803  0.25603  0.53377  1.0000 0.0785701396
C   C28       1.0  0.25603  0.38803  0.82217  1.0000 0.0785701396
C   C29       1.0  0.42783  0.71623  0.99397  1.0000 0.0785701396
C   C30       1.0  0.71623  0.42783  0.86197  1.0000 0.0785701396
C   C31       1.0  0.86197  0.99397  0.71623  1.0000 0.0785701396
C   C32       1.0  0.99397  0.86197  0.42783  1.0000 0.0785701396
C   C33       1.0  0.80253  0.50193  0.23687  1.0000 -0.150333613
C   C34       1.0  0.50193  0.80253  0.45867  1.0000 -0.150333613
C   C35       1.0  0.45867  0.23687  0.50193  1.0000 -0.150333613
C   C36       1.0  0.23687  0.45867  0.80253  1.0000 -0.150333613
C   C37       1.0  0.44747  0.74807  0.01313  1.0000 -0.150333613
C   C38       1.0  0.74807  0.44747  0.79133  1.0000 -0.150333613
C   C39       1.0  0.79133  0.01313  0.74807  1.0000 -0.150333613
C   C40       1.0  0.01313  0.79133  0.44747  1.0000 -0.150333613
C   C41       1.0  0.95989  0.39649  0.23251  1.0000 -0.0914731143
C   C42       1.0  0.39649  0.95989  0.41111  1.0000 -0.0914731143
C   C43       1.0  0.41111  0.23251  0.39649  1.0000 -0.0914731143
C   C44       1.0  0.23251  0.41111  0.95989  1.0000 -0.0914731143
C   C45       1.0  0.29011  0.85351  0.01749  1.0000 -0.0914731143
C   C46       1.0  0.85351  0.29011  0.83889  1.0000 -0.0914731143
C   C47       1.0  0.83889  0.01749  0.85351  1.0000 -0.0914731143
C   C48       1.0  0.01749  0.83889  0.29011  1.0000 -0.0914731143
C   C49       1.0  0.76277  0.62697  0.27523  1.0000 0.0785701396
C   C50       1.0  0.62697  0.76277  0.33503  1.0000 0.0785701396
C   C51       1.0  0.33503  0.27523  0.62697  1.0000 0.0785701396
C   C52       1.0  0.27523  0.33503  0.76277  1.0000 0.0785701396
C   C53       1.0  0.48723  0.62303  0.97477  1.0000 0.0785701396
C   C54       1.0  0.62303  0.48723  0.91497  1.0000 0.0785701396
C   C55       1.0  0.91497  0.97477  0.62303  1.0000 0.0785701396
C   C56       1.0  0.97477  0.91497  0.48723  1.0000 0.0785701396
C   C57       1.0  0.67915  0.67915  0.32085  1.0000 -0.2018439882
C   C58       1.0  0.32085  0.32085  0.67915  1.0000 -0.2018439882
C   C59       1.0  0.57085  0.57085  0.92915  1.0000 -0.2018439882
C   C60       1.0  0.92915  0.92915  0.57085  1.0000 -0.2018439882
C   C61       1.0  0.79513  0.65693  0.24347  1.0000 -0.2018439882
C   C62       1.0  0.65693  0.79513  0.30447  1.0000 -0.2018439882
C   C63       1.0  0.30447  0.24347  0.65693  1.0000 -0.2018439882
C   C64       1.0  0.24347  0.30447  0.79513  1.0000 -0.2018439882
C   C65       1.0  0.45487  0.59307  0.00653  1.0000 -0.2018439882
C   C66       1.0  0.59307  0.45487  0.94553  1.0000 -0.2018439882
C   C67       1.0  0.94553  0.00653  0.59307  1.0000 -0.2018439882
C   C68       1.0  0.00653  0.94553  0.45487  1.0000 -0.2018439882
C   C69       1.0  0.74250  0.74250  0.25750  1.0000 0.0785701396
C   C70       1.0  0.25750  0.25750  0.74250  1.0000 0.0785701396
C   C71       1.0  0.50750  0.50750  0.99250  1.0000 0.0785701396
C   C72       1.0  0.99250  0.99250  0.50750  1.0000 0.0785701396
C   C73       1.0  0.77510  0.77510  0.22490  1.0000 0.05438936
C   C74       1.0  0.22490  0.22490  0.77510  1.0000 0.05438936
C   C75       1.0  0.47490  0.47490  0.02510  1.0000 0.05438936
C   C76       1.0  0.02510  0.02510  0.47490  1.0000 0.05438936
C   C77       1.0  0.85720  0.72920  0.20940  1.0000 -0.1418063728
C   C78       1.0  0.72920  0.85720  0.20420  1.0000 -0.1418063728
C   C79       1.0  0.20420  0.20940  0.72920  1.0000 -0.1418063728
C   C80       1.0  0.20940  0.20420  0.85720  1.0000 -0.1418063728
C   C81       1.0  0.39280  0.52080  0.04060  1.0000 -0.1418063728
C   C82       1.0  0.52080  0.39280  0.04580  1.0000 -0.1418063728
C   C83       1.0  0.04580  0.04060  0.52080  1.0000 -0.1418063728
C   C84       1.0  0.04060  0.04580  0.39280  1.0000 -0.1418063728
C   C85       1.0  0.84146  0.84146  0.15854  1.0000 -0.0914731143
C   C86       1.0  0.15854  0.15854  0.84146  1.0000 -0.0914731143
C   C87       1.0  0.40854  0.40854  0.09146  1.0000 -0.0914731143
C   C88       1.0  0.09146  0.09146  0.40854  1.0000 -0.0914731143
C   C89       1.0  0.88956  0.75976  0.17504  1.0000 -0.0326284453
C   C90       1.0  0.75976  0.88956  0.17564  1.0000 -0.0326284453
C   C91       1.0  0.17564  0.17504  0.75976  1.0000 -0.0326284453
C   C92       1.0  0.17504  0.17564  0.88956  1.0000 -0.0326284453
C   C93       1.0  0.36044  0.49024  0.07496  1.0000 -0.0326284453
C   C94       1.0  0.49024  0.36044  0.07436  1.0000 -0.0326284453
C   C95       1.0  0.07436  0.07496  0.49024  1.0000 -0.0326284453
C   C96       1.0  0.07496  0.07436  0.36044  1.0000 -0.0326284453
C   C97       1.0  0.01163  0.27363  0.17757  1.0000 0.570972039
C   C98       1.0  0.27363  0.01163  0.53717  1.0000 0.570972039
C   C99       1.0  0.53717  0.17757  0.27363  1.0000 0.570972039
C   C100      1.0  0.17757  0.53717  0.01163  1.0000 0.570972039
C   C101      1.0  0.23837  0.97637  0.07243  1.0000 0.570972039
C   C102      1.0  0.97637  0.23837  0.71283  1.0000 0.570972039
C   C103      1.0  0.71283  0.07243  0.97637  1.0000 0.570972039
C   C104      1.0  0.07243  0.71283  0.23837  1.0000 0.570972039
C   C105      1.0  0.97755  0.70615  0.15665  1.0000 0.5806464763
C   C106      1.0  0.70615  0.97755  0.15965  1.0000 0.5806464763
C   C107      1.0  0.15965  0.15665  0.70615  1.0000 0.5806464763
C   C108      1.0  0.15665  0.15965  0.97755  1.0000 0.5806464763
C   C109      1.0  0.27245  0.54385  0.09335  1.0000 0.5806464763
C   C110      1.0  0.54385  0.27245  0.09035  1.0000 0.5806464763
C   C111      1.0  0.09035  0.09335  0.54385  1.0000 0.5806464763
C   C112      1.0  0.09335  0.09035  0.27245  1.0000 0.5806464763
O   O1        1.0  0.08113  0.23523  0.17015  1.0000 -0.5115188374
O   O2        1.0  0.23523  0.08113  0.51349  1.0000 -0.5034854425
O   O3        1.0  0.51349  0.17015  0.23523  1.0000 -0.5115188374
O   O4        1.0  0.17015  0.51349  0.08113  1.0000 -0.5034854425
O   O5        1.0  0.16887  0.01477  0.07985  1.0000 -0.5034854425
O   O6        1.0  0.01477  0.16887  0.73651  1.0000 -0.5034854425
O   O7        1.0  0.73651  0.07985  0.01477  1.0000 -0.5034854425
O   O8        1.0  0.07985  0.73651  0.16887  1.0000 -0.5034854425
O   O9        1.0  0.01513  0.64319  0.19409  1.0000 -0.5115188374
O   O10       1.0  0.64319  0.01513  0.14759  1.0000 -0.5115188374
O   O11       1.0  0.14759  0.19409  0.64319  1.0000 -0.5115188374
O   O12       1.0  0.19409  0.14759  0.01513  1.0000 -0.5115188374
O   O13       1.0  0.23487  0.60681  0.05591  1.0000 -0.5115188374
O   O14       1.0  0.60681  0.23487  0.10241  1.0000 -0.5115188374
O   O15       1.0  0.10241  0.05591  0.60681  1.0000 -0.5115188374
O   O16       1.0  0.05591  0.10241  0.23487  1.0000 -0.5115188374
O   O17       1.0  0.98879  0.24751  0.16279  1.0000 -0.5328898369
O   O18       1.0  0.24751  0.98879  0.60091  1.0000 -0.5328898369
O   O19       1.0  0.60091  0.16279  0.24751  1.0000 -0.5328898369
O   O20       1.0  0.16279  0.60091  0.98879  1.0000 -0.5328898369
O   O21       1.0  0.26121  0.00249  0.08721  1.0000 -0.5328898369
O   O22       1.0  0.00249  0.26121  0.64909  1.0000 -0.5328898369
O   O23       1.0  0.64909  0.08721  0.00249  1.0000 -0.5328898369
O   O24       1.0  0.08721  0.64909  0.26121  1.0000 -0.5328898369
O   O25       1.0  0.00897  0.72913  0.10559  1.0000 -0.5214639245
O   O26       1.0  0.72913  0.00897  0.15631  1.0000 -0.5214639245
O   O27       1.0  0.15631  0.10559  0.72913  1.0000 -0.5214639245
O   O28       1.0  0.10559  0.15631  0.00897  1.0000 -0.5214639245
O   O29       1.0  0.24103  0.52087  0.14441  1.0000 -0.5214639245
O   O30       1.0  0.52087  0.24103  0.09369  1.0000 -0.5214639245
O   O31       1.0  0.09369  0.14441  0.52087  1.0000 -0.5214639245
O   O32       1.0  0.14441  0.09369  0.24103  1.0000 -0.5214639245
