# DDEC6 charges by PACMAN v1.1 (https://github.com/mtap-research/PACMAN-charge/)
data_2010[Cu][lvt]3[ASR]2
_chemical_formula_sum              "Cu4 H16 C36 N8 O16"
_cell_length_a       9.74697
_cell_length_b       9.74697
_cell_length_c       14.7695
_cell_angle_alpha    79.84
_cell_angle_beta     100.16
_cell_angle_gamma    72.947

_symmetry_space_group_name_H-M    "P 1"
_symmetry_Int_Tables_number       1

loop_
  _symmetry_equiv_pos_as_xyz
  'x, y, z'

loop_
  _atom_site_type_symbol
  _atom_site_label
  _atom_site_symmetry_multiplicity
  _atom_site_fract_x
  _atom_site_fract_y
  _atom_site_fract_z
  _atom_site_occupancy
  _atom_site_charge
Cu  Cu1       1.0  0.00644  0.50338  0.75704  1.0000 0.7258884729
Cu  Cu2       1.0  0.50338  0.00644  0.74296  1.0000 0.7229066313
Cu  Cu3       1.0  0.99356  0.49662  0.24296  1.0000 0.7229066313
Cu  Cu4       1.0  0.49662  0.99356  0.25704  1.0000 0.7229066313
H   H1        1.0  0.83090  0.16610  0.86860  1.0000 0.1068818577
H   H2        1.0  0.16610  0.83090  0.63140  1.0000 0.1068818577
H   H3        1.0  0.16910  0.83390  0.13140  1.0000 0.1068818577
H   H4        1.0  0.83390  0.16910  0.36860  1.0000 0.1068818577
H   H5        1.0  0.27320  0.60260  0.76570  1.0000 0.1197991014
H   H6        1.0  0.60260  0.27320  0.73430  1.0000 0.1197991014
H   H7        1.0  0.72680  0.39740  0.23430  1.0000 0.1197991014
H   H8        1.0  0.39740  0.72680  0.26570  1.0000 0.1197991014
H   H9        1.0  0.39900  0.74020  0.75260  1.0000 0.1197991014
H   H10       1.0  0.74020  0.39900  0.74740  1.0000 0.1197991014
H   H11       1.0  0.60100  0.25980  0.24740  1.0000 0.1197991014
H   H12       1.0  0.25980  0.60100  0.25260  1.0000 0.1197991014
H   H13       1.0  0.78200  0.78200  0.75000  1.0000 0.1197991014
H   H14       1.0  0.21800  0.21800  0.25000  1.0000 0.1197991014
H   H15       1.0  0.22400  0.22400  0.75000  1.0000 0.1254367054
H   H16       1.0  0.77600  0.77600  0.25000  1.0000 0.1254367054
C   C1        1.0  0.03484  0.27884  0.91890  1.0000 0.5635444791
C   C2        1.0  0.27884  0.03484  0.58110  1.0000 0.5635444791
C   C3        1.0  0.96516  0.72116  0.08110  1.0000 0.5635444791
C   C4        1.0  0.72116  0.96516  0.41890  1.0000 0.5635444791
C   C5        1.0  0.02328  0.13068  0.96070  1.0000 -0.0198342065
C   C6        1.0  0.13068  0.02328  0.53930  1.0000 -0.0198342065
C   C7        1.0  0.97672  0.86932  0.03930  1.0000 -0.0198342065
C   C8        1.0  0.86932  0.97672  0.46070  1.0000 -0.0198342065
C   C9        1.0  0.89907  0.09927  0.92180  1.0000 -0.1385602087
C   C10       1.0  0.09927  0.89907  0.57820  1.0000 -0.1385602087
C   C11       1.0  0.10093  0.90073  0.07820  1.0000 -0.1385602087
C   C12       1.0  0.90073  0.10093  0.42180  1.0000 -0.1385602087
C   C13       1.0  0.12656  0.02916  0.03990  1.0000 -0.0250698897
C   C14       1.0  0.02916  0.12656  0.46010  1.0000 -0.0250698897
C   C15       1.0  0.87344  0.97084  0.96010  1.0000 -0.0250698897
C   C16       1.0  0.97084  0.87344  0.53990  1.0000 -0.0198342065
C   C17       1.0  0.26840  0.05040  0.08330  1.0000 0.5635444791
C   C18       1.0  0.05040  0.26840  0.41670  1.0000 0.5635444791
C   C19       1.0  0.73160  0.94960  0.91670  1.0000 0.5635444791
C   C20       1.0  0.94960  0.73160  0.58330  1.0000 0.5635444791
C   C21       1.0  0.28370  0.28370  0.75000  1.0000 0.2534814299
C   C22       1.0  0.71630  0.71630  0.25000  1.0000 0.2534814299
C   C23       1.0  0.31150  0.50690  0.75860  1.0000 0.0730410645
C   C24       1.0  0.50690  0.31150  0.74140  1.0000 0.0730410645
C   C25       1.0  0.68850  0.49310  0.24140  1.0000 0.0730410645
C   C26       1.0  0.49310  0.68850  0.25860  1.0000 0.0730410645
C   C27       1.0  0.45640  0.45640  0.75000  1.0000 0.0091966799
C   C28       1.0  0.54360  0.54360  0.25000  1.0000 0.0091966799
C   C29       1.0  0.55110  0.55110  0.75000  1.0000 0.0046890987
C   C30       1.0  0.44890  0.44890  0.25000  1.0000 0.0046890987
C   C31       1.0  0.49743  0.69923  0.75120  1.0000 0.0730410645
C   C32       1.0  0.69923  0.49743  0.74880  1.0000 0.0730410645
C   C33       1.0  0.50257  0.30077  0.24880  1.0000 0.0730410645
C   C34       1.0  0.30077  0.50257  0.25120  1.0000 0.0730410645
C   C35       1.0  0.72340  0.72340  0.75000  1.0000 0.258392495
C   C36       1.0  0.27660  0.27660  0.25000  1.0000 0.258392495
N   N1        1.0  0.22526  0.42246  0.75681  1.0000 -0.2148092865
N   N2        1.0  0.42246  0.22526  0.74319  1.0000 -0.2148092865
N   N3        1.0  0.77474  0.57754  0.24319  1.0000 -0.2148092865
N   N4        1.0  0.57754  0.77474  0.25681  1.0000 -0.2148092865
N   N5        1.0  0.58232  0.78512  0.75051  1.0000 -0.2176636226
N   N6        1.0  0.78512  0.58232  0.74949  1.0000 -0.2176636226
N   N7        1.0  0.41768  0.21488  0.24949  1.0000 -0.2176636226
N   N8        1.0  0.21488  0.41768  0.25051  1.0000 -0.2176636226
O   O1        1.0  0.01968  0.31108  0.83058  1.0000 -0.5471978664
O   O2        1.0  0.31108  0.01968  0.66942  1.0000 -0.5471978664
O   O3        1.0  0.98032  0.68892  0.16942  1.0000 -0.5471978664
O   O4        1.0  0.68892  0.98032  0.33058  1.0000 -0.5471978664
O   O5        1.0  0.05080  0.35980  0.97000  1.0000 -0.4934027299
O   O6        1.0  0.35980  0.05080  0.53000  1.0000 -0.4934027299
O   O7        1.0  0.94920  0.64020  0.03000  1.0000 -0.4934027299
O   O8        1.0  0.64020  0.94920  0.47000  1.0000 -0.4934027299
O   O9        1.0  0.31196  0.00688  0.17200  1.0000 -0.558981496
O   O10       1.0  0.00688  0.31196  0.32800  1.0000 -0.558981496
O   O11       1.0  0.68804  0.99312  0.82800  1.0000 -0.558981496
O   O12       1.0  0.99312  0.68804  0.67200  1.0000 -0.558981496
O   O13       1.0  0.33090  0.10870  0.03120  1.0000 -0.5142665286
O   O14       1.0  0.10870  0.33090  0.46880  1.0000 -0.5142665286
O   O15       1.0  0.66910  0.89130  0.96880  1.0000 -0.5142665286
O   O16       1.0  0.89130  0.66910  0.53120  1.0000 -0.5155628502
