# DDEC6 charges by PACMAN v1.1 (https://github.com/mtap-research/PACMAN-charge/)
data_2010[Mn][ths]3[ASR]1
_chemical_formula_sum              "Mn2 H10 C20 N6 O8"
_cell_length_a       9.69378
_cell_length_b       9.69378
_cell_length_c       7.7563
_cell_angle_alpha    80.6945
_cell_angle_beta     99.3055
_cell_angle_gamma    114.1

_symmetry_space_group_name_H-M    "P 1"
_symmetry_Int_Tables_number       1

loop_
  _symmetry_equiv_pos_as_xyz
  'x, y, z'

loop_
  _atom_site_type_symbol
  _atom_site_label
  _atom_site_symmetry_multiplicity
  _atom_site_fract_x
  _atom_site_fract_y
  _atom_site_fract_z
  _atom_site_occupancy
  _atom_site_charge
Mn  Mn1       1.0  0.55448  0.88784  0.52501  1.0000 0.8975830175
Mn  Mn2       1.0  0.11216  0.44552  0.02501  1.0000 0.8975830175
H   H1        1.0  0.52030  0.26530  0.86760  1.0000 0.1404579081
H   H2        1.0  0.73470  0.47970  0.36760  1.0000 0.1404579081
H   H3        1.0  0.74640  0.26060  0.01740  1.0000 0.1262637623
H   H4        1.0  0.73940  0.25360  0.51740  1.0000 0.1262637623
H   H5        1.0  0.97300  0.68120  0.83400  1.0000 0.1262637623
H   H6        1.0  0.31880  0.02700  0.33400  1.0000 0.1262637623
H   H7        1.0  0.75870  0.69990  0.67620  1.0000 0.1461758412
H   H8        1.0  0.30010  0.24130  0.17620  1.0000 0.1461758412
H   H9        1.0  0.32120  0.27540  0.66550  1.0000 0.314525912
H   H10       1.0  0.72460  0.67880  0.16550  1.0000 0.314525912
C   C1        1.0  0.29460  0.67760  0.29630  1.0000 0.5756870903
C   C2        1.0  0.32240  0.70540  0.79630  1.0000 0.5756870903
C   C3        1.0  0.33070  0.56350  0.43220  1.0000 -0.0005487827
C   C4        1.0  0.43650  0.66930  0.93220  1.0000 -0.0005487827
C   C5        1.0  0.09240  0.29360  0.42060  1.0000 0.5521190859
C   C6        1.0  0.70640  0.90760  0.92060  1.0000 0.5521190859
C   C7        1.0  0.24790  0.40850  0.48190  1.0000 0.0458516948
C   C8        1.0  0.59150  0.75210  0.98190  1.0000 0.0458516948
C   C9        1.0  0.61090  0.35010  0.85720  1.0000 -0.2069642
C   C10       1.0  0.64990  0.38910  0.35720  1.0000 -0.2069642
C   C11       1.0  0.74840  0.34860  0.94730  1.0000 0.0994197078
C   C12       1.0  0.65140  0.25160  0.44730  1.0000 0.0994197078
C   C13       1.0  0.88160  0.59660  0.83830  1.0000 0.0938226603
C   C14       1.0  0.40340  0.11840  0.33830  1.0000 0.0938226603
C   C15       1.0  0.75300  0.60960  0.74350  1.0000 -0.177399715
C   C16       1.0  0.39040  0.24700  0.24350  1.0000 -0.177399715
C   C17       1.0  0.61350  0.48350  0.75070  1.0000 0.0601939786
C   C18       1.0  0.51650  0.38650  0.25070  1.0000 0.0601939786
C   C19       1.0  0.47560  0.49040  0.63880  1.0000 0.2897002794
C   C20       1.0  0.50960  0.52440  0.13880  1.0000 0.2897002794
N   N1        1.0  0.47200  0.61300  0.53450  1.0000 -0.3953445159
N   N2        1.0  0.38700  0.52800  0.03450  1.0000 -0.3953445159
N   N3        1.0  0.34200  0.36520  0.61120  1.0000 -0.269640138
N   N4        1.0  0.63480  0.65800  0.11120  1.0000 -0.269640138
N   N5        1.0  0.88290  0.46790  0.93740  1.0000 -0.2339687698
N   N6        1.0  0.53210  0.11710  0.43740  1.0000 -0.2339687698
O   O1        1.0  0.38880  0.81300  0.29750  1.0000 -0.5297994219
O   O2        1.0  0.18700  0.61120  0.79750  1.0000 -0.5297994219
O   O3        1.0  0.17380  0.63220  0.19120  1.0000 -0.5415303908
O   O4        1.0  0.36780  0.82620  0.69120  1.0000 -0.5415303908
O   O5        1.0  0.04590  0.29710  0.25910  1.0000 -0.5545281969
O   O6        1.0  0.70290  0.95410  0.75910  1.0000 -0.5570697787
O   O7        1.0  0.02170  0.19790  0.54050  1.0000 -0.5570697787
O   O8        1.0  0.80210  0.97830  0.04050  1.0000 -0.5570697787
