# DDEC6 charges by PACMAN v1.1 (https://github.com/mtap-research/PACMAN-charge/)
data_2010[Zn][nan]3[ASR]14
_chemical_formula_sum              "Zn4 H64 C82 N8 O24"
_cell_length_a       13.7029
_cell_length_b       13.7029
_cell_length_c       19.9111
_cell_angle_alpha    86.5705
_cell_angle_beta     93.4295
_cell_angle_gamma    39.6942

_symmetry_space_group_name_H-M    "P 1"
_symmetry_Int_Tables_number       1

loop_
  _symmetry_equiv_pos_as_xyz
  'x, y, z'

loop_
  _atom_site_type_symbol
  _atom_site_label
  _atom_site_symmetry_multiplicity
  _atom_site_fract_x
  _atom_site_fract_y
  _atom_site_fract_z
  _atom_site_occupancy
  _atom_site_charge
Zn  Zn1       1.0  0.40334  0.83832  0.01193  1.0000 0.7407081352
Zn  Zn2       1.0  0.83832  0.40334  0.48807  1.0000 0.7407081352
Zn  Zn3       1.0  0.59666  0.16168  0.98807  1.0000 0.7407081352
Zn  Zn4       1.0  0.16168  0.59666  0.51193  1.0000 0.7407081352
H   H1        1.0  0.61290  0.51910  0.06670  1.0000 0.1096530348
H   H2        1.0  0.51910  0.61290  0.43330  1.0000 0.1096530348
H   H3        1.0  0.38710  0.48090  0.93330  1.0000 0.1096530348
H   H4        1.0  0.48090  0.38710  0.56670  1.0000 0.1096530348
H   H5        1.0  0.62310  0.36310  0.12590  1.0000 0.1571035313
H   H6        1.0  0.36310  0.62310  0.37410  1.0000 0.1571035313
H   H7        1.0  0.37690  0.63690  0.87410  1.0000 0.1571035313
H   H8        1.0  0.63690  0.37690  0.62590  1.0000 0.1571035313
H   H9        1.0  0.17230  0.73910  0.13130  1.0000 0.1438838469
H   H10       1.0  0.73910  0.17230  0.36870  1.0000 0.1438838469
H   H11       1.0  0.82770  0.26090  0.86870  1.0000 0.1438838469
H   H12       1.0  0.26090  0.82770  0.63130  1.0000 0.1438838469
H   H13       1.0  0.17520  0.88200  0.07090  1.0000 0.116554023
H   H14       1.0  0.88200  0.17520  0.42910  1.0000 0.116554023
H   H15       1.0  0.82480  0.11800  0.92910  1.0000 0.116554023
H   H16       1.0  0.11800  0.82480  0.57090  1.0000 0.116554023
H   H17       1.0  0.23730  0.57750  0.22320  1.0000 0.1016499104
H   H18       1.0  0.57750  0.23730  0.27680  1.0000 0.1016499104
H   H19       1.0  0.76270  0.42250  0.77680  1.0000 0.1016499104
H   H20       1.0  0.42250  0.76270  0.72320  1.0000 0.1016499104
H   H21       1.0  0.21420  0.52340  0.16340  1.0000 0.1096530348
H   H22       1.0  0.52340  0.21420  0.33660  1.0000 0.1096530348
H   H23       1.0  0.78580  0.47660  0.83660  1.0000 0.1096530348
H   H24       1.0  0.47660  0.78580  0.66340  1.0000 0.1096530348
H   H25       1.0  0.48510  0.13230  0.24270  1.0000 0.1016499104
H   H26       1.0  0.13230  0.48510  0.25730  1.0000 0.1016499104
H   H27       1.0  0.51490  0.86770  0.75730  1.0000 0.1016499104
H   H28       1.0  0.86770  0.51490  0.74270  1.0000 0.1016499104
H   H29       1.0  0.47370  0.21350  0.17760  1.0000 0.1096530348
H   H30       1.0  0.21350  0.47370  0.32240  1.0000 0.1096530348
H   H31       1.0  0.52630  0.78650  0.82240  1.0000 0.1096530348
H   H32       1.0  0.78650  0.52630  0.67760  1.0000 0.1096530348
H   H33       1.0  0.10840  0.27680  0.14540  1.0000 0.1495210531
H   H34       1.0  0.27680  0.10840  0.35460  1.0000 0.1495210531
H   H35       1.0  0.89160  0.72320  0.85460  1.0000 0.1495210531
H   H36       1.0  0.72320  0.89160  0.64540  1.0000 0.1495210531
H   H37       1.0  0.14430  0.11970  0.08300  1.0000 0.1096530348
H   H38       1.0  0.11970  0.14430  0.41700  1.0000 0.1096530348
H   H39       1.0  0.85570  0.88030  0.91700  1.0000 0.1096530348
H   H40       1.0  0.88030  0.85570  0.58300  1.0000 0.1096530348
H   H41       1.0  0.56230  0.88530  0.07040  1.0000 0.1096530348
H   H42       1.0  0.88530  0.56230  0.42960  1.0000 0.1096530348
H   H43       1.0  0.43770  0.11470  0.92960  1.0000 0.1096530348
H   H44       1.0  0.11470  0.43770  0.57040  1.0000 0.1096530348
H   H45       1.0  0.52920  0.04500  0.12630  1.0000 0.1495210531
H   H46       1.0  0.04500  0.52920  0.37370  1.0000 0.1495210531
H   H47       1.0  0.47080  0.95500  0.87370  1.0000 0.1495210531
H   H48       1.0  0.95500  0.47080  0.62630  1.0000 0.1495210531
H   H49       1.0  0.21260  0.11240  0.80670  1.0000 0.116554023
H   H50       1.0  0.11240  0.21260  0.69330  1.0000 0.116554023
H   H51       1.0  0.78740  0.88760  0.19330  1.0000 0.116554023
H   H52       1.0  0.88760  0.78740  0.30670  1.0000 0.116554023
H   H53       1.0  0.04880  0.96560  0.80670  1.0000 0.116554023
H   H54       1.0  0.96560  0.04880  0.69330  1.0000 0.116554023
H   H55       1.0  0.95120  0.03440  0.19330  1.0000 0.116554023
H   H56       1.0  0.03440  0.95120  0.30670  1.0000 0.116554023
H   H57       1.0  0.98050  0.37390  0.94100  1.0000 0.116554023
H   H58       1.0  0.37390  0.98050  0.55900  1.0000 0.116554023
H   H59       1.0  0.01950  0.62610  0.05900  1.0000 0.116554023
H   H60       1.0  0.62610  0.01950  0.44100  1.0000 0.116554023
H   H61       1.0  0.79660  0.69520  0.05420  1.0000 0.1096530348
H   H62       1.0  0.69520  0.79660  0.44580  1.0000 0.1096530348
H   H63       1.0  0.20340  0.30480  0.94580  1.0000 0.1096530348
H   H64       1.0  0.30480  0.20340  0.55420  1.0000 0.1096530348
C   C1        1.0  0.52270  0.56410  0.08000  1.0000 0.0913292737
C   C2        1.0  0.56410  0.52270  0.42000  1.0000 0.0913292737
C   C3        1.0  0.47730  0.43590  0.92000  1.0000 0.0913292737
C   C4        1.0  0.43590  0.47730  0.58000  1.0000 0.0913292737
C   C5        1.0  0.53010  0.46950  0.11580  1.0000 -0.2543774807
C   C6        1.0  0.46950  0.53010  0.38420  1.0000 -0.2543774807
C   C7        1.0  0.46990  0.53050  0.88420  1.0000 -0.2543774807
C   C8        1.0  0.53050  0.46990  0.61580  1.0000 -0.2543774807
C   C9        1.0  0.40010  0.53330  0.13640  1.0000 0.2957681494
C   C10       1.0  0.53330  0.40010  0.36360  1.0000 0.2957681494
C   C11       1.0  0.59990  0.46670  0.86360  1.0000 0.2957681494
C   C12       1.0  0.46670  0.59990  0.63640  1.0000 0.2957681494
C   C13       1.0  0.26400  0.69160  0.11870  1.0000 -0.2543774807
C   C14       1.0  0.69160  0.26400  0.38130  1.0000 -0.2543774807
C   C15       1.0  0.73600  0.30840  0.88130  1.0000 -0.2543774807
C   C16       1.0  0.30840  0.73600  0.61870  1.0000 -0.2543774807
C   C17       1.0  0.26730  0.77570  0.08270  1.0000 0.0913292737
C   C18       1.0  0.77570  0.26730  0.41730  1.0000 0.0913292737
C   C19       1.0  0.73270  0.22430  0.91730  1.0000 0.0913292737
C   C20       1.0  0.22430  0.73270  0.58270  1.0000 0.0913292737
C   C21       1.0  0.28863  0.49043  0.20020  1.0000 -0.0855848582
C   C22       1.0  0.49043  0.28863  0.29980  1.0000 -0.0855848582
C   C23       1.0  0.71137  0.50957  0.79980  1.0000 -0.0855848582
C   C24       1.0  0.50957  0.71137  0.70020  1.0000 -0.0855848582
C   C25       1.0  0.35550  0.35550  0.25000  1.0000 0.0792374315
C   C26       1.0  0.64450  0.64450  0.75000  1.0000 0.0792374315
C   C27       1.0  0.41626  0.22906  0.21140  1.0000 -0.0837025752
C   C28       1.0  0.22906  0.41626  0.28860  1.0000 -0.0837025752
C   C29       1.0  0.58374  0.77094  0.78860  1.0000 -0.0837025752
C   C30       1.0  0.77094  0.58374  0.71140  1.0000 -0.0837025752
C   C31       1.0  0.31660  0.17700  0.14380  1.0000 0.2810021716
C   C32       1.0  0.17700  0.31660  0.35620  1.0000 0.2810021716
C   C33       1.0  0.68340  0.82300  0.85620  1.0000 0.2810021716
C   C34       1.0  0.82300  0.68340  0.64380  1.0000 0.2810021716
C   C35       1.0  0.20180  0.19760  0.12970  1.0000 -0.262046856
C   C36       1.0  0.19760  0.20180  0.37030  1.0000 -0.262046856
C   C37       1.0  0.79820  0.80240  0.87030  1.0000 -0.262046856
C   C38       1.0  0.80240  0.79820  0.62970  1.0000 -0.262046856
C   C39       1.0  0.22440  0.10200  0.09270  1.0000 0.0913292737
C   C40       1.0  0.10200  0.22440  0.40730  1.0000 0.0913292737
C   C41       1.0  0.77560  0.89800  0.90730  1.0000 0.0913292737
C   C42       1.0  0.89800  0.77560  0.59270  1.0000 0.0913292737
C   C43       1.0  0.46790  0.96710  0.08490  1.0000 0.0706772285
C   C44       1.0  0.96710  0.46790  0.41510  1.0000 0.0706772285
C   C45       1.0  0.53210  0.03290  0.91510  1.0000 0.0706772285
C   C46       1.0  0.03290  0.53210  0.58490  1.0000 0.0706772285
C   C47       1.0  0.45010  0.06050  0.11930  1.0000 -0.262046856
C   C48       1.0  0.06050  0.45010  0.38070  1.0000 -0.262046856
C   C49       1.0  0.54990  0.93950  0.88070  1.0000 -0.262046856
C   C50       1.0  0.93950  0.54990  0.61930  1.0000 -0.262046856
C   C51       1.0  0.20250  0.96490  0.89490  1.0000 0.5316602068
C   C52       1.0  0.96490  0.20250  0.60510  1.0000 0.5316602068
C   C53       1.0  0.79750  0.03510  0.10510  1.0000 0.5316602068
C   C54       1.0  0.03510  0.79750  0.39490  1.0000 0.5316602068
C   C55       1.0  0.14020  0.02920  0.81950  1.0000 -0.0170870836
C   C56       1.0  0.02920  0.14020  0.68050  1.0000 -0.0170870836
C   C57       1.0  0.85980  0.97080  0.18050  1.0000 -0.0170870836
C   C58       1.0  0.97080  0.85980  0.31950  1.0000 -0.0170870836
C   C59       1.0  0.15980  0.10240  0.78400  1.0000 -0.1377551665
C   C60       1.0  0.10240  0.15980  0.71600  1.0000 -0.1377551665
C   C61       1.0  0.84020  0.89760  0.21600  1.0000 -0.1377551665
C   C62       1.0  0.89760  0.84020  0.28400  1.0000 -0.1377551665
C   C63       1.0  0.06420  0.01300  0.78360  1.0000 -0.1169075343
C   C64       1.0  0.01300  0.06420  0.71640  1.0000 -0.1169075343
C   C65       1.0  0.93580  0.98700  0.21640  1.0000 -0.1169075343
C   C66       1.0  0.98700  0.93580  0.28360  1.0000 -0.1169075343
C   C67       1.0  0.73120  0.58380  0.99340  1.0000 0.5472497421
C   C68       1.0  0.58380  0.73120  0.50660  1.0000 0.5472497421
C   C69       1.0  0.26880  0.41620  0.00660  1.0000 0.5472497421
C   C70       1.0  0.41620  0.26880  0.49340  1.0000 0.5472497421
C   C71       1.0  0.87070  0.54010  0.99750  1.0000 -0.0308891067
C   C72       1.0  0.54010  0.87070  0.50250  1.0000 -0.0308891067
C   C73       1.0  0.12930  0.45990  0.00250  1.0000 -0.0308891067
C   C74       1.0  0.45990  0.12930  0.49750  1.0000 -0.0308891067
C   C75       1.0  0.98780  0.42460  0.96520  1.0000 -0.1169075343
C   C76       1.0  0.42460  0.98780  0.53480  1.0000 -0.1169075343
C   C77       1.0  0.01220  0.57540  0.03480  1.0000 -0.1169075343
C   C78       1.0  0.57540  0.01220  0.46520  1.0000 -0.1169075343
C   C79       1.0  0.87890  0.61910  0.03190  1.0000 -0.1169075343
C   C80       1.0  0.61910  0.87890  0.46810  1.0000 -0.1169075343
C   C81       1.0  0.12110  0.38090  0.96810  1.0000 -0.1169075343
C   C82       1.0  0.38090  0.12110  0.53190  1.0000 -0.1169075343
N   N1        1.0  0.39444  0.71564  0.06310  1.0000 -0.2543774807
N   N2        1.0  0.71564  0.39444  0.43690  1.0000 -0.2543774807
N   N3        1.0  0.60556  0.28436  0.93690  1.0000 -0.262046856
N   N4        1.0  0.28436  0.60556  0.56310  1.0000 -0.2543774807
N   N5        1.0  0.35606  0.98526  0.07010  1.0000 -0.2543774807
N   N6        1.0  0.98526  0.35606  0.42990  1.0000 -0.2543774807
N   N7        1.0  0.64394  0.01474  0.92990  1.0000 -0.2543774807
N   N8        1.0  0.01474  0.64394  0.57010  1.0000 -0.2543774807
O   O1        1.0  0.41809  0.43389  0.17420  1.0000 -0.1610925941
O   O2        1.0  0.43389  0.41809  0.32580  1.0000 -0.1610925941
O   O3        1.0  0.58191  0.56611  0.82580  1.0000 -0.1610925941
O   O4        1.0  0.56611  0.58191  0.67420  1.0000 -0.1610925941
O   O5        1.0  0.28754  0.27554  0.17890  1.0000 -0.1610925941
O   O6        1.0  0.27554  0.28754  0.32110  1.0000 -0.1610925941
O   O7        1.0  0.71246  0.72446  0.82110  1.0000 -0.1610925941
O   O8        1.0  0.72446  0.71246  0.67890  1.0000 -0.1610925941
O   O9        1.0  0.30445  0.94565  0.91940  1.0000 -0.542904578
O   O10       1.0  0.94565  0.30445  0.58060  1.0000 -0.542904578
O   O11       1.0  0.69555  0.05435  0.08060  1.0000 -0.542904578
O   O12       1.0  0.05435  0.69555  0.41940  1.0000 -0.542904578
O   O13       1.0  0.15210  0.93690  0.92810  1.0000 -0.5346180273
O   O14       1.0  0.93690  0.15210  0.57190  1.0000 -0.5346180273
O   O15       1.0  0.84790  0.06310  0.07190  1.0000 -0.5346180273
O   O16       1.0  0.06310  0.84790  0.42810  1.0000 -0.5346180273
O   O17       1.0  0.62239  0.70419  0.01700  1.0000 -0.542904578
O   O18       1.0  0.70419  0.62239  0.48300  1.0000 -0.542904578
O   O19       1.0  0.37761  0.29581  0.98300  1.0000 -0.542904578
O   O20       1.0  0.29581  0.37761  0.51700  1.0000 -0.542904578
O   O21       1.0  0.73102  0.50302  0.97150  1.0000 -0.5162610335
O   O22       1.0  0.50302  0.73102  0.52850  1.0000 -0.5162610335
O   O23       1.0  0.26898  0.49698  0.02850  1.0000 -0.5162610335
O   O24       1.0  0.49698  0.26898  0.47150  1.0000 -0.5162610335
