# DDEC6 charges by PACMAN v1.1 (https://github.com/mtap-research/PACMAN-charge/)
data_2010[Cd][pcu]3[ASR]2
_chemical_formula_sum              "Cd1 H54 C78 N12"
_cell_length_a       13.9793
_cell_length_b       13.9793
_cell_length_c       13.9793
_cell_angle_alpha    100.816
_cell_angle_beta     100.816
_cell_angle_gamma    100.816

_symmetry_space_group_name_H-M    "P 1"
_symmetry_Int_Tables_number       1

loop_
  _symmetry_equiv_pos_as_xyz
  'x, y, z'

loop_
  _atom_site_type_symbol
  _atom_site_label
  _atom_site_symmetry_multiplicity
  _atom_site_fract_x
  _atom_site_fract_y
  _atom_site_fract_z
  _atom_site_occupancy
  _atom_site_charge
Cd  Cd1       1.0  0.00000  0.00000  0.00000  1.0000 0.7049915885
H   H1        1.0  0.17520  0.22360  0.06470  1.0000 0.106914405
H   H2        1.0  0.22360  0.06470  0.17520  1.0000 0.106914405
H   H3        1.0  0.06470  0.17520  0.22360  1.0000 0.106914405
H   H4        1.0  0.82480  0.93530  0.77640  1.0000 0.106914405
H   H5        1.0  0.93530  0.77640  0.82480  1.0000 0.106914405
H   H6        1.0  0.77640  0.82480  0.93530  1.0000 0.106914405
H   H7        1.0  0.82840  0.12770  0.90350  1.0000 0.121111014
H   H8        1.0  0.12770  0.90350  0.82840  1.0000 0.121111014
H   H9        1.0  0.90350  0.82840  0.12770  1.0000 0.121111014
H   H10       1.0  0.17160  0.09650  0.87230  1.0000 0.121111014
H   H11       1.0  0.09650  0.87230  0.17160  1.0000 0.121111014
H   H12       1.0  0.87230  0.17160  0.09650  1.0000 0.121111014
H   H13       1.0  0.75740  0.22580  0.80680  1.0000 0.106914405
H   H14       1.0  0.22580  0.80680  0.75740  1.0000 0.106914405
H   H15       1.0  0.80680  0.75740  0.22580  1.0000 0.106914405
H   H16       1.0  0.24260  0.19320  0.77420  1.0000 0.106914405
H   H17       1.0  0.19320  0.77420  0.24260  1.0000 0.106914405
H   H18       1.0  0.77420  0.24260  0.19320  1.0000 0.106914405
H   H19       1.0  0.85470  0.36700  0.78010  1.0000 0.106914405
H   H20       1.0  0.36700  0.78010  0.85470  1.0000 0.106914405
H   H21       1.0  0.78010  0.85470  0.36700  1.0000 0.106914405
H   H22       1.0  0.14530  0.21990  0.63300  1.0000 0.106914405
H   H23       1.0  0.21990  0.63300  0.14530  1.0000 0.106914405
H   H24       1.0  0.63300  0.14530  0.21990  1.0000 0.106914405
H   H25       1.0  0.02140  0.41760  0.85050  1.0000 0.121111014
H   H26       1.0  0.41760  0.85050  0.02140  1.0000 0.121111014
H   H27       1.0  0.85050  0.02140  0.41760  1.0000 0.121111014
H   H28       1.0  0.97860  0.14950  0.58240  1.0000 0.121111014
H   H29       1.0  0.14950  0.58240  0.97860  1.0000 0.121111014
H   H30       1.0  0.58240  0.97860  0.14950  1.0000 0.121111014
H   H31       1.0  0.26450  0.41040  0.13180  1.0000 0.121111014
H   H32       1.0  0.41040  0.13180  0.26450  1.0000 0.121111014
H   H33       1.0  0.13180  0.26450  0.41040  1.0000 0.121111014
H   H34       1.0  0.73550  0.86820  0.58960  1.0000 0.121111014
H   H35       1.0  0.86820  0.58960  0.73550  1.0000 0.121111014
H   H36       1.0  0.58960  0.73550  0.86820  1.0000 0.121111014
H   H37       1.0  0.40390  0.52940  0.13980  1.0000 0.121111014
H   H38       1.0  0.52940  0.13980  0.40390  1.0000 0.121111014
H   H39       1.0  0.13980  0.40390  0.52940  1.0000 0.121111014
H   H40       1.0  0.59610  0.86020  0.47060  1.0000 0.121111014
H   H41       1.0  0.86020  0.47060  0.59610  1.0000 0.121111014
H   H42       1.0  0.47060  0.59610  0.86020  1.0000 0.121111014
H   H43       1.0  0.32140  0.50930  0.84790  1.0000 0.106914405
H   H44       1.0  0.50930  0.84790  0.32140  1.0000 0.106914405
H   H45       1.0  0.84790  0.32140  0.50930  1.0000 0.106914405
H   H46       1.0  0.67860  0.15210  0.49070  1.0000 0.106914405
H   H47       1.0  0.15210  0.49070  0.67860  1.0000 0.106914405
H   H48       1.0  0.49070  0.67860  0.15210  1.0000 0.106914405
H   H49       1.0  0.18570  0.38400  0.83440  1.0000 0.121111014
H   H50       1.0  0.38400  0.83440  0.18570  1.0000 0.121111014
H   H51       1.0  0.83440  0.18570  0.38400  1.0000 0.121111014
H   H52       1.0  0.81430  0.16560  0.61600  1.0000 0.121111014
H   H53       1.0  0.16560  0.61600  0.81430  1.0000 0.121111014
H   H54       1.0  0.61600  0.81430  0.16560  1.0000 0.121111014
C   C1        1.0  0.11960  0.23320  0.02250  1.0000 0.0598959359
C   C2        1.0  0.23320  0.02250  0.11960  1.0000 0.0598959359
C   C3        1.0  0.02250  0.11960  0.23320  1.0000 0.0598959359
C   C4        1.0  0.88040  0.97750  0.76680  1.0000 0.0598959359
C   C5        1.0  0.97750  0.76680  0.88040  1.0000 0.0598959359
C   C6        1.0  0.76680  0.88040  0.97750  1.0000 0.0598959359
C   C7        1.0  0.96910  0.21700  0.93960  1.0000 0.1323587294
C   C8        1.0  0.21700  0.93960  0.96910  1.0000 0.1323587294
C   C9        1.0  0.93960  0.96910  0.21700  1.0000 0.1323587294
C   C10       1.0  0.03090  0.06040  0.78300  1.0000 0.1323587294
C   C11       1.0  0.06040  0.78300  0.03090  1.0000 0.1323587294
C   C12       1.0  0.78300  0.03090  0.06040  1.0000 0.1323587294
C   C13       1.0  0.86720  0.18570  0.89460  1.0000 -0.1808944448
C   C14       1.0  0.18570  0.89460  0.86720  1.0000 -0.1808944448
C   C15       1.0  0.89460  0.86720  0.18570  1.0000 -0.1808944448
C   C16       1.0  0.13280  0.10540  0.81430  1.0000 -0.1808944448
C   C17       1.0  0.10540  0.81430  0.13280  1.0000 -0.1808944448
C   C18       1.0  0.81430  0.13280  0.10540  1.0000 -0.1808944448
C   C19       1.0  0.82550  0.24390  0.83610  1.0000 -0.1287387514
C   C20       1.0  0.24390  0.83610  0.82550  1.0000 -0.1287387514
C   C21       1.0  0.83610  0.82550  0.24390  1.0000 -0.1287387514
C   C22       1.0  0.17450  0.16390  0.75610  1.0000 -0.1287387514
C   C23       1.0  0.16390  0.75610  0.17450  1.0000 -0.1287387514
C   C24       1.0  0.75610  0.17450  0.16390  1.0000 -0.1287387514
C   C25       1.0  0.88470  0.33000  0.82040  1.0000 -0.1187947372
C   C26       1.0  0.33000  0.82040  0.88470  1.0000 -0.1187947372
C   C27       1.0  0.82040  0.88470  0.33000  1.0000 -0.1187947372
C   C28       1.0  0.11530  0.17960  0.67000  1.0000 -0.1187947372
C   C29       1.0  0.17960  0.67000  0.11530  1.0000 -0.1187947372
C   C30       1.0  0.67000  0.11530  0.17960  1.0000 -0.1187947372
C   C31       1.0  0.98330  0.36020  0.86140  1.0000 -0.1969593793
C   C32       1.0  0.36020  0.86140  0.98330  1.0000 -0.1969593793
C   C33       1.0  0.86140  0.98330  0.36020  1.0000 -0.1969593793
C   C34       1.0  0.01670  0.13860  0.63980  1.0000 -0.1969593793
C   C35       1.0  0.13860  0.63980  0.01670  1.0000 -0.1969593793
C   C36       1.0  0.63980  0.01670  0.13860  1.0000 -0.1969593793
C   C37       1.0  0.02740  0.30250  0.92150  1.0000 0.0993582701
C   C38       1.0  0.30250  0.92150  0.02740  1.0000 0.0993582701
C   C39       1.0  0.92150  0.02740  0.30250  1.0000 0.0993582701
C   C40       1.0  0.97260  0.07850  0.69750  1.0000 0.0993582701
C   C41       1.0  0.07850  0.69750  0.97260  1.0000 0.0993582701
C   C42       1.0  0.69750  0.97260  0.07850  1.0000 0.0993582701
C   C43       1.0  0.20830  0.38570  0.98170  1.0000 0.1589606052
C   C44       1.0  0.38570  0.98170  0.20830  1.0000 0.1589606052
C   C45       1.0  0.98170  0.20830  0.38570  1.0000 0.1589606052
C   C46       1.0  0.79170  0.01830  0.61430  1.0000 0.1589606052
C   C47       1.0  0.01830  0.61430  0.79170  1.0000 0.1589606052
C   C48       1.0  0.61430  0.79170  0.01830  1.0000 0.1589606052
C   C49       1.0  0.27590  0.43000  0.07410  1.0000 -0.1865491624
C   C50       1.0  0.43000  0.07410  0.27590  1.0000 -0.1865491624
C   C51       1.0  0.07410  0.27590  0.43000  1.0000 -0.1865491624
C   C52       1.0  0.72410  0.92590  0.57000  1.0000 -0.1865491624
C   C53       1.0  0.92590  0.57000  0.72410  1.0000 -0.1865491624
C   C54       1.0  0.57000  0.72410  0.92590  1.0000 -0.1865491624
C   C55       1.0  0.35850  0.50250  0.07860  1.0000 -0.1412418079
C   C56       1.0  0.50250  0.07860  0.35850  1.0000 -0.1412418079
C   C57       1.0  0.07860  0.35850  0.50250  1.0000 -0.1412418079
C   C58       1.0  0.64150  0.92140  0.49750  1.0000 -0.1412418079
C   C59       1.0  0.92140  0.49750  0.64150  1.0000 -0.1412418079
C   C60       1.0  0.49750  0.64150  0.92140  1.0000 -0.1412418079
C   C61       1.0  0.37740  0.53750  0.99680  1.0000 0.0598959359
C   C62       1.0  0.53750  0.99680  0.37740  1.0000 0.0598959359
C   C63       1.0  0.99680  0.37740  0.53750  1.0000 0.0598959359
C   C64       1.0  0.62260  0.00320  0.46250  1.0000 0.0598959359
C   C65       1.0  0.00320  0.46250  0.62260  1.0000 0.0598959359
C   C66       1.0  0.46250  0.62260  0.00320  1.0000 0.0598959359
C   C67       1.0  0.30980  0.48950  0.90540  1.0000 -0.1412418079
C   C68       1.0  0.48950  0.90540  0.30980  1.0000 -0.1412418079
C   C69       1.0  0.90540  0.30980  0.48950  1.0000 -0.1412418079
C   C70       1.0  0.69020  0.09460  0.51050  1.0000 -0.1412418079
C   C71       1.0  0.09460  0.51050  0.69020  1.0000 -0.1412418079
C   C72       1.0  0.51050  0.69020  0.09460  1.0000 -0.1412418079
C   C73       1.0  0.22790  0.41480  0.89670  1.0000 -0.1670361215
C   C74       1.0  0.41480  0.89670  0.22790  1.0000 -0.1670361215
C   C75       1.0  0.89670  0.22790  0.41480  1.0000 -0.1670361215
C   C76       1.0  0.77210  0.10330  0.58520  1.0000 -0.1670361215
C   C77       1.0  0.10330  0.58520  0.77210  1.0000 -0.1670361215
C   C78       1.0  0.58520  0.77210  0.10330  1.0000 -0.1670361215
N   N1        1.0  0.02870  0.17410  0.00150  1.0000 -0.3514188135
N   N2        1.0  0.17410  0.00150  0.02870  1.0000 -0.3514188135
N   N3        1.0  0.00150  0.02870  0.17410  1.0000 -0.3514188135
N   N4        1.0  0.97130  0.99850  0.82590  1.0000 -0.3514188135
N   N5        1.0  0.99850  0.82590  0.97130  1.0000 -0.3514188135
N   N6        1.0  0.82590  0.97130  0.99850  1.0000 -0.3514188135
N   N7        1.0  0.12180  0.31080  0.97420  1.0000 -0.0483057385
N   N8        1.0  0.31080  0.97420  0.12180  1.0000 -0.0483057385
N   N9        1.0  0.97420  0.12180  0.31080  1.0000 -0.0483057385
N   N10       1.0  0.87820  0.02580  0.68920  1.0000 -0.0483057385
N   N11       1.0  0.02580  0.68920  0.87820  1.0000 -0.0483057385
N   N12       1.0  0.68920  0.87820  0.02580  1.0000 -0.0483057385
