# DDEC6 charges by PACMAN v1.1 (https://github.com/mtap-research/PACMAN-charge/)
data_2010[Zn][scu]3[ASR]1
_chemical_formula_sum              "Zn10 H36 C68 O36"
_cell_length_a       9.8397
_cell_length_b       8.629
_cell_length_c       26.7383
_cell_angle_alpha    90
_cell_angle_beta     111.079
_cell_angle_gamma    90

_symmetry_space_group_name_H-M    "P 1"
_symmetry_Int_Tables_number       1

loop_
  _symmetry_equiv_pos_as_xyz
  'x, y, z'

loop_
  _atom_site_type_symbol
  _atom_site_label
  _atom_site_symmetry_multiplicity
  _atom_site_fract_x
  _atom_site_fract_y
  _atom_site_fract_z
  _atom_site_occupancy
  _atom_site_charge
Zn  Zn1       1.0  0.71144  0.79942  0.39875  1.0000 0.9503639418
Zn  Zn2       1.0  0.28856  0.29942  0.10125  1.0000 0.9503639418
Zn  Zn3       1.0  0.28856  0.20058  0.60125  1.0000 0.9503639418
Zn  Zn4       1.0  0.71144  0.70058  0.89875  1.0000 0.9503639418
Zn  Zn5       1.0  0.31156  0.68513  0.07862  1.0000 0.9503639418
Zn  Zn6       1.0  0.68844  0.18513  0.42138  1.0000 0.9503639418
Zn  Zn7       1.0  0.68844  0.31487  0.92138  1.0000 0.9503639418
Zn  Zn8       1.0  0.31156  0.81487  0.57862  1.0000 0.9503639418
Zn  Zn9       1.0  0.00000  0.50000  0.00000  1.0000 1.0338101688
Zn  Zn10      1.0  0.00000  0.00000  0.50000  1.0000 1.0338101688
H   H1        1.0  0.76050  0.73450  0.07090  1.0000 0.1236907992
H   H2        1.0  0.23950  0.23450  0.42910  1.0000 0.1236907992
H   H3        1.0  0.23950  0.26550  0.92910  1.0000 0.1236907992
H   H4        1.0  0.76050  0.76550  0.57090  1.0000 0.1236907992
H   H5        1.0  0.72400  0.02760  0.18230  1.0000 0.1298481844
H   H6        1.0  0.27600  0.52760  0.31770  1.0000 0.1298481844
H   H7        1.0  0.27600  0.97240  0.81770  1.0000 0.1298481844
H   H8        1.0  0.72400  0.47240  0.68230  1.0000 0.1298481844
H   H9        1.0  0.11130  0.97810  0.16470  1.0000 0.1298481844
H   H10       1.0  0.88870  0.47810  0.33530  1.0000 0.1298481844
H   H11       1.0  0.88870  0.02190  0.83530  1.0000 0.1298481844
H   H12       1.0  0.11130  0.52190  0.66470  1.0000 0.1298481844
H   H13       1.0  0.06920  0.20550  0.21510  1.0000 0.1298481844
H   H14       1.0  0.93080  0.70550  0.28490  1.0000 0.1298481844
H   H15       1.0  0.93080  0.79450  0.78490  1.0000 0.1298481844
H   H16       1.0  0.06920  0.29450  0.71510  1.0000 0.1298481844
H   H17       1.0  0.92430  0.21180  0.22700  1.0000 0.1298481844
H   H18       1.0  0.07570  0.71180  0.27300  1.0000 0.1298481844
H   H19       1.0  0.07570  0.78820  0.77300  1.0000 0.1298481844
H   H20       1.0  0.92430  0.28820  0.72700  1.0000 0.1298481844
H   H21       1.0  0.90280  0.04200  0.29890  1.0000 0.1393811838
H   H22       1.0  0.09720  0.54200  0.20110  1.0000 0.1393811838
H   H23       1.0  0.09720  0.95800  0.70110  1.0000 0.1393811838
H   H24       1.0  0.90280  0.45800  0.79890  1.0000 0.1393811838
H   H25       1.0  0.25980  0.85710  0.40680  1.0000 0.1393811838
H   H26       1.0  0.74020  0.35710  0.09320  1.0000 0.1393811838
H   H27       1.0  0.74020  0.14290  0.59320  1.0000 0.1393811838
H   H28       1.0  0.25980  0.64290  0.90680  1.0000 0.1393811838
H   H29       1.0  0.27810  0.06780  0.27410  1.0000 0.1393811838
H   H30       1.0  0.72190  0.56780  0.22590  1.0000 0.1393811838
H   H31       1.0  0.72190  0.93220  0.72590  1.0000 0.1393811838
H   H32       1.0  0.27810  0.43220  0.77410  1.0000 0.1393811838
H   H33       1.0  0.26190  0.46970  0.01970  1.0000 0.4030161801
H   H34       1.0  0.73810  0.96970  0.48030  1.0000 0.4030161801
H   H35       1.0  0.73810  0.53030  0.98030  1.0000 0.4030161801
H   H36       1.0  0.26190  0.03030  0.51970  1.0000 0.4030161801
C   C1        1.0  0.95416  0.84450  0.11456  1.0000 -0.0085169679
C   C2        1.0  0.04584  0.34450  0.38544  1.0000 -0.0085169679
C   C3        1.0  0.04584  0.15550  0.88544  1.0000 -0.0085169679
C   C4        1.0  0.95416  0.65550  0.61456  1.0000 -0.0085169679
C   C5        1.0  0.80320  0.80380  0.09880  1.0000 -0.1302825824
C   C6        1.0  0.19680  0.30380  0.40120  1.0000 -0.1302825824
C   C7        1.0  0.19680  0.19620  0.90120  1.0000 -0.1302825824
C   C8        1.0  0.80320  0.69620  0.59880  1.0000 -0.1302825824
C   C9        1.0  0.72226  0.87120  0.12666  1.0000 -0.0085169679
C   C10       1.0  0.27774  0.37120  0.37334  1.0000 -0.0085169679
C   C11       1.0  0.27774  0.12880  0.87334  1.0000 -0.0085169679
C   C12       1.0  0.72226  0.62880  0.62666  1.0000 -0.0085169679
C   C13       1.0  0.78137  0.98160  0.16537  1.0000 -0.1617435363
C   C14       1.0  0.21863  0.48160  0.33463  1.0000 -0.1617435363
C   C15       1.0  0.21863  0.01840  0.83463  1.0000 -0.1617435363
C   C16       1.0  0.78137  0.51840  0.66537  1.0000 -0.1617435363
C   C17       1.0  0.93066  0.02630  0.17986  1.0000 0.1454581324
C   C18       1.0  0.06934  0.52630  0.32014  1.0000 0.1454581324
C   C19       1.0  0.06934  0.97370  0.82014  1.0000 0.1393811838
C   C20       1.0  0.93066  0.47370  0.67986  1.0000 0.1393811838
C   C21       1.0  0.01303  0.95330  0.15453  1.0000 -0.1751275506
C   C22       1.0  0.98697  0.45330  0.34547  1.0000 -0.1751275506
C   C23       1.0  0.98697  0.04670  0.84547  1.0000 -0.1751275506
C   C24       1.0  0.01303  0.54670  0.65453  1.0000 -0.1751275506
C   C25       1.0  0.99918  0.14310  0.22408  1.0000 -0.3328047391
C   C26       1.0  0.00082  0.64310  0.27592  1.0000 -0.3328047391
C   C27       1.0  0.00082  0.85690  0.77592  1.0000 -0.3328047391
C   C28       1.0  0.99918  0.35690  0.72408  1.0000 -0.3328047391
C   C29       1.0  0.07555  0.06250  0.27785  1.0000 0.1393811838
C   C30       1.0  0.92445  0.56250  0.22215  1.0000 0.1393811838
C   C31       1.0  0.92445  0.93750  0.72215  1.0000 0.1393811838
C   C32       1.0  0.07555  0.43750  0.77785  1.0000 0.1393811838
C   C33       1.0  0.00161  0.01940  0.30991  1.0000 -0.1686994058
C   C34       1.0  0.99839  0.51940  0.19009  1.0000 -0.1686994058
C   C35       1.0  0.99839  0.98060  0.69009  1.0000 -0.1686994058
C   C36       1.0  0.00161  0.48060  0.80991  1.0000 -0.1686994058
C   C37       1.0  0.06690  0.94370  0.35800  1.0000 -0.0194644357
C   C38       1.0  0.93310  0.44370  0.14200  1.0000 -0.0194644357
C   C39       1.0  0.93310  0.05630  0.64200  1.0000 -0.0194644357
C   C40       1.0  0.06690  0.55630  0.85800  1.0000 -0.0194644357
C   C41       1.0  0.21417  0.90940  0.37467  1.0000 -0.1302825824
C   C42       1.0  0.78583  0.40940  0.12533  1.0000 -0.1302825824
C   C43       1.0  0.78583  0.09060  0.62533  1.0000 -0.1302825824
C   C44       1.0  0.21417  0.59060  0.87467  1.0000 -0.1302825824
C   C45       1.0  0.29385  0.95390  0.34305  1.0000 0.0031671932
C   C46       1.0  0.70615  0.45390  0.15695  1.0000 0.0031671932
C   C47       1.0  0.70615  0.04610  0.65695  1.0000 0.0031671932
C   C48       1.0  0.29385  0.54610  0.84305  1.0000 0.0031671932
C   C49       1.0  0.22486  0.03420  0.29456  1.0000 -0.1686994058
C   C50       1.0  0.77514  0.53420  0.20544  1.0000 -0.1686994058
C   C51       1.0  0.77514  0.96580  0.70544  1.0000 -0.1686994058
C   C52       1.0  0.22486  0.46580  0.79456  1.0000 -0.1686994058
C   C53       1.0  0.04848  0.76240  0.08918  1.0000 0.5819717575
C   C54       1.0  0.95152  0.26240  0.41082  1.0000 0.5819717575
C   C55       1.0  0.95152  0.23760  0.91082  1.0000 0.5819717575
C   C56       1.0  0.04848  0.73760  0.58918  1.0000 0.5819717575
C   C57       1.0  0.56555  0.82450  0.11255  1.0000 0.5519876781
C   C58       1.0  0.43445  0.32450  0.38745  1.0000 0.5519876781
C   C59       1.0  0.43445  0.17550  0.88745  1.0000 0.5519876781
C   C60       1.0  0.56555  0.67550  0.61255  1.0000 0.5519876781
C   C61       1.0  0.97927  0.89430  0.39147  1.0000 0.5819717575
C   C62       1.0  0.02073  0.39430  0.10853  1.0000 0.5819717575
C   C63       1.0  0.02073  0.10570  0.60853  1.0000 0.5819717575
C   C64       1.0  0.97927  0.60570  0.89147  1.0000 0.5819717575
C   C65       1.0  0.45276  0.91690  0.36196  1.0000 0.5567856136
C   C66       1.0  0.54724  0.41690  0.13804  1.0000 0.5567856136
C   C67       1.0  0.54724  0.08310  0.63804  1.0000 0.5567856136
C   C68       1.0  0.45276  0.58310  0.86196  1.0000 0.5567856136
O   O1        1.0  0.18015  0.76220  0.11345  1.0000 -0.5070635375
O   O2        1.0  0.81985  0.26220  0.38655  1.0000 -0.5070635375
O   O3        1.0  0.81985  0.23780  0.88655  1.0000 -0.5070635375
O   O4        1.0  0.18015  0.73780  0.61345  1.0000 -0.5070635375
O   O5        1.0  0.98159  0.70750  0.04199  1.0000 -0.6031464037
O   O6        1.0  0.01841  0.20750  0.45801  1.0000 -0.6031464037
O   O7        1.0  0.01841  0.29250  0.95801  1.0000 -0.6031464037
O   O8        1.0  0.98159  0.79250  0.54199  1.0000 -0.6031464037
O   O9        1.0  0.51497  0.70920  0.08047  1.0000 -0.5566026565
O   O10       1.0  0.48503  0.20920  0.41953  1.0000 -0.5566026565
O   O11       1.0  0.48503  0.29080  0.91953  1.0000 -0.5566026565
O   O12       1.0  0.51497  0.79080  0.58047  1.0000 -0.5566026565
O   O13       1.0  0.48908  0.88340  0.13418  1.0000 -0.502893306
O   O14       1.0  0.51092  0.38340  0.36582  1.0000 -0.502893306
O   O15       1.0  0.51092  0.11660  0.86582  1.0000 -0.502893306
O   O16       1.0  0.48908  0.61660  0.63418  1.0000 -0.502893306
O   O17       1.0  0.84360  0.87700  0.36520  1.0000 -0.5374789466
O   O18       1.0  0.15640  0.37700  0.13480  1.0000 -0.5374789466
O   O19       1.0  0.15640  0.12300  0.63480  1.0000 -0.5374789466
O   O20       1.0  0.84360  0.62300  0.86520  1.0000 -0.5374789466
O   O21       1.0  0.04154  0.86900  0.43934  1.0000 -0.5374789466
O   O22       1.0  0.95846  0.36900  0.06066  1.0000 -0.5340546664
O   O23       1.0  0.95846  0.13100  0.56066  1.0000 -0.5340546664
O   O24       1.0  0.04154  0.63100  0.93934  1.0000 -0.5340546664
O   O25       1.0  0.50246  0.81440  0.39816  1.0000 -0.5374789466
O   O26       1.0  0.49754  0.31440  0.10184  1.0000 -0.5374789466
O   O27       1.0  0.49754  0.18560  0.60184  1.0000 -0.5374789466
O   O28       1.0  0.50246  0.68560  0.89816  1.0000 -0.5374789466
O   O29       1.0  0.53504  0.98900  0.34484  1.0000 -0.5224854794
O   O30       1.0  0.46496  0.48900  0.15516  1.0000 -0.5224854794
O   O31       1.0  0.46496  0.01100  0.65516  1.0000 -0.5224854794
O   O32       1.0  0.53504  0.51100  0.84484  1.0000 -0.5224854794
O   O33       1.0  0.22272  0.48880  0.04252  1.0000 -0.8333628919
O   O34       1.0  0.77728  0.98880  0.45748  1.0000 -0.8333628919
O   O35       1.0  0.77728  0.51120  0.95748  1.0000 -0.8333628919
O   O36       1.0  0.22272  0.01120  0.54252  1.0000 -0.8333628919
