# DDEC6 charges by PACMAN v1.1 (https://github.com/mtap-research/PACMAN-charge/)
data_2010[Pr][sxb]3[ASR]1
_chemical_formula_sum              "Pr8 H72 C168 S12 O72"
_cell_length_a       19.0332
_cell_length_b       19.0332
_cell_length_c       30.3411
_cell_angle_alpha    83.1761
_cell_angle_beta     96.8239
_cell_angle_gamma    133.799

_symmetry_space_group_name_H-M    "P 1"
_symmetry_Int_Tables_number       1

loop_
  _symmetry_equiv_pos_as_xyz
  'x, y, z'

loop_
  _atom_site_type_symbol
  _atom_site_label
  _atom_site_symmetry_multiplicity
  _atom_site_fract_x
  _atom_site_fract_y
  _atom_site_fract_z
  _atom_site_occupancy
  _atom_site_charge
Pr  Pr1       1.0  0.62425  0.45386  0.34165  1.0000 2.0765981577
Pr  Pr2       1.0  0.54614  0.37575  0.84165  1.0000 2.0765981577
Pr  Pr3       1.0  0.62152  0.20794  0.85550  1.0000 2.1113066576
Pr  Pr4       1.0  0.79206  0.37848  0.35550  1.0000 2.1113066576
Pr  Pr5       1.0  0.45386  0.62425  0.15835  1.0000 2.0765981577
Pr  Pr6       1.0  0.37575  0.54614  0.65835  1.0000 2.0765981577
Pr  Pr7       1.0  0.20794  0.62152  0.64450  1.0000 2.1113066576
Pr  Pr8       1.0  0.37848  0.79206  0.14450  1.0000 2.1113066576
H   H1        1.0  0.63181  0.70000  0.26360  1.0000 0.1299222064
H   H2        1.0  0.30000  0.36820  0.76360  1.0000 0.1299222064
H   H3        1.0  0.76291  0.09870  0.39610  1.0000 0.1385999597
H   H4        1.0  0.90130  0.23710  0.89610  1.0000 0.1385999597
H   H5        1.0  0.03751  0.66390  0.35430  1.0000 0.1299222064
H   H6        1.0  0.33610  0.96249  0.85430  1.0000 0.1299222064
H   H7        1.0  0.67081  0.72920  0.39670  1.0000 0.1453028465
H   H8        1.0  0.27080  0.32920  0.89670  1.0000 0.1453028465
H   H9        1.0  0.69741  0.99600  0.25160  1.0000 0.1145865894
H   H10       1.0  0.00400  0.30260  0.75160  1.0000 0.1145865894
H   H11       1.0  0.66081  0.84040  0.25170  1.0000 0.1211775406
H   H12       1.0  0.15960  0.33920  0.75170  1.0000 0.1211775406
H   H13       1.0  0.76331  0.36310  0.98540  1.0000 0.1211775406
H   H14       1.0  0.63690  0.23669  0.48540  1.0000 0.1211775406
H   H15       1.0  0.60340  0.41400  0.18860  1.0000 0.1385999597
H   H16       1.0  0.58600  0.39659  0.68860  1.0000 0.1385999597
H   H17       1.0  0.54491  0.35050  0.99460  1.0000 0.1453028465
H   H18       1.0  0.64950  0.45510  0.49460  1.0000 0.1453028465
H   H19       1.0  0.73530  0.13770  0.26320  1.0000 0.1299222064
H   H20       1.0  0.86230  0.26470  0.76320  1.0000 0.1299222064
H   H21       1.0  0.82010  0.41270  0.05760  1.0000 0.1211775406
H   H22       1.0  0.58730  0.17989  0.55760  1.0000 0.1211775406
H   H23       1.0  0.45850  0.03350  0.36150  1.0000 0.1385999597
H   H24       1.0  0.96650  0.54150  0.86150  1.0000 0.1385999597
H   H25       1.0  0.83771  0.44790  0.21320  1.0000 0.1211775406
H   H26       1.0  0.55210  0.16229  0.71320  1.0000 0.1211775406
H   H27       1.0  0.84630  0.44250  0.13820  1.0000 0.1211775406
H   H28       1.0  0.55750  0.15370  0.63820  1.0000 0.1211775406
H   H29       1.0  0.42151  0.22110  0.34490  1.0000 0.1026584333
H   H30       1.0  0.77890  0.57849  0.84490  1.0000 0.1026584333
H   H31       1.0  0.25400  0.09220  0.34390  1.0000 0.1211775406
H   H32       1.0  0.90780  0.74599  0.84390  1.0000 0.1211775406
H   H33       1.0  0.92421  0.78360  0.33750  1.0000 0.1385999597
H   H34       1.0  0.21640  0.07580  0.83750  1.0000 0.1385999597
H   H35       1.0  0.07861  0.93800  0.33820  1.0000 0.1211775406
H   H36       1.0  0.06200  0.92140  0.83820  1.0000 0.1211775406
H   H37       1.0  0.70000  0.63181  0.23640  1.0000 0.1299222064
H   H38       1.0  0.36820  0.30000  0.73640  1.0000 0.1299222064
H   H39       1.0  0.09870  0.76291  0.10390  1.0000 0.1385999597
H   H40       1.0  0.23710  0.90130  0.60390  1.0000 0.1385999597
H   H41       1.0  0.66390  0.03751  0.14570  1.0000 0.1299222064
H   H42       1.0  0.96250  0.33610  0.64570  1.0000 0.1299222064
H   H43       1.0  0.72920  0.67080  0.10330  1.0000 0.1453028465
H   H44       1.0  0.32920  0.27080  0.60330  1.0000 0.1453028465
H   H45       1.0  0.99600  0.69741  0.24840  1.0000 0.1145865894
H   H46       1.0  0.30260  0.00400  0.74840  1.0000 0.1145865894
H   H47       1.0  0.84040  0.66081  0.24830  1.0000 0.1211775406
H   H48       1.0  0.33920  0.15960  0.74830  1.0000 0.1211775406
H   H49       1.0  0.36310  0.76331  0.51460  1.0000 0.1211775406
H   H50       1.0  0.23670  0.63690  0.01460  1.0000 0.1211775406
H   H51       1.0  0.41400  0.60341  0.31140  1.0000 0.1385999597
H   H52       1.0  0.39660  0.58600  0.81140  1.0000 0.1385999597
H   H53       1.0  0.35050  0.54490  0.50540  1.0000 0.1453028465
H   H54       1.0  0.45510  0.64950  0.00540  1.0000 0.1453028465
H   H55       1.0  0.13770  0.73530  0.23680  1.0000 0.1299222064
H   H56       1.0  0.26470  0.86230  0.73680  1.0000 0.1299222064
H   H57       1.0  0.41270  0.82010  0.44240  1.0000 0.1211775406
H   H58       1.0  0.17989  0.58730  0.94240  1.0000 0.1211775406
H   H59       1.0  0.03350  0.45851  0.13850  1.0000 0.1385999597
H   H60       1.0  0.54149  0.96650  0.63850  1.0000 0.1385999597
H   H61       1.0  0.44790  0.83771  0.28680  1.0000 0.1211775406
H   H62       1.0  0.16229  0.55210  0.78680  1.0000 0.1211775406
H   H63       1.0  0.44250  0.84630  0.36180  1.0000 0.1211775406
H   H64       1.0  0.15369  0.55750  0.86180  1.0000 0.1211775406
H   H65       1.0  0.22110  0.42151  0.15510  1.0000 0.1026584333
H   H66       1.0  0.57850  0.77890  0.65510  1.0000 0.1026584333
H   H67       1.0  0.09220  0.25400  0.15610  1.0000 0.1211775406
H   H68       1.0  0.74599  0.90780  0.65610  1.0000 0.1211775406
H   H69       1.0  0.78360  0.92421  0.16250  1.0000 0.1385999597
H   H70       1.0  0.07580  0.21640  0.66250  1.0000 0.1385999597
H   H71       1.0  0.93800  0.07861  0.16180  1.0000 0.1211775406
H   H72       1.0  0.92139  0.06200  0.66180  1.0000 0.1211775406
C   C1        1.0  0.64575  0.73446  0.28779  1.0000 -0.090701511
C   C2        1.0  0.26554  0.35425  0.78779  1.0000 -0.090701511
C   C3        1.0  0.63104  0.60997  0.33763  1.0000 0.5680229268
C   C4        1.0  0.39003  0.36896  0.83763  1.0000 0.5680229268
C   C5        1.0  0.74938  0.07842  0.36734  1.0000 -0.1089863567
C   C6        1.0  0.92158  0.25061  0.86734  1.0000 -0.1089863567
C   C7        1.0  0.72487  0.41734  0.11895  1.0000 0.0574640422
C   C8        1.0  0.58266  0.27514  0.61895  1.0000 0.0574640422
C   C9        1.0  0.71040  0.40120  0.07086  1.0000 0.0574640422
C   C10       1.0  0.59880  0.28960  0.57086  1.0000 0.0574640422
C   C11       1.0  0.68417  0.87023  0.31684  1.0000 0.0413592602
C   C12       1.0  0.12977  0.31583  0.81684  1.0000 0.0413592602
C   C13       1.0  0.04479  0.71782  0.35118  1.0000 -0.1179895406
C   C14       1.0  0.28218  0.95522  0.85118  1.0000 -0.1179895406
C   C15       1.0  0.64879  0.70022  0.33095  1.0000 0.0140406597
C   C16       1.0  0.29978  0.35122  0.83095  1.0000 0.0140406597
C   C17       1.0  0.45761  0.14059  0.35205  1.0000 -0.0145572093
C   C18       1.0  0.85941  0.54239  0.85205  1.0000 -0.0145572093
C   C19       1.0  0.66900  0.75100  0.36787  1.0000 -0.0807317221
C   C20       1.0  0.24900  0.33099  0.86787  1.0000 -0.0807317221
C   C21       1.0  0.64745  0.34936  0.98280  1.0000 -0.0292710285
C   C22       1.0  0.65064  0.35256  0.48280  1.0000 -0.0292710285
C   C23       1.0  0.72013  0.43148  0.20861  1.0000 -0.0292710285
C   C24       1.0  0.56852  0.27987  0.70861  1.0000 -0.0292710285
C   C25       1.0  0.71893  0.43588  0.25760  1.0000 0.6481259963
C   C26       1.0  0.56412  0.28108  0.75760  1.0000 0.6481259963
C   C27       1.0  0.78029  0.22631  0.33727  1.0000 0.5680229268
C   C28       1.0  0.77369  0.21971  0.83727  1.0000 0.5680229268
C   C29       1.0  0.61189  0.31372  0.93685  1.0000 0.6481259963
C   C30       1.0  0.68628  0.38811  0.43685  1.0000 0.6481259963
C   C31       1.0  0.70990  0.01611  0.28028  1.0000 -0.1399589651
C   C32       1.0  0.98389  0.29011  0.78028  1.0000 -0.1399589651
C   C33       1.0  0.68600  0.83461  0.35960  1.0000 -0.090701511
C   C34       1.0  0.16539  0.31400  0.85960  1.0000 -0.090701511
C   C35       1.0  0.86167  0.60934  0.34736  1.0000 0.6352714203
C   C36       1.0  0.39066  0.13834  0.84736  1.0000 0.6352714203
C   C37       1.0  0.96465  0.70676  0.34646  1.0000 -0.0244963602
C   C38       1.0  0.29324  0.03536  0.84646  1.0000 -0.0244963602
C   C39       1.0  0.66317  0.81864  0.28047  1.0000 -0.1305615608
C   C40       1.0  0.18136  0.33683  0.78047  1.0000 -0.1305615608
C   C41       1.0  0.73013  0.36908  0.00225  1.0000 -0.0807317221
C   C42       1.0  0.63092  0.26987  0.50225  1.0000 -0.0807317221
C   C43       1.0  0.65074  0.41787  0.17903  1.0000 -0.1012336511
C   C44       1.0  0.58213  0.34926  0.67903  1.0000 -0.1012336511
C   C45       1.0  0.75350  0.13310  0.33050  1.0000 0.0224636584
C   C46       1.0  0.86690  0.24649  0.83050  1.0000 0.0224636584
C   C47       1.0  0.62889  0.38251  0.05152  1.0000 -0.0696971775
C   C48       1.0  0.61749  0.37111  0.55152  1.0000 -0.0696971775
C   C49       1.0  0.13747  0.81253  0.35118  1.0000 -0.090701511
C   C50       1.0  0.18747  0.86252  0.85118  1.0000 -0.090701511
C   C51       1.0  0.31733  0.97088  0.35525  1.0000 -0.090701511
C   C52       1.0  0.02912  0.68268  0.85525  1.0000 -0.090701511
C   C53       1.0  0.56534  0.22559  0.35091  1.0000 0.6262380383
C   C54       1.0  0.77441  0.43467  0.85091  1.0000 0.6262380383
C   C55       1.0  0.65424  0.41016  0.13468  1.0000 -0.090701511
C   C56       1.0  0.58984  0.34575  0.63468  1.0000 -0.090701511
C   C57       1.0  0.59729  0.35912  0.00727  1.0000 -0.1012336511
C   C58       1.0  0.64088  0.40272  0.50727  1.0000 -0.1012336511
C   C59       1.0  0.73313  0.10128  0.28734  1.0000 -0.0807317221
C   C60       1.0  0.89872  0.26687  0.78734  1.0000 -0.0807317221
C   C61       1.0  0.76370  0.39711  0.04569  1.0000 -0.1089863567
C   C62       1.0  0.60289  0.23630  0.54569  1.0000 -0.1089863567
C   C63       1.0  0.70542  0.96122  0.31656  1.0000 0.0413592602
C   C64       1.0  0.03878  0.29458  0.81656  1.0000 0.0413592602
C   C65       1.0  0.72474  0.99347  0.35939  1.0000 -0.1012336511
C   C66       1.0  0.00653  0.27526  0.85939  1.0000 -0.1012336511
C   C67       1.0  0.41891  0.04610  0.35710  1.0000 -0.1012336511
C   C68       1.0  0.95390  0.58110  0.85710  1.0000 -0.1012336511
C   C69       1.0  0.79177  0.43924  0.19291  1.0000 -0.0807317221
C   C70       1.0  0.56076  0.20824  0.69291  1.0000 -0.0807317221
C   C71       1.0  0.25532  0.98649  0.34919  1.0000 0.0413592602
C   C72       1.0  0.01351  0.74469  0.84919  1.0000 0.0413592602
C   C73       1.0  0.79670  0.43451  0.14820  1.0000 -0.1179895406
C   C74       1.0  0.56549  0.20331  0.64820  1.0000 -0.1179895406
C   C75       1.0  0.15044  0.89457  0.34669  1.0000 0.0413592602
C   C76       1.0  0.10543  0.84957  0.84669  1.0000 0.0413592602
C   C77       1.0  0.39476  0.15745  0.34740  1.0000 -0.1012336511
C   C78       1.0  0.84255  0.60525  0.84740  1.0000 -0.1012336511
C   C79       1.0  0.29445  0.08056  0.34640  1.0000 -0.1305615608
C   C80       1.0  0.91944  0.70556  0.84640  1.0000 -0.1305615608
C   C81       1.0  0.97827  0.79114  0.34120  1.0000 -0.090701511
C   C82       1.0  0.20886  0.02174  0.84120  1.0000 -0.090701511
C   C83       1.0  0.07044  0.88357  0.34150  1.0000 -0.1399589651
C   C84       1.0  0.11643  0.92957  0.84150  1.0000 -0.1399589651
C   C85       1.0  0.73446  0.64575  0.21221  1.0000 -0.090701511
C   C86       1.0  0.35425  0.26554  0.71221  1.0000 -0.090701511
C   C87       1.0  0.60997  0.63104  0.16237  1.0000 0.5680229268
C   C88       1.0  0.36896  0.39003  0.66237  1.0000 0.5680229268
C   C89       1.0  0.07842  0.74938  0.13266  1.0000 -0.1089863567
C   C90       1.0  0.25062  0.92158  0.63266  1.0000 -0.1089863567
C   C91       1.0  0.41734  0.72486  0.38105  1.0000 0.0574640422
C   C92       1.0  0.27514  0.58266  0.88105  1.0000 0.0574640422
C   C93       1.0  0.40120  0.71040  0.42914  1.0000 0.0574640422
C   C94       1.0  0.28960  0.59880  0.92914  1.0000 0.0574640422
C   C95       1.0  0.87023  0.68417  0.18316  1.0000 0.0413592602
C   C96       1.0  0.31583  0.12977  0.68316  1.0000 0.0413592602
C   C97       1.0  0.71782  0.04478  0.14882  1.0000 -0.1179895406
C   C98       1.0  0.95521  0.28218  0.64882  1.0000 -0.1179895406
C   C99       1.0  0.70022  0.64878  0.16905  1.0000 0.0140406597
C   C100      1.0  0.35122  0.29978  0.66905  1.0000 0.0140406597
C   C101      1.0  0.14059  0.45761  0.14795  1.0000 -0.0145572093
C   C102      1.0  0.54239  0.85941  0.64795  1.0000 -0.0145572093
C   C103      1.0  0.75100  0.66900  0.13213  1.0000 -0.0807317221
C   C104      1.0  0.33100  0.24900  0.63213  1.0000 -0.0807317221
C   C105      1.0  0.34936  0.64745  0.51720  1.0000 -0.0292710285
C   C106      1.0  0.35256  0.65064  0.01720  1.0000 -0.0292710285
C   C107      1.0  0.43148  0.72013  0.29139  1.0000 -0.0292710285
C   C108      1.0  0.27987  0.56852  0.79139  1.0000 -0.0292710285
C   C109      1.0  0.43588  0.71893  0.24240  1.0000 0.6481259963
C   C110      1.0  0.28108  0.56412  0.74240  1.0000 0.6481259963
C   C111      1.0  0.22631  0.78029  0.16273  1.0000 0.5680229268
C   C112      1.0  0.21970  0.77369  0.66273  1.0000 0.5680229268
C   C113      1.0  0.31372  0.61189  0.56315  1.0000 0.6481259963
C   C114      1.0  0.38811  0.68628  0.06315  1.0000 0.6481259963
C   C115      1.0  0.01611  0.70990  0.21972  1.0000 -0.1399589651
C   C116      1.0  0.29011  0.98389  0.71972  1.0000 -0.1399589651
C   C117      1.0  0.83461  0.68600  0.14040  1.0000 -0.090701511
C   C118      1.0  0.31400  0.16539  0.64040  1.0000 -0.090701511
C   C119      1.0  0.60934  0.86167  0.15264  1.0000 0.6352714203
C   C120      1.0  0.13834  0.39066  0.65264  1.0000 0.6352714203
C   C121      1.0  0.70676  0.96464  0.15354  1.0000 -0.0244963602
C   C122      1.0  0.03535  0.29324  0.65354  1.0000 -0.0244963602
C   C123      1.0  0.81864  0.66317  0.21953  1.0000 -0.1305615608
C   C124      1.0  0.33684  0.18136  0.71953  1.0000 -0.1305615608
C   C125      1.0  0.36908  0.73013  0.49775  1.0000 -0.0807317221
C   C126      1.0  0.26987  0.63092  0.99775  1.0000 -0.0807317221
C   C127      1.0  0.41787  0.65074  0.32097  1.0000 -0.1012336511
C   C128      1.0  0.34927  0.58213  0.82097  1.0000 -0.1012336511
C   C129      1.0  0.13310  0.75351  0.16950  1.0000 0.0224636584
C   C130      1.0  0.24650  0.86690  0.66950  1.0000 0.0224636584
C   C131      1.0  0.38251  0.62889  0.44848  1.0000 -0.0696971775
C   C132      1.0  0.37111  0.61749  0.94848  1.0000 -0.0696971775
C   C133      1.0  0.81253  0.13748  0.14882  1.0000 -0.090701511
C   C134      1.0  0.86252  0.18747  0.64882  1.0000 -0.090701511
C   C135      1.0  0.97088  0.31733  0.14475  1.0000 -0.090701511
C   C136      1.0  0.68268  0.02912  0.64475  1.0000 -0.090701511
C   C137      1.0  0.22559  0.56534  0.14909  1.0000 0.6262380383
C   C138      1.0  0.43467  0.77441  0.64909  1.0000 0.6262380383
C   C139      1.0  0.41016  0.65424  0.36532  1.0000 -0.090701511
C   C140      1.0  0.34576  0.58984  0.86532  1.0000 -0.090701511
C   C141      1.0  0.35912  0.59729  0.49273  1.0000 -0.1012336511
C   C142      1.0  0.40271  0.64088  0.99273  1.0000 -0.1012336511
C   C143      1.0  0.10128  0.73313  0.21266  1.0000 -0.0807317221
C   C144      1.0  0.26688  0.89872  0.71266  1.0000 -0.0807317221
C   C145      1.0  0.39711  0.76370  0.45431  1.0000 -0.1089863567
C   C146      1.0  0.23631  0.60289  0.95431  1.0000 -0.1089863567
C   C147      1.0  0.96122  0.70542  0.18344  1.0000 0.0413592602
C   C148      1.0  0.29458  0.03878  0.68344  1.0000 0.0413592602
C   C149      1.0  0.99347  0.72474  0.14061  1.0000 -0.090701511
C   C150      1.0  0.27526  0.00653  0.64061  1.0000 -0.090701511
C   C151      1.0  0.04610  0.41891  0.14290  1.0000 -0.1012336511
C   C152      1.0  0.58110  0.95390  0.64290  1.0000 -0.1012336511
C   C153      1.0  0.43924  0.79177  0.30709  1.0000 -0.0807317221
C   C154      1.0  0.20824  0.56076  0.80709  1.0000 -0.0807317221
C   C155      1.0  0.98649  0.25532  0.15081  1.0000 0.0413592602
C   C156      1.0  0.74469  0.01351  0.65081  1.0000 0.0413592602
C   C157      1.0  0.43451  0.79670  0.35180  1.0000 -0.1179895406
C   C158      1.0  0.20331  0.56549  0.85180  1.0000 -0.1179895406
C   C159      1.0  0.89457  0.15044  0.15331  1.0000 0.0413592602
C   C160      1.0  0.84957  0.10543  0.65331  1.0000 0.0413592602
C   C161      1.0  0.15745  0.39476  0.15260  1.0000 -0.1012336511
C   C162      1.0  0.60525  0.84255  0.65260  1.0000 -0.1012336511
C   C163      1.0  0.08056  0.29445  0.15360  1.0000 -0.1305615608
C   C164      1.0  0.70556  0.91944  0.65360  1.0000 -0.1305615608
C   C165      1.0  0.79114  0.97827  0.15880  1.0000 -0.090701511
C   C166      1.0  0.02173  0.20886  0.65880  1.0000 -0.090701511
C   C167      1.0  0.88357  0.07044  0.15850  1.0000 -0.1399589651
C   C168      1.0  0.92957  0.11643  0.65850  1.0000 -0.1399589651
S   S1        1.0  0.71636  0.91313  0.40009  1.0000 0.9789595133
S   S2        1.0  0.08687  0.28365  0.90009  1.0000 0.9789595133
S   S3        1.0  0.25073  0.84548  0.35589  1.0000 0.9789595133
S   S4        1.0  0.15452  0.74928  0.85589  1.0000 0.9789595133
S   S5        1.0  0.56879  0.38356  0.09127  1.0000 0.9684921405
S   S6        1.0  0.61644  0.43122  0.59127  1.0000 0.9684921405
S   S7        1.0  0.91313  0.71635  0.09991  1.0000 0.9789595133
S   S8        1.0  0.28364  0.08687  0.59991  1.0000 0.9789595133
S   S9        1.0  0.84548  0.25072  0.14411  1.0000 0.9789595133
S   S10       1.0  0.74928  0.15452  0.64411  1.0000 0.9789595133
S   S11       1.0  0.38356  0.56879  0.40873  1.0000 0.9684921405
S   S12       1.0  0.43122  0.61644  0.90873  1.0000 0.9684921405
O   O1        1.0  0.60640  0.56328  0.30337  1.0000 -0.6583039262
O   O2        1.0  0.43672  0.39360  0.80337  1.0000 -0.6583039262
O   O3        1.0  0.67089  0.45212  0.27003  1.0000 -0.6536649563
O   O4        1.0  0.54788  0.32911  0.77003  1.0000 -0.6536649563
O   O5        1.0  0.55373  0.31888  0.91628  1.0000 -0.666773478
O   O6        1.0  0.68112  0.44628  0.41628  1.0000 -0.666773478
O   O7        1.0  0.64262  0.27999  0.92283  1.0000 -0.666773478
O   O8        1.0  0.72001  0.35739  0.42283  1.0000 -0.666773478
O   O9        1.0  0.64184  0.58373  0.37576  1.0000 -0.6111534783
O   O10       1.0  0.41627  0.35817  0.87576  1.0000 -0.6111534783
O   O11       1.0  0.80132  0.25407  0.37686  1.0000 -0.666773478
O   O12       1.0  0.74593  0.19869  0.87686  1.0000 -0.666773478
O   O13       1.0  0.76624  0.42136  0.28237  1.0000 -0.6856400468
O   O14       1.0  0.57864  0.23375  0.78237  1.0000 -0.6856400468
O   O15       1.0  0.59848  0.31085  0.34540  1.0000 -0.7743996479
O   O16       1.0  0.68915  0.40153  0.84540  1.0000 -0.7743996479
O   O17       1.0  0.77968  0.27193  0.30457  1.0000 -0.6010484495
O   O18       1.0  0.72807  0.22032  0.80457  1.0000 -0.6010484495
O   O19       1.0  0.63713  0.86468  0.42848  1.0000 -0.497233192
O   O20       1.0  0.13532  0.36288  0.92848  1.0000 -0.497233192
O   O21       1.0  0.79446  0.60667  0.33696  1.0000 -0.6250275471
O   O22       1.0  0.39333  0.20555  0.83696  1.0000 -0.6250275471
O   O23       1.0  0.62052  0.21094  0.35415  1.0000 -0.5797226527
O   O24       1.0  0.78906  0.37948  0.85415  1.0000 -0.5797226527
O   O25       1.0  0.85118  0.53682  0.35948  1.0000 -0.7157006361
O   O26       1.0  0.46318  0.14882  0.85948  1.0000 -0.7157006361
O   O27       1.0  0.80968  0.95973  0.42146  1.0000 -0.4781628498
O   O28       1.0  0.04027  0.19033  0.92146  1.0000 -0.4781628498
O   O29       1.0  0.26265  0.80996  0.39773  1.0000 -0.5283349105
O   O30       1.0  0.19004  0.73736  0.89773  1.0000 -0.5283349105
O   O31       1.0  0.47521  0.28839  0.09860  1.0000 -0.4781628498
O   O32       1.0  0.71161  0.52479  0.59860  1.0000 -0.4781628498
O   O33       1.0  0.57242  0.46179  0.08193  1.0000 -0.4947270253
O   O34       1.0  0.53821  0.42758  0.58193  1.0000 -0.4947270253
O   O35       1.0  0.26664  0.82337  0.31688  1.0000 -0.513326297
O   O36       1.0  0.17663  0.73337  0.81688  1.0000 -0.513326297
O   O37       1.0  0.56328  0.60641  0.19663  1.0000 -0.6583039262
O   O38       1.0  0.39360  0.43672  0.69663  1.0000 -0.6583039262
O   O39       1.0  0.45212  0.67088  0.22997  1.0000 -0.6536649563
O   O40       1.0  0.32911  0.54788  0.72997  1.0000 -0.6536649563
O   O41       1.0  0.31888  0.55373  0.58372  1.0000 -0.666773478
O   O42       1.0  0.44628  0.68112  0.08372  1.0000 -0.666773478
O   O43       1.0  0.27999  0.64262  0.57717  1.0000 -0.666773478
O   O44       1.0  0.35739  0.72001  0.07717  1.0000 -0.666773478
O   O45       1.0  0.58373  0.64184  0.12424  1.0000 -0.6111534783
O   O46       1.0  0.35817  0.41627  0.62424  1.0000 -0.6111534783
O   O47       1.0  0.25407  0.80132  0.12314  1.0000 -0.666773478
O   O48       1.0  0.19869  0.74593  0.62314  1.0000 -0.666773478
O   O49       1.0  0.42136  0.76624  0.21763  1.0000 -0.6856400468
O   O50       1.0  0.23375  0.57864  0.71763  1.0000 -0.6856400468
O   O51       1.0  0.31085  0.59847  0.15460  1.0000 -0.7743996479
O   O52       1.0  0.40153  0.68915  0.65460  1.0000 -0.7743996479
O   O53       1.0  0.27193  0.77968  0.19543  1.0000 -0.6010484495
O   O54       1.0  0.22033  0.72807  0.69543  1.0000 -0.6010484495
O   O55       1.0  0.86468  0.63713  0.07152  1.0000 -0.497233192
O   O56       1.0  0.36288  0.13532  0.57152  1.0000 -0.497233192
O   O57       1.0  0.60667  0.79446  0.16304  1.0000 -0.6250275471
O   O58       1.0  0.20555  0.39333  0.66304  1.0000 -0.6250275471
O   O59       1.0  0.21094  0.62052  0.14585  1.0000 -0.5797226527
O   O60       1.0  0.37948  0.78906  0.64585  1.0000 -0.5797226527
O   O61       1.0  0.53682  0.85118  0.14052  1.0000 -0.7157006361
O   O62       1.0  0.14881  0.46318  0.64052  1.0000 -0.7157006361
O   O63       1.0  0.95973  0.80968  0.07854  1.0000 -0.4781628498
O   O64       1.0  0.19032  0.04027  0.57854  1.0000 -0.4781628498
O   O65       1.0  0.80996  0.26265  0.10227  1.0000 -0.5283349105
O   O66       1.0  0.73736  0.19004  0.60227  1.0000 -0.5283349105
O   O67       1.0  0.28839  0.47522  0.40140  1.0000 -0.4781628498
O   O68       1.0  0.52478  0.71161  0.90140  1.0000 -0.4781628498
O   O69       1.0  0.46179  0.57242  0.41807  1.0000 -0.4947270253
O   O70       1.0  0.42759  0.53821  0.91807  1.0000 -0.4947270253
O   O71       1.0  0.82337  0.26664  0.18312  1.0000 -0.513326297
O   O72       1.0  0.73337  0.17663  0.68312  1.0000 -0.513326297
