# DDEC6 charges by PACMAN v1.1 (https://github.com/mtap-research/PACMAN-charge/)
data_2010[Pr][nan]3[ASR]1
_chemical_formula_sum              "Pr6 H84 C54 N6 O48"
_cell_length_a       12.514
_cell_length_b       15.767
_cell_length_c       16.3192
_cell_angle_alpha    112.284
_cell_angle_beta     107.274
_cell_angle_gamma    103.72

_symmetry_space_group_name_H-M    "P 1"
_symmetry_Int_Tables_number       1

loop_
  _symmetry_equiv_pos_as_xyz
  'x, y, z'

loop_
  _atom_site_type_symbol
  _atom_site_label
  _atom_site_symmetry_multiplicity
  _atom_site_fract_x
  _atom_site_fract_y
  _atom_site_fract_z
  _atom_site_occupancy
  _atom_site_charge
Pr  Pr1       1.0  0.50254  0.86187  0.96813  1.0000 2.1391981282
Pr  Pr2       1.0  0.49746  0.13813  0.03187  1.0000 2.1391981282
Pr  Pr3       1.0  0.63151  0.61066  0.63432  1.0000 2.1391981282
Pr  Pr4       1.0  0.36849  0.38934  0.36568  1.0000 2.1391981282
Pr  Pr5       1.0  0.96651  0.46110  0.09788  1.0000 2.1324014105
Pr  Pr6       1.0  0.03349  0.53890  0.90212  1.0000 2.1324014105
H   H1        1.0  0.96710  0.21910  0.78760  1.0000 0.1503545722
H   H2        1.0  0.03290  0.78090  0.21240  1.0000 0.1503545722
H   H3        1.0  0.82590  0.16790  0.73560  1.0000 0.1503545722
H   H4        1.0  0.17410  0.83210  0.26440  1.0000 0.1503545722
H   H5        1.0  0.81690  0.08120  0.79030  1.0000 0.1180681296
H   H6        1.0  0.18310  0.91880  0.20970  1.0000 0.1180681296
H   H7        1.0  0.94780  0.10100  0.79690  1.0000 0.1101708317
H   H8        1.0  0.05220  0.89900  0.20310  1.0000 0.1101708317
H   H9        1.0  0.05410  0.58670  0.68510  1.0000 0.1503545722
H   H10       1.0  0.94590  0.41330  0.31490  1.0000 0.1503545722
H   H11       1.0  0.01960  0.66900  0.74730  1.0000 0.1624406613
H   H12       1.0  0.98040  0.33100  0.25270  1.0000 0.1624406613
H   H13       1.0  0.10110  0.77340  0.70800  1.0000 0.1180681296
H   H14       1.0  0.89890  0.22660  0.29200  1.0000 0.1180681296
H   H15       1.0  0.03030  0.67150  0.61100  1.0000 0.1101708317
H   H16       1.0  0.96970  0.32850  0.38900  1.0000 0.1101708317
H   H17       1.0  0.27580  0.78670  0.58880  1.0000 0.1180681296
H   H18       1.0  0.72420  0.21330  0.41120  1.0000 0.1180681296
H   H19       1.0  0.15720  0.79800  0.59270  1.0000 0.101579655
H   H20       1.0  0.84280  0.20200  0.40730  1.0000 0.101579655
H   H21       1.0  0.24290  0.92890  0.71160  1.0000 0.1503545722
H   H22       1.0  0.75710  0.07110  0.28840  1.0000 0.1503545722
H   H23       1.0  0.33617  0.93227  0.66667  1.0000 0.1503545722
H   H24       1.0  0.66383  0.06773  0.33333  1.0000 0.1503545722
H   H25       1.0  0.13300  0.57270  0.55970  1.0000 0.1101708317
H   H26       1.0  0.86700  0.42730  0.44030  1.0000 0.1101708317
H   H27       1.0  0.18860  0.63720  0.51790  1.0000 0.1101708317
H   H28       1.0  0.81140  0.36280  0.48210  1.0000 0.1101708317
H   H29       1.0  0.31870  0.59170  0.65300  1.0000 0.1692235984
H   H30       1.0  0.68130  0.40830  0.34700  1.0000 0.1692235984
H   H31       1.0  0.38130  0.66740  0.62460  1.0000 0.1692235984
H   H32       1.0  0.61870  0.33260  0.37540  1.0000 0.1692235984
H   H33       1.0  0.50620  0.57600  0.91100  1.0000 0.1503545722
H   H34       1.0  0.49380  0.42400  0.08900  1.0000 0.1503545722
H   H35       1.0  0.38780  0.59020  0.86380  1.0000 0.1624406613
H   H36       1.0  0.61220  0.40980  0.13620  1.0000 0.1624406613
H   H37       1.0  0.32960  0.45230  0.71810  1.0000 0.1180681296
H   H38       1.0  0.67040  0.54770  0.28190  1.0000 0.1180681296
H   H39       1.0  0.34910  0.42460  0.80240  1.0000 0.1180681296
H   H40       1.0  0.65090  0.57540  0.19760  1.0000 0.1180681296
H   H41       1.0  0.38140  0.26330  0.67700  1.0000 0.1101708317
H   H42       1.0  0.61860  0.73670  0.32300  1.0000 0.1101708317
H   H43       1.0  0.33570  0.31250  0.61370  1.0000 0.1180681296
H   H44       1.0  0.66430  0.68750  0.38630  1.0000 0.1180681296
H   H45       1.0  0.44310  0.21860  0.55370  1.0000 0.1503545722
H   H46       1.0  0.55690  0.78140  0.44630  1.0000 0.1503545722
H   H47       1.0  0.56050  0.29230  0.65220  1.0000 0.1434297525
H   H48       1.0  0.43950  0.70770  0.34780  1.0000 0.1434297525
H   H49       1.0  0.56160  0.34510  0.81190  1.0000 0.1180681296
H   H50       1.0  0.43840  0.65490  0.18810  1.0000 0.1180681296
H   H51       1.0  0.53890  0.42860  0.88660  1.0000 0.1180681296
H   H52       1.0  0.46110  0.57140  0.11340  1.0000 0.1180681296
H   H53       1.0  0.71800  0.46950  0.81800  1.0000 0.1692235984
H   H54       1.0  0.28200  0.53050  0.18200  1.0000 0.1692235984
H   H55       1.0  0.69590  0.55250  0.89370  1.0000 0.1624406613
H   H56       1.0  0.30410  0.44750  0.10630  1.0000 0.1624406613
H   H57       1.0  0.21980  0.22250  0.10050  1.0000 0.1624406613
H   H58       1.0  0.78020  0.77750  0.89950  1.0000 0.1624406613
H   H59       1.0  0.09700  0.16040  0.09400  1.0000 0.1434297525
H   H60       1.0  0.90300  0.83960  0.90600  1.0000 0.1434297525
H   H61       1.0  0.08250  0.10470  0.93720  1.0000 0.1101708317
H   H62       1.0  0.91750  0.89530  0.06280  1.0000 0.1101708317
H   H63       1.0  0.12120  0.21320  0.95130  1.0000 0.1180681296
H   H64       1.0  0.87880  0.78680  0.04870  1.0000 0.1180681296
H   H65       1.0  0.92020  0.05970  0.98400  1.0000 0.1101708317
H   H66       1.0  0.07980  0.94030  0.01600  1.0000 0.1101708317
H   H67       1.0  0.82690  0.01140  0.87410  1.0000 0.1180681296
H   H68       1.0  0.17310  0.98860  0.12590  1.0000 0.1180681296
H   H69       1.0  0.81830  0.15980  0.03130  1.0000 0.1692235984
H   H70       1.0  0.18170  0.84020  0.96870  1.0000 0.1692235984
H   H71       1.0  0.72540  0.11230  0.92160  1.0000 0.1692235984
H   H72       1.0  0.27460  0.88770  0.07840  1.0000 0.1692235984
H   H73       1.0  0.68730  0.80060  0.05800  1.0000 0.3801795282
H   H74       1.0  0.31270  0.19940  0.94200  1.0000 0.3801795282
H   H75       1.0  0.34360  0.72110  0.99510  1.0000 0.3801795282
H   H76       1.0  0.65640  0.27890  0.00490  1.0000 0.3801795282
H   H77       1.0  0.85100  0.77720  0.69040  1.0000 0.3868739047
H   H78       1.0  0.14900  0.22280  0.30960  1.0000 0.3868739047
H   H79       1.0  0.60060  0.77040  0.77350  1.0000 0.3801795282
H   H80       1.0  0.39940  0.22960  0.22650  1.0000 0.3801795282
H   H81       1.0  0.90700  0.57310  0.25380  1.0000 0.3801795282
H   H82       1.0  0.09300  0.42690  0.74620  1.0000 0.3801795282
H   H83       1.0  0.13580  0.57920  0.30130  1.0000 0.3868739047
H   H84       1.0  0.86420  0.42080  0.69870  1.0000 0.3868739047
C   C1        1.0  0.89520  0.20120  0.79920  1.0000 -0.2957000546
C   C2        1.0  0.10480  0.79880  0.20080  1.0000 -0.2957000546
C   C3        1.0  0.89930  0.13190  0.82430  1.0000 -0.0690291132
C   C4        1.0  0.10070  0.86810  0.17570  1.0000 -0.0690291132
C   C5        1.0  0.88840  0.29650  0.85580  1.0000 0.6890204288
C   C6        1.0  0.11160  0.70350  0.14420  1.0000 0.6890204288
C   C7        1.0  0.19270  0.68370  0.82290  1.0000 0.672696773
C   C8        1.0  0.80730  0.31630  0.17710  1.0000 0.672696773
C   C9        1.0  0.08400  0.65760  0.72900  1.0000 -0.3303163759
C   C10       1.0  0.91600  0.34240  0.27100  1.0000 -0.3303163759
C   C11       1.0  0.10090  0.70780  0.67420  1.0000 -0.0581281393
C   C12       1.0  0.89910  0.29220  0.32580  1.0000 -0.0581281393
C   C13       1.0  0.23610  0.80290  0.63200  1.0000 -0.0690291132
C   C14       1.0  0.76390  0.19710  0.36800  1.0000 -0.0690291132
C   C15       1.0  0.30150  0.90140  0.69920  1.0000 -0.309858825
C   C16       1.0  0.69850  0.09860  0.30080  1.0000 -0.309858825
C   C17       1.0  0.40220  0.93890  0.79730  1.0000 0.6890204288
C   C18       1.0  0.59780  0.06110  0.20270  1.0000 0.6890204288
C   C19       1.0  0.20270  0.62930  0.57580  1.0000 -0.0581281393
C   C20       1.0  0.79730  0.37070  0.42420  1.0000 -0.0581281393
C   C21       1.0  0.31070  0.60750  0.60010  1.0000 -0.3303163759
C   C22       1.0  0.68930  0.39250  0.39990  1.0000 -0.3303163759
C   C23       1.0  0.31340  0.52390  0.51810  1.0000 0.6493744888
C   C24       1.0  0.68660  0.47610  0.48190  1.0000 0.6493744888
C   C25       1.0  0.51940  0.63640  0.82040  1.0000 0.6790713109
C   C26       1.0  0.48060  0.36360  0.17960  1.0000 0.6790713109
C   C27       1.0  0.44980  0.56820  0.85050  1.0000 -0.346678134
C   C28       1.0  0.55020  0.43180  0.14950  1.0000 -0.346678134
C   C29       1.0  0.39060  0.46110  0.77700  1.0000 -0.0581281393
C   C30       1.0  0.60940  0.53890  0.22300  1.0000 -0.0515581098
C   C31       1.0  0.40770  0.31310  0.65810  1.0000 -0.0581281393
C   C32       1.0  0.59230  0.68690  0.34190  1.0000 -0.0581281393
C   C33       1.0  0.48570  0.28700  0.60650  1.0000 -0.309858825
C   C34       1.0  0.51430  0.71300  0.39350  1.0000 -0.309858825
C   C35       1.0  0.51600  0.35650  0.56490  1.0000 0.6890204288
C   C36       1.0  0.48400  0.64350  0.43510  1.0000 0.6890204288
C   C37       1.0  0.56410  0.41230  0.83380  1.0000 -0.0515581098
C   C38       1.0  0.43590  0.58770  0.16620  1.0000 -0.0515581098
C   C39       1.0  0.69350  0.48530  0.87120  1.0000 -0.3303163759
C   C40       1.0  0.30650  0.51470  0.12880  1.0000 -0.3303163759
C   C41       1.0  0.78040  0.48080  0.95350  1.0000 0.6618295945
C   C42       1.0  0.21960  0.51920  0.04650  1.0000 0.6618295945
C   C43       1.0  0.12490  0.30560  0.13960  1.0000 0.6890204288
C   C44       1.0  0.87510  0.69440  0.86040  1.0000 0.6890204288
C   C45       1.0  0.13420  0.21100  0.07940  1.0000 -0.3722583614
C   C46       1.0  0.86580  0.78900  0.92060  1.0000 -0.3722583614
C   C47       1.0  0.07600  0.16820  0.96780  1.0000 -0.0515581098
C   C48       1.0  0.92400  0.83180  0.03220  1.0000 -0.0515581098
C   C49       1.0  0.86810  0.07240  0.93680  1.0000 -0.0515581098
C   C50       1.0  0.13190  0.92760  0.06320  1.0000 -0.0515581098
C   C51       1.0  0.77650  0.09880  0.96870  1.0000 -0.3303163759
C   C52       1.0  0.22350  0.90120  0.03130  1.0000 -0.3303163759
C   C53       1.0  0.69660  0.02010  0.97910  1.0000 0.6618295945
C   C54       1.0  0.30340  0.97990  0.02090  1.0000 0.6618295945
N   N1        1.0  0.21100  0.72070  0.65600  1.0000 -0.0303571299
N   N2        1.0  0.78900  0.27930  0.34400  1.0000 -0.0303571299
N   N3        1.0  0.47800  0.41680  0.75000  1.0000 -0.0206279084
N   N4        1.0  0.52200  0.58320  0.25000  1.0000 -0.0206279084
N   N5        1.0  0.94480  0.15300  0.92690  1.0000 -0.0360664055
N   N6        1.0  0.05520  0.84700  0.07310  1.0000 -0.0360664055
O   O1        1.0  0.29500  0.73280  0.83820  1.0000 -0.5528379343
O   O2        1.0  0.70500  0.26720  0.16180  1.0000 -0.5528379343
O   O3        1.0  0.43580  0.87630  0.81450  1.0000 -0.6007652245
O   O4        1.0  0.56420  0.12370  0.18550  1.0000 -0.6007652245
O   O5        1.0  0.69290  0.93480  0.94560  1.0000 -0.5022478215
O   O6        1.0  0.30710  0.06520  0.05440  1.0000 -0.5022478215
O   O7        1.0  0.53850  0.72770  0.86130  1.0000 -0.6514543257
O   O8        1.0  0.46150  0.27230  0.13870  1.0000 -0.6514543257
O   O9        1.0  0.68720  0.85650  0.08280  1.0000 -0.8658363185
O   O10       1.0  0.31280  0.14350  0.91720  1.0000 -0.8658363185
O   O11       1.0  0.41540  0.75670  0.03290  1.0000 -0.8305568955
O   O12       1.0  0.58460  0.24330  0.96710  1.0000 -0.8305568955
O   O13       1.0  0.44570  0.03090  0.85470  1.0000 -0.6120899282
O   O14       1.0  0.55430  0.96910  0.14530  1.0000 -0.6120899282
O   O15       1.0  0.62950  0.04470  0.02280  1.0000 -0.7537549399
O   O16       1.0  0.37050  0.95530  0.97720  1.0000 -0.7537549399
O   O17       1.0  0.41000  0.50680  0.53950  1.0000 -0.7307304702
O   O18       1.0  0.59000  0.49320  0.46050  1.0000 -0.7307304702
O   O19       1.0  0.55530  0.59900  0.75800  1.0000 -0.5867314301
O   O20       1.0  0.44470  0.40100  0.24200  1.0000 -0.5867314301
O   O21       1.0  0.59020  0.44380  0.62580  1.0000 -0.6007652245
O   O22       1.0  0.40980  0.55620  0.37420  1.0000 -0.6007652245
O   O23       1.0  0.23090  0.47590  0.43570  1.0000 -0.4729263149
O   O24       1.0  0.76910  0.52410  0.56430  1.0000 -0.4729263149
O   O25       1.0  0.79970  0.73780  0.63380  1.0000 -0.8828345798
O   O26       1.0  0.20030  0.26220  0.36620  1.0000 -0.8828345798
O   O27       1.0  0.45870  0.32230  0.47370  1.0000 -0.6228785477
O   O28       1.0  0.54130  0.67770  0.52630  1.0000 -0.6228785477
O   O29       1.0  0.62450  0.77370  0.73270  1.0000 -0.8395215831
O   O30       1.0  0.37550  0.22630  0.26730  1.0000 -0.8395215831
O   O31       1.0  0.05030  0.33350  0.09790  1.0000 -0.6007652245
O   O32       1.0  0.94970  0.66650  0.90210  1.0000 -0.6007652245
O   O33       1.0  0.17260  0.65020  0.87730  1.0000 -0.6282450519
O   O34       1.0  0.82740  0.34980  0.12270  1.0000 -0.6282450519
O   O35       1.0  0.87600  0.31020  0.93230  1.0000 -0.581597384
O   O36       1.0  0.12400  0.68980  0.06770  1.0000 -0.581597384
O   O37       1.0  0.74520  0.43350  0.99310  1.0000 -0.5022478215
O   O38       1.0  0.25480  0.56650  0.00690  1.0000 -0.5022478215
O   O39       1.0  0.88630  0.57110  0.20030  1.0000 -0.8828345798
O   O40       1.0  0.11370  0.42890  0.79970  1.0000 -0.8828345798
O   O41       1.0  0.89480  0.35700  0.82360  1.0000 -0.6228785477
O   O42       1.0  0.10520  0.64300  0.17640  1.0000 -0.6228785477
O   O43       1.0  0.11860  0.51970  0.26700  1.0000 -0.8305568955
O   O44       1.0  0.88140  0.48030  0.73300  1.0000 -0.8305568955
O   O45       1.0  0.89420  0.52630  0.98040  1.0000 -0.7430477701
O   O46       1.0  0.10580  0.47370  0.01960  1.0000 -0.7430477701
O   O47       1.0  0.19080  0.35240  0.22900  1.0000 -0.6120899282
O   O48       1.0  0.80920  0.64760  0.77100  1.0000 -0.6120899282
