# DDEC6 charges by PACMAN v1.1 (https://github.com/mtap-research/PACMAN-charge/)
data_2010[Co][lvt]3[ASR]1
_chemical_formula_sum              "Co4 H48 C80 N4 O16"
_cell_length_a       23.0994
_cell_length_b       23.0994
_cell_length_c       23.0994
_cell_angle_alpha    136.442
_cell_angle_beta     119.094
_cell_angle_gamma    77.8235

_symmetry_space_group_name_H-M    "P 1"
_symmetry_Int_Tables_number       1

loop_
  _symmetry_equiv_pos_as_xyz
  'x, y, z'

loop_
  _atom_site_type_symbol
  _atom_site_label
  _atom_site_symmetry_multiplicity
  _atom_site_fract_x
  _atom_site_fract_y
  _atom_site_fract_z
  _atom_site_occupancy
  _atom_site_charge
Co  Co1       1.0  0.02858  0.08464  0.05606  1.0000 0.9709661082
Co  Co2       1.0  0.47142  0.52748  0.05606  1.0000 0.9709661082
Co  Co3       1.0  0.52858  0.47252  0.94394  1.0000 0.9709661082
Co  Co4       1.0  0.97142  0.91536  0.94394  1.0000 0.9709661082
H   H1        1.0  0.10890  0.19330  0.34000  1.0000 0.1247727872
H   H2        1.0  0.39110  0.73110  0.08440  1.0000 0.1247727872
H   H3        1.0  0.35330  0.26890  0.66000  1.0000 0.1247727872
H   H4        1.0  0.14670  0.80670  0.91560  1.0000 0.1247727872
H   H5        1.0  0.89110  0.80670  0.66000  1.0000 0.1247727872
H   H6        1.0  0.60890  0.26890  0.91560  1.0000 0.1247727872
H   H7        1.0  0.64670  0.73110  0.34000  1.0000 0.1247727872
H   H8        1.0  0.85330  0.19330  0.08440  1.0000 0.1247727872
H   H9        1.0  0.07670  0.98740  0.31910  1.0000 0.1295190021
H   H10       1.0  0.42330  0.74240  0.91070  1.0000 0.1295190021
H   H11       1.0  0.16830  0.25760  0.68090  1.0000 0.1295190021
H   H12       1.0  0.33170  0.01260  0.08930  1.0000 0.1295190021
H   H13       1.0  0.92330  0.01260  0.68090  1.0000 0.1295190021
H   H14       1.0  0.57670  0.25760  0.08930  1.0000 0.1295190021
H   H15       1.0  0.83170  0.74240  0.31910  1.0000 0.1295190021
H   H16       1.0  0.66830  0.98740  0.91070  1.0000 0.1295190021
H   H17       1.0  0.14630  0.23400  0.48050  1.0000 0.1295190021
H   H18       1.0  0.35370  0.83420  0.08770  1.0000 0.1295190021
H   H19       1.0  0.25350  0.16580  0.51950  1.0000 0.1295190021
H   H20       1.0  0.24650  0.76600  0.91230  1.0000 0.1295190021
H   H21       1.0  0.85370  0.76600  0.51950  1.0000 0.1295190021
H   H22       1.0  0.64630  0.16580  0.91230  1.0000 0.1295190021
H   H23       1.0  0.74650  0.83420  0.48050  1.0000 0.1295190021
H   H24       1.0  0.75350  0.23400  0.08770  1.0000 0.1295190021
H   H25       1.0  0.03480  0.95030  0.18030  1.0000 0.1295190021
H   H26       1.0  0.46520  0.64550  0.91550  1.0000 0.1295190021
H   H27       1.0  0.27000  0.35450  0.81970  1.0000 0.1295190021
H   H28       1.0  0.23000  0.04970  0.08450  1.0000 0.1295190021
H   H29       1.0  0.96520  0.04970  0.81970  1.0000 0.1295190021
H   H30       1.0  0.53480  0.35450  0.08450  1.0000 0.1295190021
H   H31       1.0  0.73000  0.64550  0.18030  1.0000 0.1295190021
H   H32       1.0  0.77000  0.95030  0.91550  1.0000 0.1295190021
H   H33       1.0  0.01040  0.11840  0.44380  1.0000 0.1295190021
H   H34       1.0  0.48960  0.93340  0.10800  1.0000 0.1295190021
H   H35       1.0  0.17460  0.06660  0.55620  1.0000 0.1295190021
H   H36       1.0  0.32540  0.88160  0.89200  1.0000 0.1295190021
H   H37       1.0  0.98960  0.88160  0.55620  1.0000 0.1295190021
H   H38       1.0  0.51040  0.06660  0.89200  1.0000 0.1295190021
H   H39       1.0  0.82540  0.93340  0.44380  1.0000 0.1295190021
H   H40       1.0  0.67460  0.11840  0.10800  1.0000 0.1295190021
H   H41       1.0  0.94550  0.04830  0.43780  1.0000 0.1108253338
H   H42       1.0  0.55450  0.99230  0.10280  1.0000 0.1108253338
H   H43       1.0  0.11050  0.00770  0.56220  1.0000 0.1108253338
H   H44       1.0  0.38950  0.95170  0.89720  1.0000 0.1108253338
H   H45       1.0  0.05450  0.95170  0.56220  1.0000 0.1108253338
H   H46       1.0  0.44550  0.00770  0.89720  1.0000 0.1108253338
H   H47       1.0  0.88950  0.99230  0.43780  1.0000 0.1108253338
H   H48       1.0  0.61050  0.04830  0.10280  1.0000 0.1108253338
C   C1        1.0  0.04397  0.04509  0.15588  1.0000 0.5906755925
C   C2        1.0  0.45603  0.61191  0.00112  1.0000 0.5906755925
C   C3        1.0  0.38921  0.38809  0.84412  1.0000 0.5906755925
C   C4        1.0  0.11079  0.95491  0.99888  1.0000 0.5906755925
C   C5        1.0  0.95603  0.95491  0.84412  1.0000 0.5906755925
C   C6        1.0  0.54397  0.38809  0.99888  1.0000 0.5906755925
C   C7        1.0  0.61079  0.61191  0.15588  1.0000 0.5906755925
C   C8        1.0  0.88921  0.04509  0.00112  1.0000 0.5906755925
C   C9        1.0  0.10163  0.15240  0.33623  1.0000 -0.0779800177
C   C10       1.0  0.39837  0.73460  0.05077  1.0000 -0.0779800177
C   C11       1.0  0.31617  0.26540  0.66377  1.0000 -0.0779800177
C   C12       1.0  0.18383  0.84760  0.94923  1.0000 -0.0779800177
C   C13       1.0  0.89837  0.84760  0.66377  1.0000 -0.0779800177
C   C14       1.0  0.60163  0.26540  0.94923  1.0000 -0.0779800177
C   C15       1.0  0.68383  0.73460  0.33623  1.0000 -0.0779800177
C   C16       1.0  0.81617  0.15240  0.05077  1.0000 -0.0779800177
C   C17       1.0  0.08207  0.02934  0.32333  1.0000 -0.1907362267
C   C18       1.0  0.41793  0.74126  0.94727  1.0000 -0.1907362267
C   C19       1.0  0.20601  0.25874  0.67667  1.0000 -0.1907362267
C   C20       1.0  0.29399  0.97066  0.05273  1.0000 -0.1907362267
C   C21       1.0  0.91793  0.97066  0.67667  1.0000 -0.1907362267
C   C22       1.0  0.58207  0.25874  0.05273  1.0000 -0.1907362267
C   C23       1.0  0.79399  0.74126  0.32333  1.0000 -0.1907362267
C   C24       1.0  0.70601  0.02934  0.94727  1.0000 -0.1907362267
C   C25       1.0  0.06801  0.06772  0.24629  1.0000 -0.0416180193
C   C26       1.0  0.43199  0.67828  0.99971  1.0000 -0.0416180193
C   C27       1.0  0.32143  0.32172  0.75371  1.0000 -0.0416180193
C   C28       1.0  0.17857  0.93228  0.00029  1.0000 -0.0416180193
C   C29       1.0  0.93199  0.93228  0.75371  1.0000 -0.0416180193
C   C30       1.0  0.56801  0.32172  0.00029  1.0000 -0.0416180193
C   C31       1.0  0.67857  0.67828  0.24629  1.0000 -0.0416180193
C   C32       1.0  0.82143  0.06772  0.99971  1.0000 -0.0416180193
C   C33       1.0  0.12459  0.17683  0.42060  1.0000 -0.1950431391
C   C34       1.0  0.37541  0.79601  0.05224  1.0000 -0.1950431391
C   C35       1.0  0.25623  0.20399  0.57940  1.0000 -0.1950431391
C   C36       1.0  0.24377  0.82317  0.94776  1.0000 -0.1950431391
C   C37       1.0  0.87541  0.82317  0.57940  1.0000 -0.1950431391
C   C38       1.0  0.62459  0.20399  0.94776  1.0000 -0.1950431391
C   C39       1.0  0.74377  0.79601  0.42060  1.0000 -0.1950431391
C   C40       1.0  0.75623  0.17683  0.05224  1.0000 -0.1950431391
C   C41       1.0  0.05798  0.00692  0.24048  1.0000 -0.0779800177
C   C42       1.0  0.44202  0.68250  0.94894  1.0000 -0.0779800177
C   C43       1.0  0.26644  0.31750  0.75952  1.0000 -0.0779800177
C   C44       1.0  0.23356  0.99308  0.05106  1.0000 -0.0779800177
C   C45       1.0  0.94202  0.99308  0.75952  1.0000 -0.0779800177
C   C46       1.0  0.55798  0.31750  0.05106  1.0000 -0.0779800177
C   C47       1.0  0.73356  0.68250  0.24048  1.0000 -0.0779800177
C   C48       1.0  0.76644  0.00692  0.94894  1.0000 -0.0779800177
C   C49       1.0  0.11493  0.11571  0.41482  1.0000 0.1765044872
C   C50       1.0  0.38507  0.79989  0.00078  1.0000 0.1765044872
C   C51       1.0  0.20089  0.20011  0.58518  1.0000 0.1765044872
C   C52       1.0  0.29911  0.88429  0.99922  1.0000 0.1765044872
C   C53       1.0  0.88507  0.88429  0.58518  1.0000 0.1765044872
C   C54       1.0  0.61493  0.20011  0.99922  1.0000 0.1765044872
C   C55       1.0  0.79911  0.79989  0.41482  1.0000 0.1765044872
C   C56       1.0  0.70089  0.11571  0.00078  1.0000 0.1765044872
C   C57       1.0  0.09907  0.09907  0.50000  1.0000 0.1560931206
C   C58       1.0  0.40093  0.90093  0.00000  1.0000 0.1560931206
C   C59       1.0  0.90093  0.90093  0.50000  1.0000 0.1560931206
C   C60       1.0  0.59907  0.09907  0.00000  1.0000 0.1560931206
C   C61       1.0  0.03130  0.09443  0.46607  1.0000 -0.1827577762
C   C62       1.0  0.46870  0.93477  0.06313  1.0000 -0.1827577762
C   C63       1.0  0.12836  0.06523  0.53393  1.0000 -0.1827577762
C   C64       1.0  0.37164  0.90557  0.93687  1.0000 -0.1827577762
C   C65       1.0  0.96870  0.90557  0.53393  1.0000 -0.1827577762
C   C66       1.0  0.53130  0.06523  0.93687  1.0000 -0.1827577762
C   C67       1.0  0.87164  0.93477  0.46607  1.0000 -0.1827577762
C   C68       1.0  0.62836  0.09443  0.06313  1.0000 -0.1827577762
C   C69       1.0  0.99225  0.05319  0.46426  1.0000 -0.1474717371
C   C70       1.0  0.50775  0.97201  0.06094  1.0000 -0.1474717371
C   C71       1.0  0.08893  0.02799  0.53574  1.0000 -0.1474717371
C   C72       1.0  0.41107  0.94681  0.93906  1.0000 -0.1474717371
C   C73       1.0  0.00775  0.94681  0.53574  1.0000 -0.1474717371
C   C74       1.0  0.49225  0.02799  0.93906  1.0000 -0.1474717371
C   C75       1.0  0.91107  0.97201  0.46426  1.0000 -0.1474717371
C   C76       1.0  0.58893  0.05319  0.06094  1.0000 -0.1474717371
C   C77       1.0  0.02063  0.02063  0.50000  1.0000 0.0482974351
C   C78       1.0  0.47937  0.97937  0.00000  1.0000 0.0482974351
C   C79       1.0  0.97937  0.97937  0.50000  1.0000 0.0482974351
C   C80       1.0  0.52063  0.02063  0.00000  1.0000 0.0482974351
N   N1        1.0  0.13840  0.13840  0.50000  1.0000 -0.1719085797
N   N2        1.0  0.36160  0.86160  0.00000  1.0000 -0.1719085797
N   N3        1.0  0.86160  0.86160  0.50000  1.0000 -0.1719085797
N   N4        1.0  0.63840  0.13840  0.00000  1.0000 -0.1719085797
O   O1        1.0  0.05708  0.10294  0.16692  1.0000 -0.5404021665
O   O2        1.0  0.44292  0.60984  0.04586  1.0000 -0.5404021665
O   O3        1.0  0.43602  0.39016  0.83308  1.0000 -0.5404021665
O   O4        1.0  0.06398  0.89706  0.95414  1.0000 -0.5404021665
O   O5        1.0  0.94292  0.89706  0.83308  1.0000 -0.5404021665
O   O6        1.0  0.55708  0.39016  0.95414  1.0000 -0.5404021665
O   O7        1.0  0.56398  0.60984  0.16692  1.0000 -0.5404021665
O   O8        1.0  0.93602  0.10294  0.04586  1.0000 -0.5404021665
O   O9        1.0  0.01138  0.96657  0.07655  1.0000 -0.5685891509
O   O10       1.0  0.48862  0.56517  0.95519  1.0000 -0.5685891509
O   O11       1.0  0.39002  0.43483  0.92345  1.0000 -0.5685891509
O   O12       1.0  0.10998  0.03343  0.04481  1.0000 -0.5685891509
O   O13       1.0  0.98862  0.03343  0.92345  1.0000 -0.5685891509
O   O14       1.0  0.51138  0.43483  0.04481  1.0000 -0.5685891509
O   O15       1.0  0.60998  0.56517  0.07655  1.0000 -0.5685891509
O   O16       1.0  0.89002  0.96657  0.95519  1.0000 -0.5685891509
