# DDEC6 charges by PACMAN v1.1 (https://github.com/mtap-research/PACMAN-charge/)
data_2010[Cu][nan]3[ASR]27
_chemical_formula_sum              "Cu8 H12 C32 S4 O32"
_cell_length_a       7.271
_cell_length_b       18.061
_cell_length_c       12.0908
_cell_angle_alpha    90
_cell_angle_beta     122.616
_cell_angle_gamma    90

_symmetry_space_group_name_H-M    "P 1"
_symmetry_Int_Tables_number       1

loop_
  _symmetry_equiv_pos_as_xyz
  'x, y, z'

loop_
  _atom_site_type_symbol
  _atom_site_label
  _atom_site_symmetry_multiplicity
  _atom_site_fract_x
  _atom_site_fract_y
  _atom_site_fract_z
  _atom_site_occupancy
  _atom_site_charge
Cu  Cu1       1.0  0.35139  0.09445  0.21454  1.0000 1.0306837391
Cu  Cu2       1.0  0.64861  0.59445  0.28546  1.0000 1.0306837391
Cu  Cu3       1.0  0.64861  0.90555  0.78546  1.0000 1.0306837391
Cu  Cu4       1.0  0.35139  0.40555  0.71454  1.0000 1.0306837391
Cu  Cu5       1.0  0.89262  0.06840  0.92917  1.0000 1.1403775047
Cu  Cu6       1.0  0.10738  0.56840  0.57083  1.0000 1.1403775047
Cu  Cu7       1.0  0.10738  0.93160  0.07083  1.0000 1.1403775047
Cu  Cu8       1.0  0.89262  0.43160  0.42917  1.0000 1.1403775047
H   H1        1.0  0.38720  0.30840  0.16480  1.0000 0.1490665903
H   H2        1.0  0.61280  0.80840  0.33520  1.0000 0.1490665903
H   H3        1.0  0.61280  0.69160  0.83520  1.0000 0.1490665903
H   H4        1.0  0.38720  0.19160  0.66480  1.0000 0.1490665903
H   H5        1.0  0.86490  0.29350  0.79840  1.0000 0.1490665903
H   H6        1.0  0.13510  0.79350  0.70160  1.0000 0.1490665903
H   H7        1.0  0.13510  0.70650  0.20160  1.0000 0.1490665903
H   H8        1.0  0.86490  0.20650  0.29840  1.0000 0.1490665903
H   H9        1.0  0.16460  0.48870  0.93750  1.0000 0.1490665903
H   H10       1.0  0.83540  0.98870  0.56250  1.0000 0.1490665903
H   H11       1.0  0.83540  0.51130  0.06250  1.0000 0.1490665903
H   H12       1.0  0.16460  0.01130  0.43750  1.0000 0.1490665903
C   C1        1.0  0.99480  0.39590  0.84950  1.0000 -0.0775440553
C   C2        1.0  0.00520  0.89590  0.65050  1.0000 -0.0775440553
C   C3        1.0  0.00520  0.60410  0.15050  1.0000 -0.0775440553
C   C4        1.0  0.99480  0.10410  0.34950  1.0000 -0.0775440553
C   C5        1.0  0.30390  0.40510  0.06930  1.0000 -0.0131018833
C   C6        1.0  0.69610  0.90510  0.43070  1.0000 -0.0131018833
C   C7        1.0  0.69610  0.59490  0.93070  1.0000 -0.0131018833
C   C8        1.0  0.30390  0.09490  0.56930  1.0000 -0.0131018833
C   C9        1.0  0.28660  0.33050  0.08490  1.0000 -0.0775440553
C   C10       1.0  0.71340  0.83050  0.41510  1.0000 -0.0775440553
C   C11       1.0  0.71340  0.66950  0.91510  1.0000 -0.0775440553
C   C12       1.0  0.28660  0.16950  0.58490  1.0000 -0.0775440553
C   C13       1.0  0.12450  0.28740  0.98570  1.0000 -0.0240419573
C   C14       1.0  0.87550  0.78740  0.51430  1.0000 -0.0240419573
C   C15       1.0  0.87550  0.71260  0.01430  1.0000 -0.0240419573
C   C16       1.0  0.12450  0.21260  0.48570  1.0000 -0.0240419573
C   C17       1.0  0.11180  0.20780  0.00830  1.0000 0.6172621529
C   C18       1.0  0.88820  0.70780  0.49170  1.0000 0.6172621529
C   C19       1.0  0.88820  0.79220  0.99170  1.0000 0.6172621529
C   C20       1.0  0.11180  0.29220  0.50830  1.0000 0.6172621529
C   C21       1.0  0.97620  0.32110  0.86650  1.0000 -0.0724873636
C   C22       1.0  0.02380  0.82110  0.63350  1.0000 -0.0724873636
C   C23       1.0  0.02380  0.67890  0.13350  1.0000 -0.0724873636
C   C24       1.0  0.97620  0.17890  0.36650  1.0000 -0.0724873636
C   C25       1.0  0.15530  0.43830  0.94960  1.0000 -0.0775440553
C   C26       1.0  0.84470  0.93830  0.55040  1.0000 -0.0775440553
C   C27       1.0  0.84470  0.56170  0.05040  1.0000 -0.0775440553
C   C28       1.0  0.15530  0.06170  0.44960  1.0000 -0.0775440553
C   C29       1.0  0.48760  0.44680  0.17910  1.0000 0.60976292
C   C30       1.0  0.51240  0.94680  0.32090  1.0000 0.60976292
C   C31       1.0  0.51240  0.55320  0.82090  1.0000 0.60976292
C   C32       1.0  0.48760  0.05320  0.67910  1.0000 0.60976292
S   S1        1.0  0.81969  0.43516  0.69189  1.0000 1.179678304
S   S2        1.0  0.18031  0.93516  0.80811  1.0000 1.179678304
S   S3        1.0  0.18031  0.56484  0.30811  1.0000 1.179678304
S   S4        1.0  0.81969  0.06484  0.19189  1.0000 1.179678304
O   O1        1.0  0.97270  0.16800  0.91560  1.0000 -0.505831616
O   O2        1.0  0.02730  0.66800  0.58440  1.0000 -0.505831616
O   O3        1.0  0.02730  0.83200  0.08440  1.0000 -0.505831616
O   O4        1.0  0.97270  0.33200  0.41560  1.0000 -0.505831616
O   O5        1.0  0.18840  0.03420  0.05730  1.0000 -0.8967376371
O   O6        1.0  0.81160  0.53420  0.44270  1.0000 -0.8967376371
O   O7        1.0  0.81160  0.96580  0.94270  1.0000 -0.8967376371
O   O8        1.0  0.18840  0.46580  0.55730  1.0000 -0.8967376371
O   O9        1.0  0.50750  0.51420  0.16250  1.0000 -0.5506856535
O   O10       1.0  0.49250  0.01420  0.33750  1.0000 -0.5506856535
O   O11       1.0  0.49250  0.48580  0.83750  1.0000 -0.5506856535
O   O12       1.0  0.50750  0.98580  0.66250  1.0000 -0.5506856535
O   O13       1.0  0.24900  0.18610  0.12290  1.0000 -0.5272517074
O   O14       1.0  0.75100  0.68610  0.37710  1.0000 -0.5272517074
O   O15       1.0  0.75100  0.81390  0.87710  1.0000 -0.5272517074
O   O16       1.0  0.24900  0.31390  0.62290  1.0000 -0.5272517074
O   O17       1.0  0.84930  0.51320  0.70200  1.0000 -0.5272517074
O   O18       1.0  0.15070  0.01320  0.79800  1.0000 -0.5272517074
O   O19       1.0  0.15070  0.48680  0.29800  1.0000 -0.5272517074
O   O20       1.0  0.84930  0.98680  0.20200  1.0000 -0.5272517074
O   O21       1.0  0.61020  0.41060  0.28220  1.0000 -0.5002986808
O   O22       1.0  0.38980  0.91060  0.21780  1.0000 -0.5002986808
O   O23       1.0  0.38980  0.58940  0.71780  1.0000 -0.5002986808
O   O24       1.0  0.61020  0.08940  0.78220  1.0000 -0.5002986808
O   O25       1.0  0.88890  0.40150  0.61330  1.0000 -0.623958366
O   O26       1.0  0.11110  0.90150  0.88670  1.0000 -0.623958366
O   O27       1.0  0.11110  0.59850  0.38670  1.0000 -0.623958366
O   O28       1.0  0.88890  0.09850  0.11330  1.0000 -0.623958366
O   O29       1.0  0.60410  0.41050  0.64910  1.0000 -0.5506856535
O   O30       1.0  0.39590  0.91050  0.85090  1.0000 -0.5506856535
O   O31       1.0  0.39590  0.58950  0.35090  1.0000 -0.5506856535
O   O32       1.0  0.60410  0.08950  0.14910  1.0000 -0.5506856535
