# DDEC6 charges by PACMAN v1.1 (https://github.com/mtap-research/PACMAN-charge/)
data_2010[Zn][ttt]3[ASR]1
_chemical_formula_sum              "Zn6 H72 C52 N12 O12"
_cell_length_a       14.142
_cell_length_b       14.142
_cell_length_c       14.142
_cell_angle_alpha    60
_cell_angle_beta     60
_cell_angle_gamma    60

_symmetry_space_group_name_H-M    "P 1"
_symmetry_Int_Tables_number       1

loop_
  _symmetry_equiv_pos_as_xyz
  'x, y, z'

loop_
  _atom_site_type_symbol
  _atom_site_label
  _atom_site_symmetry_multiplicity
  _atom_site_fract_x
  _atom_site_fract_y
  _atom_site_fract_z
  _atom_site_occupancy
  _atom_site_charge
Zn  Zn1       1.0  0.66343  0.66343  0.33657  1.0000 0.7942120855
Zn  Zn2       1.0  0.33657  0.66343  0.66343  1.0000 0.7942120855
Zn  Zn3       1.0  0.66343  0.33657  0.66343  1.0000 0.7942120855
Zn  Zn4       1.0  0.33657  0.66343  0.33657  1.0000 0.7942120855
Zn  Zn5       1.0  0.66343  0.33657  0.33657  1.0000 0.7942120855
Zn  Zn6       1.0  0.33657  0.33657  0.66343  1.0000 0.7942120855
H   H1        1.0  0.64680  0.83520  0.37500  1.0000 0.236310867
H   H2        1.0  0.37500  0.64680  0.83520  1.0000 0.236310867
H   H3        1.0  0.83520  0.37500  0.64680  1.0000 0.236310867
H   H4        1.0  0.37500  0.83520  0.14300  1.0000 0.236310867
H   H5        1.0  0.14300  0.83520  0.64680  1.0000 0.236310867
H   H6        1.0  0.64680  0.14300  0.83520  1.0000 0.236310867
H   H7        1.0  0.64680  0.37500  0.14300  1.0000 0.236310867
H   H8        1.0  0.83520  0.14300  0.37500  1.0000 0.236310867
H   H9        1.0  0.14300  0.64680  0.37500  1.0000 0.236310867
H   H10       1.0  0.83520  0.64680  0.14300  1.0000 0.236310867
H   H11       1.0  0.14300  0.37500  0.83520  1.0000 0.236310867
H   H12       1.0  0.37500  0.14300  0.64680  1.0000 0.236310867
H   H13       1.0  0.66730  0.71170  0.53210  1.0000 0.1105929199
H   H14       1.0  0.53210  0.66730  0.71170  1.0000 0.1105929199
H   H15       1.0  0.71170  0.53210  0.66730  1.0000 0.1105929199
H   H16       1.0  0.53210  0.71170  0.08890  1.0000 0.1105929199
H   H17       1.0  0.08890  0.71170  0.66730  1.0000 0.1105929199
H   H18       1.0  0.66730  0.08890  0.71170  1.0000 0.1105929199
H   H19       1.0  0.66730  0.53210  0.08890  1.0000 0.1105929199
H   H20       1.0  0.71170  0.08890  0.53210  1.0000 0.1105929199
H   H21       1.0  0.08890  0.66730  0.53210  1.0000 0.1105929199
H   H22       1.0  0.71170  0.66730  0.08890  1.0000 0.1105929199
H   H23       1.0  0.08890  0.53210  0.71170  1.0000 0.1105929199
H   H24       1.0  0.53210  0.08890  0.66730  1.0000 0.1105929199
H   H25       1.0  0.79340  0.63320  0.47440  1.0000 0.1105929199
H   H26       1.0  0.47440  0.79340  0.63320  1.0000 0.1105929199
H   H27       1.0  0.63320  0.47440  0.79340  1.0000 0.1105929199
H   H28       1.0  0.47440  0.63320  0.09900  1.0000 0.1105929199
H   H29       1.0  0.09900  0.63320  0.79340  1.0000 0.1105929199
H   H30       1.0  0.79340  0.09900  0.63320  1.0000 0.1105929199
H   H31       1.0  0.79340  0.47440  0.09900  1.0000 0.1105929199
H   H32       1.0  0.63320  0.09900  0.47440  1.0000 0.1105929199
H   H33       1.0  0.09900  0.79340  0.47440  1.0000 0.1105929199
H   H34       1.0  0.63320  0.79340  0.09900  1.0000 0.1105929199
H   H35       1.0  0.09900  0.47440  0.63320  1.0000 0.1105929199
H   H36       1.0  0.47440  0.09900  0.79340  1.0000 0.1105929199
H   H37       1.0  0.94890  0.65270  0.47150  1.0000 0.1155032777
H   H38       1.0  0.47150  0.94890  0.65270  1.0000 0.1155032777
H   H39       1.0  0.65270  0.47150  0.94890  1.0000 0.1155032777
H   H40       1.0  0.47150  0.65270  0.92690  1.0000 0.1155032777
H   H41       1.0  0.92690  0.65270  0.94890  1.0000 0.1155032777
H   H42       1.0  0.94890  0.92690  0.65270  1.0000 0.1155032777
H   H43       1.0  0.94890  0.47150  0.92690  1.0000 0.1155032777
H   H44       1.0  0.65270  0.92690  0.47150  1.0000 0.1155032777
H   H45       1.0  0.92690  0.94890  0.47150  1.0000 0.1155032777
H   H46       1.0  0.65270  0.94890  0.92690  1.0000 0.1155032777
H   H47       1.0  0.92690  0.47150  0.65270  1.0000 0.1155032777
H   H48       1.0  0.47150  0.92690  0.94890  1.0000 0.1155032777
H   H49       1.0  0.88040  0.73760  0.25980  1.0000 0.1035648119
H   H50       1.0  0.25980  0.88040  0.73760  1.0000 0.1035648119
H   H51       1.0  0.73760  0.25980  0.88040  1.0000 0.1035648119
H   H52       1.0  0.25980  0.73760  0.12220  1.0000 0.1035648119
H   H53       1.0  0.12220  0.73760  0.88040  1.0000 0.1035648119
H   H54       1.0  0.88040  0.12220  0.73760  1.0000 0.1035648119
H   H55       1.0  0.88040  0.25980  0.12220  1.0000 0.1035648119
H   H56       1.0  0.73760  0.12220  0.25980  1.0000 0.1035648119
H   H57       1.0  0.12220  0.88040  0.25980  1.0000 0.1035648119
H   H58       1.0  0.73760  0.88040  0.12220  1.0000 0.1035648119
H   H59       1.0  0.12220  0.25980  0.73760  1.0000 0.1035648119
H   H60       1.0  0.25980  0.12220  0.88040  1.0000 0.1035648119
H   H61       1.0  0.80440  0.87140  0.24000  1.0000 0.1035648119
H   H62       1.0  0.24000  0.80440  0.87140  1.0000 0.1035648119
H   H63       1.0  0.87140  0.24000  0.80440  1.0000 0.1035648119
H   H64       1.0  0.24000  0.87140  0.08420  1.0000 0.1035648119
H   H65       1.0  0.08420  0.87140  0.80440  1.0000 0.1035648119
H   H66       1.0  0.80440  0.08420  0.87140  1.0000 0.1035648119
H   H67       1.0  0.80440  0.24000  0.08420  1.0000 0.1035648119
H   H68       1.0  0.87140  0.08420  0.24000  1.0000 0.1035648119
H   H69       1.0  0.08420  0.80440  0.24000  1.0000 0.1035648119
H   H70       1.0  0.87140  0.80440  0.08420  1.0000 0.1035648119
H   H71       1.0  0.08420  0.24000  0.87140  1.0000 0.1035648119
H   H72       1.0  0.24000  0.08420  0.80440  1.0000 0.1035648119
C   C1        1.0  0.74014  0.71408  0.46586  1.0000 -0.2070187305
C   C2        1.0  0.46586  0.74014  0.71408  1.0000 -0.2070187305
C   C3        1.0  0.71408  0.46586  0.74014  1.0000 -0.2070187305
C   C4        1.0  0.46586  0.71408  0.07992  1.0000 -0.2070187305
C   C5        1.0  0.07992  0.71408  0.74014  1.0000 -0.2070187305
C   C6        1.0  0.74014  0.07992  0.71408  1.0000 -0.2070187305
C   C7        1.0  0.74014  0.46586  0.07992  1.0000 -0.2070187305
C   C8        1.0  0.71408  0.07992  0.46586  1.0000 -0.2070187305
C   C9        1.0  0.07992  0.74014  0.46586  1.0000 -0.2070187305
C   C10       1.0  0.71408  0.74014  0.07992  1.0000 -0.2070187305
C   C11       1.0  0.07992  0.46586  0.71408  1.0000 -0.2070187305
C   C12       1.0  0.46586  0.07992  0.74014  1.0000 -0.2070187305
C   C13       1.0  0.79298  0.77924  0.47102  1.0000 0.1105929199
C   C14       1.0  0.47102  0.79298  0.77924  1.0000 0.1105929199
C   C15       1.0  0.77924  0.47102  0.79298  1.0000 0.1105929199
C   C16       1.0  0.47102  0.77924  0.95676  1.0000 0.1105929199
C   C17       1.0  0.95676  0.77924  0.79298  1.0000 0.1105929199
C   C18       1.0  0.79298  0.95676  0.77924  1.0000 0.1105929199
C   C19       1.0  0.79298  0.47102  0.95676  1.0000 0.1105929199
C   C20       1.0  0.77924  0.95676  0.47102  1.0000 0.1105929199
C   C21       1.0  0.95676  0.79298  0.47102  1.0000 0.1105929199
C   C22       1.0  0.77924  0.79298  0.95676  1.0000 0.1105929199
C   C23       1.0  0.95676  0.47102  0.77924  1.0000 0.1105929199
C   C24       1.0  0.47102  0.95676  0.79298  1.0000 0.1105929199
C   C25       1.0  0.90583  0.73015  0.47125  1.0000 -0.2500094721
C   C26       1.0  0.47125  0.90583  0.73015  1.0000 -0.2500094721
C   C27       1.0  0.73015  0.47125  0.90583  1.0000 -0.2500094721
C   C28       1.0  0.47125  0.73015  0.89277  1.0000 -0.2500094721
C   C29       1.0  0.89277  0.73015  0.90583  1.0000 -0.2500094721
C   C30       1.0  0.90583  0.89277  0.73015  1.0000 -0.2500094721
C   C31       1.0  0.90583  0.47125  0.89277  1.0000 -0.2500094721
C   C32       1.0  0.73015  0.89277  0.47125  1.0000 -0.2500094721
C   C33       1.0  0.89277  0.90583  0.47125  1.0000 -0.2500094721
C   C34       1.0  0.73015  0.90583  0.89277  1.0000 -0.2500094721
C   C35       1.0  0.89277  0.47125  0.73015  1.0000 -0.2500094721
C   C36       1.0  0.47125  0.89277  0.90583  1.0000 -0.2500094721
C   C37       1.0  0.80535  0.79611  0.25123  1.0000 -0.1281755623
C   C38       1.0  0.25123  0.80535  0.79611  1.0000 -0.1281755623
C   C39       1.0  0.79611  0.25123  0.80535  1.0000 -0.1281755623
C   C40       1.0  0.25123  0.79611  0.14731  1.0000 -0.1281755623
C   C41       1.0  0.14731  0.79611  0.80535  1.0000 -0.1281755623
C   C42       1.0  0.80535  0.14731  0.79611  1.0000 -0.1281755623
C   C43       1.0  0.80535  0.25123  0.14731  1.0000 -0.1281755623
C   C44       1.0  0.79611  0.14731  0.25123  1.0000 -0.1281755623
C   C45       1.0  0.14731  0.80535  0.25123  1.0000 -0.1281755623
C   C46       1.0  0.79611  0.80535  0.14731  1.0000 -0.1281755623
C   C47       1.0  0.14731  0.25123  0.79611  1.0000 -0.1281755623
C   C48       1.0  0.25123  0.14731  0.80535  1.0000 -0.1281755623
C   C49       1.0  0.71006  0.42998  0.42998  1.0000 0.7630517309
C   C50       1.0  0.42998  0.71006  0.42998  1.0000 0.7630517309
C   C51       1.0  0.42998  0.42998  0.71006  1.0000 0.7630517309
C   C52       1.0  0.42998  0.42998  0.42998  1.0000 0.7630517309
N   N1        1.0  0.71463  0.76517  0.35483  1.0000 -0.3014771988
N   N2        1.0  0.35483  0.71463  0.76517  1.0000 -0.3014771988
N   N3        1.0  0.76517  0.35483  0.71463  1.0000 -0.3014771988
N   N4        1.0  0.35483  0.76517  0.16537  1.0000 -0.3014771988
N   N5        1.0  0.16537  0.76517  0.71463  1.0000 -0.3014771988
N   N6        1.0  0.71463  0.16537  0.76517  1.0000 -0.3014771988
N   N7        1.0  0.71463  0.35483  0.16537  1.0000 -0.3014771988
N   N8        1.0  0.76517  0.16537  0.35483  1.0000 -0.3014771988
N   N9        1.0  0.16537  0.71463  0.35483  1.0000 -0.3014771988
N   N10       1.0  0.76517  0.71463  0.16537  1.0000 -0.3014771988
N   N11       1.0  0.16537  0.35483  0.76517  1.0000 -0.3014771988
N   N12       1.0  0.35483  0.16537  0.71463  1.0000 -0.3014771988
O   O1        1.0  0.70999  0.51011  0.44873  1.0000 -0.6554981842
O   O2        1.0  0.44873  0.70999  0.51011  1.0000 -0.6554981842
O   O3        1.0  0.51011  0.44873  0.70999  1.0000 -0.6554981842
O   O4        1.0  0.44873  0.51011  0.33117  1.0000 -0.6554981842
O   O5        1.0  0.33117  0.51011  0.70999  1.0000 -0.6554981842
O   O6        1.0  0.70999  0.33117  0.51011  1.0000 -0.6554981842
O   O7        1.0  0.70999  0.44873  0.33117  1.0000 -0.6554981842
O   O8        1.0  0.51011  0.33117  0.44873  1.0000 -0.6554981842
O   O9        1.0  0.33117  0.70999  0.44873  1.0000 -0.6554981842
O   O10       1.0  0.51011  0.70999  0.33117  1.0000 -0.6554981842
O   O11       1.0  0.33117  0.44873  0.51011  1.0000 -0.6554981842
O   O12       1.0  0.44873  0.33117  0.70999  1.0000 -0.6554981842
