# DDEC6 charges by PACMAN v1.1 (https://github.com/mtap-research/PACMAN-charge/)
data_2010[Cu][tfz]3[ASR]1
_chemical_formula_sum              "Cu4 H22 C44 N10 O16"
_cell_length_a       8.497
_cell_length_b       9.49
_cell_length_c       14.135
_cell_angle_alpha    99.45
_cell_angle_beta     88.56
_cell_angle_gamma    106.49

_symmetry_space_group_name_H-M    "P 1"
_symmetry_Int_Tables_number       1

loop_
  _symmetry_equiv_pos_as_xyz
  'x, y, z'

loop_
  _atom_site_type_symbol
  _atom_site_label
  _atom_site_symmetry_multiplicity
  _atom_site_fract_x
  _atom_site_fract_y
  _atom_site_fract_z
  _atom_site_occupancy
  _atom_site_charge
Cu  Cu1       1.0  0.55652  0.35585  0.14309  1.0000 0.8246682577
Cu  Cu2       1.0  0.44348  0.64415  0.85691  1.0000 0.8252232961
Cu  Cu3       1.0  0.51539  0.20156  0.90222  1.0000 0.8556703619
Cu  Cu4       1.0  0.48461  0.79844  0.09778  1.0000 0.8556703619
H   H1        1.0  0.06360  0.09980  0.17400  1.0000 0.1276968784
H   H2        1.0  0.93640  0.90020  0.82600  1.0000 0.1276968784
H   H3        1.0  0.96600  0.62290  0.01020  1.0000 0.1276968784
H   H4        1.0  0.03400  0.37710  0.98980  1.0000 0.1276968784
H   H5        1.0  0.57990  0.62780  0.28940  1.0000 0.1136516611
H   H6        1.0  0.42010  0.37220  0.71060  1.0000 0.1136516611
H   H7        1.0  0.45720  0.69610  0.42850  1.0000 0.1422718134
H   H8        1.0  0.54280  0.30390  0.57150  1.0000 0.1422718134
H   H9        1.0  0.22330  0.26610  0.42720  1.0000 0.1472191207
H   H10       1.0  0.77670  0.73390  0.57280  1.0000 0.1472191207
H   H11       1.0  0.35070  0.20860  0.28820  1.0000 0.1136516611
H   H12       1.0  0.64930  0.79140  0.71180  1.0000 0.1136516611
H   H13       1.0  0.90880  0.22180  0.63920  1.0000 0.1422718134
H   H14       1.0  0.09120  0.77820  0.36080  1.0000 0.1422718134
H   H15       1.0  0.69900  0.11590  0.73310  1.0000 0.1163514621
H   H16       1.0  0.30100  0.88410  0.26690  1.0000 0.1163514621
H   H17       1.0  0.73180  0.49930  0.89300  1.0000 0.1136516611
H   H18       1.0  0.26820  0.50070  0.10700  1.0000 0.1136516611
H   H19       1.0  0.93490  0.61700  0.79940  1.0000 0.1422718134
H   H20       1.0  0.06510  0.38300  0.20060  1.0000 0.1422718134
H   H21       1.0  0.14080  0.71880  0.69580  1.0000 0.2913279228
H   H22       1.0  0.85920  0.28120  0.30420  1.0000 0.2913279228
C   C1        1.0  0.30250  0.08990  0.05280  1.0000 0.5812840454
C   C2        1.0  0.69750  0.91010  0.94720  1.0000 0.5812840454
C   C3        1.0  0.15440  0.97060  0.07250  1.0000 -0.0664841988
C   C4        1.0  0.84560  0.02940  0.92750  1.0000 -0.0664841988
C   C5        1.0  0.04090  0.00440  0.13870  1.0000 -0.1096279703
C   C6        1.0  0.95910  0.99560  0.86130  1.0000 -0.1096279703
C   C7        1.0  0.89500  0.89960  0.15320  1.0000 -0.0417300321
C   C8        1.0  0.10500  0.10040  0.84680  1.0000 -0.0417300321
C   C9        1.0  0.86780  0.75420  0.10470  1.0000 -0.0203339726
C   C10       1.0  0.13220  0.24580  0.89530  1.0000 -0.0203339726
C   C11       1.0  0.98360  0.72060  0.04110  1.0000 -0.1525553174
C   C12       1.0  0.01640  0.27940  0.95890  1.0000 -0.157973325
C   C13       1.0  0.12430  0.82680  0.02190  1.0000 -0.0286919073
C   C14       1.0  0.87570  0.17320  0.97810  1.0000 -0.0286919073
C   C15       1.0  0.23480  0.77640  0.94710  1.0000 0.5812840454
C   C16       1.0  0.76520  0.22360  0.05290  1.0000 0.5812840454
C   C17       1.0  0.77540  0.94950  0.22350  1.0000 0.5938120476
C   C18       1.0  0.22460  0.05050  0.77650  1.0000 0.5938120476
C   C19       1.0  0.72190  0.62500  0.11550  1.0000 0.5641641907
C   C20       1.0  0.27810  0.37500  0.88450  1.0000 0.5641641907
C   C21       1.0  0.50540  0.55420  0.31700  1.0000 0.0928579785
C   C22       1.0  0.49460  0.44580  0.68300  1.0000 0.0928579785
C   C23       1.0  0.43250  0.59640  0.40060  1.0000 -0.179633946
C   C24       1.0  0.56750  0.40360  0.59940  1.0000 -0.179633946
C   C25       1.0  0.32220  0.48870  0.44260  1.0000 0.0819274597
C   C26       1.0  0.67780  0.51130  0.55740  1.0000 0.0819274597
C   C27       1.0  0.29410  0.34180  0.39960  1.0000 -0.1729004689
C   C28       1.0  0.70590  0.65820  0.60040  1.0000 -0.1729004689
C   C29       1.0  0.37110  0.30810  0.31620  1.0000 0.0819274597
C   C30       1.0  0.62890  0.69190  0.68380  1.0000 0.0819274597
C   C31       1.0  0.23420  0.52580  0.52970  1.0000 0.2391368143
C   C32       1.0  0.76580  0.47420  0.47030  1.0000 0.2391368143
C   C33       1.0  0.07180  0.49950  0.64310  1.0000 0.2626591616
C   C34       1.0  0.92820  0.50050  0.35690  1.0000 0.2626591616
C   C35       1.0  0.94460  0.43370  0.70820  1.0000 0.0819274597
C   C36       1.0  0.05540  0.56630  0.29180  1.0000 0.0819274597
C   C37       1.0  0.87320  0.28060  0.68950  1.0000 -0.1525553174
C   C38       1.0  0.12680  0.71940  0.31050  1.0000 -0.1525553174
C   C39       1.0  0.74890  0.21790  0.74710  1.0000 0.0819274597
C   C40       1.0  0.25110  0.78210  0.25290  1.0000 0.0819274597
C   C41       1.0  0.76680  0.44340  0.84070  1.0000 0.0819274597
C   C42       1.0  0.23320  0.55660  0.15930  1.0000 0.0819274597
C   C43       1.0  0.88930  0.51440  0.78510  1.0000 -0.157973325
C   C44       1.0  0.11070  0.48560  0.21490  1.0000 -0.157973325
N   N1        1.0  0.47440  0.41210  0.27300  1.0000 -0.2581136086
N   N2        1.0  0.52560  0.58790  0.72700  1.0000 -0.2581136086
N   N3        1.0  0.12110  0.42110  0.56800  1.0000 -0.4082736083
N   N4        1.0  0.87890  0.57890  0.43200  1.0000 -0.4082736083
N   N5        1.0  0.25720  0.66290  0.57570  1.0000 -0.2421220921
N   N6        1.0  0.74280  0.33710  0.42430  1.0000 -0.2421220921
N   N7        1.0  0.15190  0.64440  0.64900  1.0000 -0.1164104238
N   N8        1.0  0.84810  0.35560  0.35100  1.0000 -0.1164104238
N   N9        1.0  0.69650  0.29640  0.82190  1.0000 -0.2477003791
N   N10       1.0  0.30350  0.70360  0.17810  1.0000 -0.2477003791
O   O1        1.0  0.34830  0.20410  0.11520  1.0000 -0.5361135312
O   O2        1.0  0.65170  0.79590  0.88480  1.0000 -0.5361135312
O   O3        1.0  0.36650  0.06530  0.97340  1.0000 -0.5060938008
O   O4        1.0  0.63350  0.93470  0.02660  1.0000 -0.5060938008
O   O5        1.0  0.34690  0.72380  0.97710  1.0000 -0.5529930897
O   O6        1.0  0.65310  0.27620  0.02290  1.0000 -0.5529930897
O   O7        1.0  0.21130  0.77050  0.86220  1.0000 -0.4769037076
O   O8        1.0  0.78870  0.22950  0.13780  1.0000 -0.4769037076
O   O9        1.0  0.62190  0.88540  0.21270  1.0000 -0.5669162877
O   O10       1.0  0.37810  0.11460  0.78730  1.0000 -0.5669162877
O   O11       1.0  0.83540  0.05160  0.28990  1.0000 -0.5281383999
O   O12       1.0  0.16460  0.94840  0.71010  1.0000 -0.5281383999
O   O13       1.0  0.74870  0.52870  0.15950  1.0000 -0.4916237302
O   O14       1.0  0.25130  0.47130  0.84050  1.0000 -0.4916237302
O   O15       1.0  0.58700  0.61150  0.07740  1.0000 -0.5669162877
O   O16       1.0  0.41300  0.38850  0.92260  1.0000 -0.5669162877
