# DDEC6 charges by PACMAN v1.1 (https://github.com/mtap-research/PACMAN-charge/)
data_2010[Cu][nan]3[ASR]25
_chemical_formula_sum              "Cu8 H12 C32 S4 O32"
_cell_length_a       7.301
_cell_length_b       18.048
_cell_length_c       12.0947
_cell_angle_alpha    90
_cell_angle_beta     122.674
_cell_angle_gamma    90

_symmetry_space_group_name_H-M    "P 1"
_symmetry_Int_Tables_number       1

loop_
  _symmetry_equiv_pos_as_xyz
  'x, y, z'

loop_
  _atom_site_type_symbol
  _atom_site_label
  _atom_site_symmetry_multiplicity
  _atom_site_fract_x
  _atom_site_fract_y
  _atom_site_fract_z
  _atom_site_occupancy
  _atom_site_charge
Cu  Cu1       1.0  0.35089  0.09466  0.21593  1.0000 1.0231487317
Cu  Cu2       1.0  0.64911  0.59466  0.28407  1.0000 1.0231487317
Cu  Cu3       1.0  0.64911  0.90534  0.78407  1.0000 1.0231487317
Cu  Cu4       1.0  0.35089  0.40534  0.71593  1.0000 1.0231487317
Cu  Cu5       1.0  0.89001  0.06841  0.93001  1.0000 1.1410320563
Cu  Cu6       1.0  0.10999  0.56841  0.56999  1.0000 1.1410320563
Cu  Cu7       1.0  0.10999  0.93159  0.06999  1.0000 1.1410320563
Cu  Cu8       1.0  0.89001  0.43159  0.43001  1.0000 1.1410320563
H   H1        1.0  0.38580  0.30780  0.16430  1.0000 0.1504824584
H   H2        1.0  0.61420  0.80780  0.33570  1.0000 0.1504824584
H   H3        1.0  0.61420  0.69220  0.83570  1.0000 0.1504824584
H   H4        1.0  0.38580  0.19220  0.66430  1.0000 0.1504824584
H   H5        1.0  0.86280  0.29230  0.79880  1.0000 0.1504824584
H   H6        1.0  0.13720  0.79230  0.70120  1.0000 0.1504824584
H   H7        1.0  0.13720  0.70770  0.20120  1.0000 0.1504824584
H   H8        1.0  0.86280  0.20770  0.29880  1.0000 0.1504824584
H   H9        1.0  0.16320  0.48930  0.93540  1.0000 0.1504824584
H   H10       1.0  0.83680  0.98930  0.56460  1.0000 0.1504824584
H   H11       1.0  0.83680  0.51070  0.06460  1.0000 0.1504824584
H   H12       1.0  0.16320  0.01070  0.43540  1.0000 0.1504824584
C   C1        1.0  0.99240  0.39640  0.84870  1.0000 -0.0676801285
C   C2        1.0  0.00760  0.89640  0.65130  1.0000 -0.0676801285
C   C3        1.0  0.00760  0.60360  0.15130  1.0000 -0.0676801285
C   C4        1.0  0.99240  0.10360  0.34870  1.0000 -0.0676801285
C   C5        1.0  0.30180  0.40510  0.07010  1.0000 0.0039956927
C   C6        1.0  0.69820  0.90510  0.42990  1.0000 0.0039956927
C   C7        1.0  0.69820  0.59490  0.92990  1.0000 0.0039956927
C   C8        1.0  0.30180  0.09490  0.57010  1.0000 0.0050687029
C   C9        1.0  0.28450  0.33040  0.08510  1.0000 -0.0886409931
C   C10       1.0  0.71550  0.83040  0.41490  1.0000 -0.0886409931
C   C11       1.0  0.71550  0.66960  0.91490  1.0000 -0.0886409931
C   C12       1.0  0.28450  0.16960  0.58510  1.0000 -0.0886409931
C   C13       1.0  0.12200  0.28810  0.98660  1.0000 -0.0015364786
C   C14       1.0  0.87800  0.78810  0.51340  1.0000 -0.0015364786
C   C15       1.0  0.87800  0.71190  0.01340  1.0000 -0.0015364786
C   C16       1.0  0.12200  0.21190  0.48660  1.0000 -0.0015364786
C   C17       1.0  0.11300  0.20700  0.01160  1.0000 0.6203352225
C   C18       1.0  0.88700  0.70700  0.48840  1.0000 0.6203352225
C   C19       1.0  0.88700  0.79300  0.98840  1.0000 0.6203352225
C   C20       1.0  0.11300  0.29300  0.51160  1.0000 0.6203352225
C   C21       1.0  0.97330  0.32050  0.86650  1.0000 -0.081774444
C   C22       1.0  0.02670  0.82050  0.63350  1.0000 -0.081774444
C   C23       1.0  0.02670  0.67950  0.13350  1.0000 -0.081774444
C   C24       1.0  0.97330  0.17950  0.36650  1.0000 -0.081774444
C   C25       1.0  0.15280  0.43900  0.94810  1.0000 -0.0886409931
C   C26       1.0  0.84720  0.93900  0.55190  1.0000 -0.0886409931
C   C27       1.0  0.84720  0.56100  0.05190  1.0000 -0.0886409931
C   C28       1.0  0.15280  0.06100  0.44810  1.0000 -0.0886409931
C   C29       1.0  0.48650  0.44710  0.18080  1.0000 0.6074845357
C   C30       1.0  0.51350  0.94710  0.31920  1.0000 0.6074845357
C   C31       1.0  0.51350  0.55290  0.81920  1.0000 0.6074845357
C   C32       1.0  0.48650  0.05290  0.68080  1.0000 0.6074845357
S   S1        1.0  0.81369  0.43481  0.69039  1.0000 1.1839684112
S   S2        1.0  0.18631  0.93481  0.80961  1.0000 1.1856210095
S   S3        1.0  0.18631  0.56519  0.30961  1.0000 1.1856210095
S   S4        1.0  0.81369  0.06519  0.19039  1.0000 1.1839684112
O   O1        1.0  0.97170  0.16780  0.91510  1.0000 -0.5214560466
O   O2        1.0  0.02830  0.66780  0.58490  1.0000 -0.5214560466
O   O3        1.0  0.02830  0.83220  0.08490  1.0000 -0.5214560466
O   O4        1.0  0.97170  0.33220  0.41510  1.0000 -0.5214560466
O   O5        1.0  0.18550  0.03480  0.05670  1.0000 -0.9071389573
O   O6        1.0  0.81450  0.53480  0.44330  1.0000 -0.9071389573
O   O7        1.0  0.81450  0.96520  0.94330  1.0000 -0.9071389573
O   O8        1.0  0.18550  0.46520  0.55670  1.0000 -0.9071389573
O   O9        1.0  0.50670  0.51380  0.16270  1.0000 -0.5435329365
O   O10       1.0  0.49330  0.01380  0.33730  1.0000 -0.5435329365
O   O11       1.0  0.49330  0.48620  0.83730  1.0000 -0.5435329365
O   O12       1.0  0.50670  0.98620  0.66270  1.0000 -0.5435329365
O   O13       1.0  0.24660  0.18620  0.12430  1.0000 -0.5116044568
O   O14       1.0  0.75340  0.68620  0.37570  1.0000 -0.5116044568
O   O15       1.0  0.75340  0.81380  0.87570  1.0000 -0.5116044568
O   O16       1.0  0.24660  0.31380  0.62430  1.0000 -0.5116044568
O   O17       1.0  0.83910  0.51290  0.70050  1.0000 -0.5265292065
O   O18       1.0  0.16090  0.01290  0.79950  1.0000 -0.5265292065
O   O19       1.0  0.16090  0.48710  0.29950  1.0000 -0.5265292065
O   O20       1.0  0.83910  0.98710  0.20050  1.0000 -0.5265292065
O   O21       1.0  0.60260  0.41060  0.28280  1.0000 -0.4940055671
O   O22       1.0  0.39740  0.91060  0.21720  1.0000 -0.4940055671
O   O23       1.0  0.39740  0.58940  0.71720  1.0000 -0.4940055671
O   O24       1.0  0.60260  0.08940  0.78280  1.0000 -0.4940055671
O   O25       1.0  0.88570  0.40150  0.61210  1.0000 -0.6370049404
O   O26       1.0  0.11430  0.90150  0.88790  1.0000 -0.6370049404
O   O27       1.0  0.11430  0.59850  0.38790  1.0000 -0.6370049404
O   O28       1.0  0.88570  0.09850  0.11210  1.0000 -0.6370049404
O   O29       1.0  0.59980  0.40820  0.64760  1.0000 -0.5629614281
O   O30       1.0  0.40020  0.90820  0.85240  1.0000 -0.5629614281
O   O31       1.0  0.40020  0.59180  0.35240  1.0000 -0.5629614281
O   O32       1.0  0.59980  0.09180  0.14760  1.0000 -0.5629614281
