# DDEC6 charges by PACMAN v1.1 (https://github.com/mtap-research/PACMAN-charge/)
data_2010[Cu][nan]3[ASR]13
_chemical_formula_sum              "Cu8 H12 C32 S4 O32"
_cell_length_a       7.3413
_cell_length_b       18.175
_cell_length_c       12.0748
_cell_angle_alpha    90
_cell_angle_beta     122.999
_cell_angle_gamma    90

_symmetry_space_group_name_H-M    "P 1"
_symmetry_Int_Tables_number       1

loop_
  _symmetry_equiv_pos_as_xyz
  'x, y, z'

loop_
  _atom_site_type_symbol
  _atom_site_label
  _atom_site_symmetry_multiplicity
  _atom_site_fract_x
  _atom_site_fract_y
  _atom_site_fract_z
  _atom_site_occupancy
  _atom_site_charge
Cu  Cu1       1.0  0.35142  0.09435  0.21779  1.0000 1.0419007303
Cu  Cu2       1.0  0.64858  0.59435  0.28221  1.0000 1.0419007303
Cu  Cu3       1.0  0.64858  0.90565  0.78221  1.0000 1.0419007303
Cu  Cu4       1.0  0.35142  0.40565  0.71779  1.0000 1.0419007303
Cu  Cu5       1.0  0.88659  0.06843  0.93247  1.0000 1.146861142
Cu  Cu6       1.0  0.11341  0.56843  0.56753  1.0000 1.146861142
Cu  Cu7       1.0  0.11341  0.93157  0.06753  1.0000 1.146861142
Cu  Cu8       1.0  0.88659  0.43157  0.43247  1.0000 1.146861142
H   H1        1.0  0.38280  0.30680  0.16550  1.0000 0.1482707918
H   H2        1.0  0.61720  0.80680  0.33450  1.0000 0.1482707918
H   H3        1.0  0.61720  0.69320  0.83450  1.0000 0.1482707918
H   H4        1.0  0.38280  0.19320  0.66550  1.0000 0.1482707918
H   H5        1.0  0.85330  0.29330  0.79680  1.0000 0.1482707918
H   H6        1.0  0.14670  0.79330  0.70320  1.0000 0.1482707918
H   H7        1.0  0.14670  0.70670  0.20320  1.0000 0.1482707918
H   H8        1.0  0.85330  0.20670  0.29680  1.0000 0.1482707918
H   H9        1.0  0.15840  0.48820  0.93800  1.0000 0.1482707918
H   H10       1.0  0.84160  0.98820  0.56200  1.0000 0.1482707918
H   H11       1.0  0.84160  0.51180  0.06200  1.0000 0.1482707918
H   H12       1.0  0.15840  0.01180  0.43800  1.0000 0.1482707918
C   C1        1.0  0.98570  0.39551  0.84930  1.0000 -0.0636282745
C   C2        1.0  0.01430  0.89551  0.65070  1.0000 -0.0636282745
C   C3        1.0  0.01430  0.60449  0.15070  1.0000 -0.0636282745
C   C4        1.0  0.98570  0.10449  0.34930  1.0000 -0.0636282745
C   C5        1.0  0.29710  0.40446  0.07030  1.0000 -0.0017630633
C   C6        1.0  0.70290  0.90446  0.42970  1.0000 -0.0017630633
C   C7        1.0  0.70290  0.59554  0.92970  1.0000 -0.0017630633
C   C8        1.0  0.29710  0.09554  0.57030  1.0000 -0.0017630633
C   C9        1.0  0.28090  0.32932  0.08610  1.0000 -0.0838589254
C   C10       1.0  0.71910  0.82932  0.41390  1.0000 -0.0838589254
C   C11       1.0  0.71910  0.67068  0.91390  1.0000 -0.0838589254
C   C12       1.0  0.28090  0.17068  0.58610  1.0000 -0.0838589254
C   C13       1.0  0.11510  0.28762  0.98510  1.0000 -0.0017630633
C   C14       1.0  0.88490  0.78762  0.51490  1.0000 -0.0017630633
C   C15       1.0  0.88490  0.71238  0.01490  1.0000 -0.0017630633
C   C16       1.0  0.11510  0.21238  0.48510  1.0000 -0.0017630633
C   C17       1.0  0.10450  0.20712  0.00900  1.0000 0.6242080689
C   C18       1.0  0.89550  0.70712  0.49100  1.0000 0.6242080689
C   C19       1.0  0.89550  0.79288  0.99100  1.0000 0.6242080689
C   C20       1.0  0.10450  0.29288  0.50900  1.0000 0.6242080689
C   C21       1.0  0.96520  0.32066  0.86520  1.0000 -0.0874944679
C   C22       1.0  0.03480  0.82066  0.63480  1.0000 -0.0874944679
C   C23       1.0  0.03480  0.67934  0.13480  1.0000 -0.0874944679
C   C24       1.0  0.96520  0.17934  0.36520  1.0000 -0.0874944679
C   C25       1.0  0.14860  0.43820  0.95030  1.0000 -0.0874944679
C   C26       1.0  0.85140  0.93820  0.54970  1.0000 -0.0874944679
C   C27       1.0  0.85140  0.56180  0.04970  1.0000 -0.0874944679
C   C28       1.0  0.14860  0.06180  0.45030  1.0000 -0.0874944679
C   C29       1.0  0.48030  0.44620  0.18230  1.0000 0.6122053922
C   C30       1.0  0.51970  0.94620  0.31770  1.0000 0.6122053922
C   C31       1.0  0.51970  0.55380  0.81770  1.0000 0.6122053922
C   C32       1.0  0.48030  0.05380  0.68230  1.0000 0.6122053922
S   S1        1.0  0.80883  0.43448  0.69083  1.0000 1.1878176094
S   S2        1.0  0.19117  0.93448  0.80917  1.0000 1.1878176094
S   S3        1.0  0.19117  0.56552  0.30917  1.0000 1.1878176094
S   S4        1.0  0.80883  0.06552  0.19083  1.0000 1.1878176094
O   O1        1.0  0.96458  0.16797  0.91498  1.0000 -0.5112096011
O   O2        1.0  0.03542  0.66797  0.58502  1.0000 -0.5112096011
O   O3        1.0  0.03542  0.83203  0.08502  1.0000 -0.5112096011
O   O4        1.0  0.96458  0.33203  0.41498  1.0000 -0.5112096011
O   O5        1.0  0.18627  0.03504  0.05717  1.0000 -0.9001015364
O   O6        1.0  0.81373  0.53504  0.44283  1.0000 -0.9001015364
O   O7        1.0  0.81373  0.96496  0.94283  1.0000 -0.9001015364
O   O8        1.0  0.18627  0.46496  0.55717  1.0000 -0.9001015364
O   O9        1.0  0.50410  0.51243  0.16280  1.0000 -0.5536242663
O   O10       1.0  0.49590  0.01243  0.33720  1.0000 -0.5536242663
O   O11       1.0  0.49590  0.48757  0.83720  1.0000 -0.5536242663
O   O12       1.0  0.50410  0.98757  0.66280  1.0000 -0.5536242663
O   O13       1.0  0.24179  0.18615  0.12529  1.0000 -0.5368214785
O   O14       1.0  0.75821  0.68615  0.37471  1.0000 -0.5368214785
O   O15       1.0  0.75821  0.81385  0.87471  1.0000 -0.5368214785
O   O16       1.0  0.24179  0.31385  0.62529  1.0000 -0.5368214785
O   O17       1.0  0.82320  0.51271  0.70210  1.0000 -0.5173183172
O   O18       1.0  0.17680  0.01271  0.79790  1.0000 -0.5173183172
O   O19       1.0  0.17680  0.48729  0.29790  1.0000 -0.5173183172
O   O20       1.0  0.82320  0.98729  0.20210  1.0000 -0.5173183172
O   O21       1.0  0.59720  0.41032  0.28740  1.0000 -0.5001898348
O   O22       1.0  0.40280  0.91032  0.21260  1.0000 -0.5001898348
O   O23       1.0  0.40280  0.58968  0.71260  1.0000 -0.5001898348
O   O24       1.0  0.59720  0.08968  0.78740  1.0000 -0.5001898348
O   O25       1.0  0.88830  0.40426  0.61390  1.0000 -0.6403461634
O   O26       1.0  0.11170  0.90426  0.88610  1.0000 -0.6403461634
O   O27       1.0  0.11170  0.59574  0.38610  1.0000 -0.6403461634
O   O28       1.0  0.88830  0.09574  0.11390  1.0000 -0.6403461634
O   O29       1.0  0.59290  0.40505  0.64260  1.0000 -0.5721918582
O   O30       1.0  0.40710  0.90505  0.85740  1.0000 -0.5721918582
O   O31       1.0  0.40710  0.59495  0.35740  1.0000 -0.5721918582
O   O32       1.0  0.59290  0.09495  0.14260  1.0000 -0.5721918582
