# DDEC6 charges by PACMAN v1.1 (https://github.com/mtap-research/PACMAN-charge/)
data_2010[Mn][nan]3[ASR]2
_chemical_formula_sum              "Mn8 H80 C108 N16 O24"
_cell_length_a       13.748
_cell_length_b       11.343
_cell_length_c       24.652
_cell_angle_alpha    90
_cell_angle_beta     92.98
_cell_angle_gamma    90

_symmetry_space_group_name_H-M    "P 1"
_symmetry_Int_Tables_number       1

loop_
  _symmetry_equiv_pos_as_xyz
  'x, y, z'

loop_
  _atom_site_type_symbol
  _atom_site_label
  _atom_site_symmetry_multiplicity
  _atom_site_fract_x
  _atom_site_fract_y
  _atom_site_fract_z
  _atom_site_occupancy
  _atom_site_charge
Mn  Mn1       1.0  0.50368  0.75131  0.71378  1.0000 0.8122321206
Mn  Mn2       1.0  0.49632  0.25131  0.78622  1.0000 0.8122321206
Mn  Mn3       1.0  0.49632  0.24869  0.28622  1.0000 0.8122321206
Mn  Mn4       1.0  0.50368  0.74869  0.21378  1.0000 0.8122321206
Mn  Mn5       1.0  0.49675  0.90233  0.89122  1.0000 0.7999560374
Mn  Mn6       1.0  0.50325  0.40233  0.60878  1.0000 0.7999560374
Mn  Mn7       1.0  0.50325  0.09767  0.10878  1.0000 0.7999560374
Mn  Mn8       1.0  0.49675  0.59767  0.39122  1.0000 0.7999560374
H   H1        1.0  0.68260  0.63460  0.78280  1.0000 0.1016195434
H   H2        1.0  0.31740  0.13460  0.71720  1.0000 0.1016195434
H   H3        1.0  0.31740  0.36540  0.21720  1.0000 0.1016195434
H   H4        1.0  0.68260  0.86540  0.28280  1.0000 0.1016195434
H   H5        1.0  0.84500  0.62720  0.79150  1.0000 0.1220178831
H   H6        1.0  0.15500  0.12720  0.70850  1.0000 0.1220178831
H   H7        1.0  0.15500  0.37280  0.20850  1.0000 0.1220178831
H   H8        1.0  0.84500  0.87280  0.29150  1.0000 0.1220178831
H   H9        1.0  0.85490  0.88030  0.68290  1.0000 0.1284055745
H   H10       1.0  0.14510  0.38030  0.81710  1.0000 0.1284055745
H   H11       1.0  0.14510  0.11970  0.31710  1.0000 0.1284055745
H   H12       1.0  0.85490  0.61970  0.18290  1.0000 0.1284055745
H   H13       1.0  0.68800  0.87770  0.67480  1.0000 0.1016195434
H   H14       1.0  0.31200  0.37770  0.82520  1.0000 0.1016195434
H   H15       1.0  0.31200  0.12230  0.32520  1.0000 0.1016195434
H   H16       1.0  0.68800  0.62230  0.17480  1.0000 0.1016195434
H   H17       1.0  0.00400  0.69210  0.76780  1.0000 0.1104060884
H   H18       1.0  0.99600  0.19210  0.73220  1.0000 0.1104060884
H   H19       1.0  0.99600  0.30790  0.23220  1.0000 0.1104060884
H   H20       1.0  0.00400  0.80790  0.26780  1.0000 0.1104060884
H   H21       1.0  0.00540  0.83700  0.68200  1.0000 0.1104060884
H   H22       1.0  0.99460  0.33700  0.81800  1.0000 0.1104060884
H   H23       1.0  0.99460  0.16300  0.31800  1.0000 0.1104060884
H   H24       1.0  0.00540  0.66300  0.18200  1.0000 0.1104060884
H   H25       1.0  0.15740  0.66990  0.77690  1.0000 0.1220178831
H   H26       1.0  0.84260  0.16990  0.72310  1.0000 0.1220178831
H   H27       1.0  0.84260  0.33010  0.22310  1.0000 0.1220178831
H   H28       1.0  0.15740  0.83010  0.27690  1.0000 0.1220178831
H   H29       1.0  0.32270  0.65640  0.77540  1.0000 0.1016195434
H   H30       1.0  0.67730  0.15640  0.72460  1.0000 0.1016195434
H   H31       1.0  0.67730  0.34360  0.22460  1.0000 0.1016195434
H   H32       1.0  0.32270  0.84360  0.27540  1.0000 0.1016195434
H   H33       1.0  0.32550  0.86380  0.65170  1.0000 0.1016195434
H   H34       1.0  0.67450  0.36380  0.84830  1.0000 0.1016195434
H   H35       1.0  0.67450  0.13620  0.34830  1.0000 0.1016195434
H   H36       1.0  0.32550  0.63620  0.15170  1.0000 0.1016195434
H   H37       1.0  0.16150  0.88550  0.64980  1.0000 0.1284055745
H   H38       1.0  0.83850  0.38550  0.85020  1.0000 0.1284055745
H   H39       1.0  0.83850  0.11450  0.35020  1.0000 0.1284055745
H   H40       1.0  0.16150  0.61450  0.14980  1.0000 0.1284055745
H   H41       1.0  0.30800  0.75110  0.89260  1.0000 0.1016195434
H   H42       1.0  0.69200  0.25110  0.60740  1.0000 0.1016195434
H   H43       1.0  0.69200  0.24890  0.10740  1.0000 0.1016195434
H   H44       1.0  0.30800  0.74890  0.39260  1.0000 0.1016195434
H   H45       1.0  0.13800  0.76240  0.88090  1.0000 0.1220178831
H   H46       1.0  0.86200  0.26240  0.61910  1.0000 0.1220178831
H   H47       1.0  0.86200  0.23760  0.11910  1.0000 0.1220178831
H   H48       1.0  0.13800  0.73760  0.38090  1.0000 0.1220178831
H   H49       1.0  0.16210  0.09920  0.85910  1.0000 0.1284055745
H   H50       1.0  0.83790  0.59920  0.64090  1.0000 0.1284055745
H   H51       1.0  0.83790  0.90080  0.14090  1.0000 0.1284055745
H   H52       1.0  0.16210  0.40080  0.35910  1.0000 0.1284055745
H   H53       1.0  0.32560  0.08320  0.86720  1.0000 0.1016195434
H   H54       1.0  0.67440  0.58320  0.63280  1.0000 0.1016195434
H   H55       1.0  0.67440  0.91680  0.13280  1.0000 0.1016195434
H   H56       1.0  0.32560  0.41680  0.36720  1.0000 0.1016195434
H   H57       1.0  0.99600  0.02200  0.85490  1.0000 0.1220178831
H   H58       1.0  0.00400  0.52200  0.64510  1.0000 0.1220178831
H   H59       1.0  0.00400  0.97800  0.14510  1.0000 0.1220178831
H   H60       1.0  0.99600  0.47800  0.35490  1.0000 0.1220178831
H   H61       1.0  0.99110  0.80010  0.88470  1.0000 0.1104060884
H   H62       1.0  0.00890  0.30010  0.61530  1.0000 0.1104060884
H   H63       1.0  0.00890  0.19990  0.11530  1.0000 0.1104060884
H   H64       1.0  0.99110  0.69990  0.38470  1.0000 0.1104060884
H   H65       1.0  0.83800  0.72940  0.90970  1.0000 0.1284055745
H   H66       1.0  0.16200  0.22940  0.59030  1.0000 0.1284055745
H   H67       1.0  0.16200  0.27060  0.09030  1.0000 0.1284055745
H   H68       1.0  0.83800  0.77060  0.40970  1.0000 0.1284055745
H   H69       1.0  0.67670  0.74360  0.91480  1.0000 0.1104060884
H   H70       1.0  0.32330  0.24360  0.58520  1.0000 0.1104060884
H   H71       1.0  0.32330  0.25640  0.08520  1.0000 0.1104060884
H   H72       1.0  0.67670  0.75640  0.41480  1.0000 0.1104060884
H   H73       1.0  0.67580  0.05990  0.85880  1.0000 0.1016195434
H   H74       1.0  0.32420  0.55990  0.64120  1.0000 0.1016195434
H   H75       1.0  0.32420  0.94010  0.14120  1.0000 0.1016195434
H   H76       1.0  0.67580  0.44010  0.35880  1.0000 0.1016195434
H   H77       1.0  0.83750  0.05040  0.84670  1.0000 0.1220178831
H   H78       1.0  0.16250  0.55040  0.65330  1.0000 0.1220178831
H   H79       1.0  0.16250  0.94960  0.15330  1.0000 0.1220178831
H   H80       1.0  0.83750  0.44960  0.34670  1.0000 0.1220178831
C   C1        1.0  0.49730  0.97670  0.78425  1.0000 0.4161018569
C   C2        1.0  0.50270  0.47670  0.71575  1.0000 0.4161018569
C   C3        1.0  0.50270  0.02330  0.21575  1.0000 0.4161018569
C   C4        1.0  0.49730  0.52330  0.28425  1.0000 0.4161018569
C   C5        1.0  0.50090  0.01780  0.72538  1.0000 0.4397042233
C   C6        1.0  0.49910  0.51780  0.77462  1.0000 0.4397042233
C   C7        1.0  0.49910  0.98220  0.27462  1.0000 0.4397042233
C   C8        1.0  0.50090  0.48220  0.22538  1.0000 0.4397042233
C   C9        1.0  0.49930  0.93740  0.01170  1.0000 0.454575463
C   C10       1.0  0.50070  0.43740  0.48830  1.0000 0.454575463
C   C11       1.0  0.50070  0.06260  0.98830  1.0000 0.454575463
C   C12       1.0  0.49930  0.56260  0.51170  1.0000 0.454575463
C   C13       1.0  0.71770  0.68400  0.76099  1.0000 0.040498602
C   C14       1.0  0.28230  0.18400  0.73901  1.0000 0.040498602
C   C15       1.0  0.28230  0.31600  0.23901  1.0000 0.040498602
C   C16       1.0  0.71770  0.81600  0.26099  1.0000 0.040498602
C   C17       1.0  0.81520  0.67900  0.76653  1.0000 -0.2128703648
C   C18       1.0  0.18480  0.17900  0.73347  1.0000 -0.2128703648
C   C19       1.0  0.18480  0.32100  0.23347  1.0000 -0.2128703648
C   C20       1.0  0.81520  0.82100  0.26653  1.0000 -0.2128703648
C   C21       1.0  0.87040  0.74860  0.73605  1.0000 0.1284055745
C   C22       1.0  0.12960  0.24860  0.76395  1.0000 0.1284055745
C   C23       1.0  0.12960  0.25140  0.26395  1.0000 0.1284055745
C   C24       1.0  0.87040  0.75140  0.23605  1.0000 0.1284055745
C   C25       1.0  0.82080  0.82620  0.70290  1.0000 -0.2196512112
C   C26       1.0  0.17920  0.32620  0.79710  1.0000 -0.2196512112
C   C27       1.0  0.17920  0.17380  0.29710  1.0000 -0.2196512112
C   C28       1.0  0.82080  0.67380  0.20290  1.0000 -0.2196512112
C   C29       1.0  0.71980  0.82530  0.69870  1.0000 0.0615219679
C   C30       1.0  0.28020  0.32530  0.80130  1.0000 0.0615219679
C   C31       1.0  0.28020  0.17470  0.30130  1.0000 0.0615219679
C   C32       1.0  0.71980  0.67470  0.19870  1.0000 0.0615219679
C   C33       1.0  0.97640  0.73900  0.74010  1.0000 -0.1639895352
C   C34       1.0  0.02360  0.23900  0.75990  1.0000 -0.1639895352
C   C35       1.0  0.02360  0.26100  0.25990  1.0000 -0.1639895352
C   C36       1.0  0.97640  0.76100  0.24010  1.0000 -0.1650470656
C   C37       1.0  0.03320  0.78900  0.70920  1.0000 -0.1515017201
C   C38       1.0  0.96680  0.28900  0.79080  1.0000 -0.1515017201
C   C39       1.0  0.96680  0.21100  0.29080  1.0000 -0.1515017201
C   C40       1.0  0.03320  0.71100  0.20920  1.0000 -0.1515017201
C   C41       1.0  0.14030  0.77850  0.71225  1.0000 0.1284055745
C   C42       1.0  0.85970  0.27850  0.78775  1.0000 0.1284055745
C   C43       1.0  0.85970  0.22150  0.28775  1.0000 0.1284055745
C   C44       1.0  0.14030  0.72150  0.21225  1.0000 0.1284055745
C   C45       1.0  0.19050  0.71010  0.75062  1.0000 -0.2128703648
C   C46       1.0  0.80950  0.21010  0.74938  1.0000 -0.2128703648
C   C47       1.0  0.80950  0.28990  0.24938  1.0000 -0.2128703648
C   C48       1.0  0.19050  0.78990  0.25062  1.0000 -0.2128703648
C   C49       1.0  0.28950  0.70250  0.74938  1.0000 0.0527954854
C   C50       1.0  0.71050  0.20250  0.75062  1.0000 0.0527954854
C   C51       1.0  0.71050  0.29750  0.25062  1.0000 0.0527954854
C   C52       1.0  0.28950  0.79750  0.24938  1.0000 0.0527954854
C   C53       1.0  0.29100  0.82360  0.67739  1.0000 0.0527954854
C   C54       1.0  0.70900  0.32360  0.82261  1.0000 0.0527954854
C   C55       1.0  0.70900  0.17640  0.32261  1.0000 0.0527954854
C   C56       1.0  0.29100  0.67640  0.17739  1.0000 0.0527954854
C   C57       1.0  0.19250  0.83690  0.67570  1.0000 -0.2196512112
C   C58       1.0  0.80750  0.33690  0.82430  1.0000 -0.2128703648
C   C59       1.0  0.80750  0.16310  0.32430  1.0000 -0.2128703648
C   C60       1.0  0.19250  0.66310  0.17570  1.0000 -0.2196512112
C   C61       1.0  0.27900  0.82380  0.88540  1.0000 0.0881942871
C   C62       1.0  0.72100  0.32380  0.61460  1.0000 0.0881942871
C   C63       1.0  0.72100  0.17620  0.11460  1.0000 0.0881942871
C   C64       1.0  0.27900  0.67620  0.38540  1.0000 0.0881942871
C   C65       1.0  0.17530  0.83050  0.87890  1.0000 -0.2504062813
C   C66       1.0  0.82470  0.33050  0.62110  1.0000 -0.2504062813
C   C67       1.0  0.82470  0.16950  0.12110  1.0000 -0.2504062813
C   C68       1.0  0.17530  0.66950  0.37890  1.0000 -0.2504062813
C   C69       1.0  0.13180  0.93440  0.86993  1.0000 0.1284055745
C   C70       1.0  0.86820  0.43440  0.63007  1.0000 0.1284055745
C   C71       1.0  0.86820  0.06560  0.13007  1.0000 0.1284055745
C   C72       1.0  0.13180  0.56560  0.36993  1.0000 0.1284055745
C   C73       1.0  0.18950  0.02530  0.86580  1.0000 -0.2292896745
C   C74       1.0  0.81050  0.52530  0.63420  1.0000 -0.2292896745
C   C75       1.0  0.81050  0.97470  0.13420  1.0000 -0.2292896745
C   C76       1.0  0.18950  0.47470  0.36580  1.0000 -0.2292896745
C   C77       1.0  0.28840  0.01550  0.87120  1.0000 0.0750558588
C   C78       1.0  0.71160  0.51550  0.62880  1.0000 0.07467614
C   C79       1.0  0.71160  0.98450  0.12880  1.0000 0.07467614
C   C80       1.0  0.28840  0.48450  0.37120  1.0000 0.07467614
C   C81       1.0  0.02110  0.94930  0.86611  1.0000 -0.115134069
C   C82       1.0  0.97890  0.44930  0.63389  1.0000 -0.1119828236
C   C83       1.0  0.97890  0.05070  0.13389  1.0000 -0.1119828236
C   C84       1.0  0.02110  0.55070  0.36611  1.0000 -0.115134069
C   C85       1.0  0.96540  0.87410  0.87650  1.0000 -0.1119828236
C   C86       1.0  0.03460  0.37410  0.62350  1.0000 -0.1119828236
C   C87       1.0  0.03460  0.12590  0.12350  1.0000 -0.1119828236
C   C88       1.0  0.96540  0.62590  0.37650  1.0000 -0.1119828236
C   C89       1.0  0.85820  0.88740  0.87758  1.0000 0.1284055745
C   C90       1.0  0.14180  0.38740  0.62242  1.0000 0.1284055745
C   C91       1.0  0.14180  0.11260  0.12242  1.0000 0.1284055745
C   C92       1.0  0.85820  0.61260  0.37758  1.0000 0.1284055745
C   C93       1.0  0.80640  0.79800  0.89800  1.0000 -0.2196512112
C   C94       1.0  0.19360  0.29800  0.60200  1.0000 -0.2196512112
C   C95       1.0  0.19360  0.20200  0.10200  1.0000 -0.2196512112
C   C96       1.0  0.80640  0.70200  0.39800  1.0000 -0.2196512112
C   C97       1.0  0.70990  0.80780  0.90150  1.0000 0.0615219679
C   C98       1.0  0.29010  0.30780  0.59850  1.0000 0.0615219679
C   C99       1.0  0.29010  0.19220  0.09850  1.0000 0.0615219679
C   C100      1.0  0.70990  0.69220  0.40150  1.0000 0.0615219679
C   C101      1.0  0.70920  0.99090  0.86823  1.0000 0.0615219679
C   C102      1.0  0.29080  0.49090  0.63177  1.0000 0.0615219679
C   C103      1.0  0.29080  0.00910  0.13177  1.0000 0.0615219679
C   C104      1.0  0.70920  0.50910  0.36823  1.0000 0.0615219679
C   C105      1.0  0.80600  0.98670  0.86176  1.0000 -0.2292896745
C   C106      1.0  0.19400  0.48670  0.63824  1.0000 -0.2292896745
C   C107      1.0  0.19400  0.01330  0.13824  1.0000 -0.2292896745
C   C108      1.0  0.80600  0.51330  0.36176  1.0000 -0.2292896745
N   N1        1.0  0.66760  0.75370  0.72693  1.0000 -0.2196512112
N   N2        1.0  0.33240  0.25370  0.77307  1.0000 -0.2196512112
N   N3        1.0  0.33240  0.24630  0.27307  1.0000 -0.2196512112
N   N4        1.0  0.66760  0.74630  0.22693  1.0000 -0.2196512112
N   N5        1.0  0.34050  0.75760  0.71294  1.0000 -0.2196512112
N   N6        1.0  0.65950  0.25760  0.78706  1.0000 -0.2196512112
N   N7        1.0  0.65950  0.24240  0.28706  1.0000 -0.2196512112
N   N8        1.0  0.34050  0.74240  0.21294  1.0000 -0.2196512112
N   N9        1.0  0.33390  0.91620  0.88154  1.0000 -0.2128703648
N   N10       1.0  0.66610  0.41620  0.61846  1.0000 -0.2128703648
N   N11       1.0  0.66610  0.08380  0.11846  1.0000 -0.2128703648
N   N12       1.0  0.33390  0.58380  0.38154  1.0000 -0.2128703648
N   N13       1.0  0.65940  0.90100  0.88744  1.0000 -0.2196512112
N   N14       1.0  0.34060  0.40100  0.61256  1.0000 -0.2196512112
N   N15       1.0  0.34060  0.09900  0.11256  1.0000 -0.2196512112
N   N16       1.0  0.65940  0.59900  0.38744  1.0000 -0.2196512112
O   O1        1.0  0.49713  0.86960  0.79315  1.0000 -0.4768025738
O   O2        1.0  0.50287  0.36960  0.70685  1.0000 -0.4768025738
O   O3        1.0  0.50287  0.13040  0.20685  1.0000 -0.4768025738
O   O4        1.0  0.49713  0.63040  0.29315  1.0000 -0.4768025738
O   O5        1.0  0.49548  0.05300  0.82014  1.0000 -0.4947532874
O   O6        1.0  0.50452  0.55300  0.67986  1.0000 -0.4947532874
O   O7        1.0  0.50452  0.94700  0.17986  1.0000 -0.4969420236
O   O8        1.0  0.49548  0.44700  0.32014  1.0000 -0.4947532874
O   O9        1.0  0.50516  0.94077  0.69027  1.0000 -0.5153684479
O   O10       1.0  0.49484  0.44077  0.80973  1.0000 -0.5100016986
O   O11       1.0  0.49484  0.05923  0.30973  1.0000 -0.5153684479
O   O12       1.0  0.50516  0.55923  0.19027  1.0000 -0.5153684479
O   O13       1.0  0.49865  0.12642  0.71792  1.0000 -0.5100016986
O   O14       1.0  0.50135  0.62642  0.78208  1.0000 -0.5100016986
O   O15       1.0  0.50135  0.87358  0.28208  1.0000 -0.5100016986
O   O16       1.0  0.49865  0.37358  0.21792  1.0000 -0.5100016986
O   O17       1.0  0.49974  0.85460  0.97980  1.0000 -0.5100016986
O   O18       1.0  0.50026  0.35460  0.52020  1.0000 -0.5100016986
O   O19       1.0  0.50026  0.14540  0.02020  1.0000 -0.5100016986
O   O20       1.0  0.49974  0.64540  0.47980  1.0000 -0.5100016986
O   O21       1.0  0.49839  0.93219  0.06217  1.0000 -0.4969420236
O   O22       1.0  0.50161  0.43219  0.43783  1.0000 -0.4969420236
O   O23       1.0  0.50161  0.06781  0.93783  1.0000 -0.4969420236
O   O24       1.0  0.49839  0.56781  0.56217  1.0000 -0.4969420236
