# DDEC6 charges by PACMAN v1.1 (https://github.com/mtap-research/PACMAN-charge/)
data_2010[Cu][nan]3[ASR]32
_chemical_formula_sum              "Cu6 H12 C24 N4 O16"
_cell_length_a       11.5382
_cell_length_b       11.5382
_cell_length_c       5.8595
_cell_angle_alpha    78.2792
_cell_angle_beta     101.721
_cell_angle_gamma    94.1091

_symmetry_space_group_name_H-M    "P 1"
_symmetry_Int_Tables_number       1

loop_
  _symmetry_equiv_pos_as_xyz
  'x, y, z'

loop_
  _atom_site_type_symbol
  _atom_site_label
  _atom_site_symmetry_multiplicity
  _atom_site_fract_x
  _atom_site_fract_y
  _atom_site_fract_z
  _atom_site_occupancy
  _atom_site_charge
Cu  Cu1       1.0  0.73987  0.00893  0.85151  1.0000 0.7762674485
Cu  Cu2       1.0  0.00893  0.73987  0.64849  1.0000 0.7762674485
Cu  Cu3       1.0  0.26013  0.99107  0.14849  1.0000 0.7762674485
Cu  Cu4       1.0  0.99107  0.26013  0.35151  1.0000 0.7762674485
Cu  Cu5       1.0  0.00878  0.00878  0.75000  1.0000 0.9856118952
Cu  Cu6       1.0  0.99122  0.99122  0.25000  1.0000 0.9856118952
H   H1        1.0  0.90490  0.13850  0.92750  1.0000 0.3743536566
H   H2        1.0  0.13850  0.90490  0.57250  1.0000 0.3743536566
H   H3        1.0  0.09510  0.86150  0.07250  1.0000 0.3743536566
H   H4        1.0  0.86150  0.09510  0.42750  1.0000 0.3743536566
H   H5        1.0  0.54150  0.26330  0.84180  1.0000 0.1410516166
H   H6        1.0  0.26330  0.54150  0.65820  1.0000 0.1410516166
H   H7        1.0  0.45850  0.73670  0.15820  1.0000 0.1410516166
H   H8        1.0  0.73670  0.45850  0.34180  1.0000 0.1410516166
H   H9        1.0  0.69480  0.24260  0.16600  1.0000 0.1410516166
H   H10       1.0  0.24260  0.69480  0.33400  1.0000 0.1410516166
H   H11       1.0  0.30520  0.75740  0.83400  1.0000 0.1410516166
H   H12       1.0  0.75740  0.30520  0.66600  1.0000 0.1410516166
C   C1        1.0  0.33400  0.13840  0.78660  1.0000 0.5306477491
C   C2        1.0  0.13840  0.33400  0.71340  1.0000 0.5306477491
C   C3        1.0  0.66600  0.86160  0.21340  1.0000 0.5306477491
C   C4        1.0  0.86160  0.66600  0.28660  1.0000 0.5306477491
C   C5        1.0  0.43500  0.13720  0.99530  1.0000 0.0919238646
C   C6        1.0  0.13720  0.43500  0.50470  1.0000 0.0919238646
C   C7        1.0  0.56500  0.86280  0.00470  1.0000 0.0919238646
C   C8        1.0  0.86280  0.56500  0.49530  1.0000 0.0919238646
C   C9        1.0  0.53570  0.20830  0.97930  1.0000 -0.1070098709
C   C10       1.0  0.20830  0.53570  0.52070  1.0000 -0.1070098709
C   C11       1.0  0.46430  0.79170  0.02070  1.0000 -0.1070098709
C   C12       1.0  0.79170  0.46430  0.47930  1.0000 -0.1070098709
C   C13       1.0  0.62640  0.19520  0.17260  1.0000 -0.1735560353
C   C14       1.0  0.19520  0.62640  0.32740  1.0000 -0.1735560353
C   C15       1.0  0.37360  0.80480  0.82740  1.0000 -0.1735560353
C   C16       1.0  0.80480  0.37360  0.67260  1.0000 -0.1735560353
C   C17       1.0  0.61900  0.11180  0.38030  1.0000 0.2686359678
C   C18       1.0  0.11180  0.61900  0.11970  1.0000 0.2686359678
C   C19       1.0  0.38100  0.88820  0.61970  1.0000 0.2686359678
C   C20       1.0  0.88820  0.38100  0.88030  1.0000 0.2686359678
C   C21       1.0  0.51089  0.04407  0.39420  1.0000 0.0816823934
C   C22       1.0  0.04407  0.51089  0.10580  1.0000 0.0816823934
C   C23       1.0  0.48911  0.95593  0.60580  1.0000 0.0816823934
C   C24       1.0  0.95593  0.48911  0.89420  1.0000 0.0816823934
N   N1        1.0  0.42269  0.06027  0.19640  1.0000 -0.2814999278
N   N2        1.0  0.06027  0.42269  0.30360  1.0000 -0.2814999278
N   N3        1.0  0.57731  0.93973  0.80360  1.0000 -0.2814999278
N   N4        1.0  0.93973  0.57731  0.69640  1.0000 -0.2814999278
O   O1        1.0  0.90749  0.06701  0.93320  1.0000 -0.7997465636
O   O2        1.0  0.06701  0.90749  0.56680  1.0000 -0.7997465636
O   O3        1.0  0.09251  0.93299  0.06680  1.0000 -0.7997465636
O   O4        1.0  0.93299  0.09251  0.43320  1.0000 -0.7997465636
O   O5        1.0  0.24708  0.06670  0.82290  1.0000 -0.5428309645
O   O6        1.0  0.06670  0.24708  0.67710  1.0000 -0.5428309645
O   O7        1.0  0.75292  0.93330  0.17710  1.0000 -0.5428309645
O   O8        1.0  0.93330  0.75292  0.32290  1.0000 -0.5428309645
O   O9        1.0  0.34098  0.20308  0.59390  1.0000 -0.4842261876
O   O10       1.0  0.20308  0.34098  0.90610  1.0000 -0.4842261876
O   O11       1.0  0.65902  0.79692  0.40610  1.0000 -0.4842261876
O   O12       1.0  0.79692  0.65902  0.09390  1.0000 -0.4842261876
O   O13       1.0  0.71620  0.10250  0.54700  1.0000 -0.5095507111
O   O14       1.0  0.10250  0.71620  0.95300  1.0000 -0.5095507111
O   O15       1.0  0.28380  0.89750  0.45300  1.0000 -0.5095507111
O   O16       1.0  0.89750  0.28380  0.04700  1.0000 -0.5095507111
