# DDEC6 charges by PACMAN v1.1 (https://github.com/mtap-research/PACMAN-charge/)
data_2010[Zn][lcy]3[ASR]1
_chemical_formula_sum              "Zn16 H72 C144 O52"
_cell_length_a       17.2344
_cell_length_b       17.2237
_cell_length_c       17.2923
_cell_angle_alpha    90
_cell_angle_beta     90.548
_cell_angle_gamma    90

_symmetry_space_group_name_H-M    "P 1"
_symmetry_Int_Tables_number       1

loop_
  _symmetry_equiv_pos_as_xyz
  'x, y, z'

loop_
  _atom_site_type_symbol
  _atom_site_label
  _atom_site_symmetry_multiplicity
  _atom_site_fract_x
  _atom_site_fract_y
  _atom_site_fract_z
  _atom_site_occupancy
  _atom_site_charge
Zn  Zn1       1.0  0.11010  0.43191  0.07550  1.0000 0.9416986266
Zn  Zn2       1.0  0.88990  0.93191  0.92450  1.0000 0.9416986266
Zn  Zn3       1.0  0.17295  0.58555  0.98380  1.0000 0.9797084282
Zn  Zn4       1.0  0.82705  0.08555  0.01620  1.0000 0.9797084282
Zn  Zn5       1.0  0.26246  0.42421  0.97898  1.0000 0.9416986266
Zn  Zn6       1.0  0.73754  0.92421  0.02102  1.0000 0.9416986266
Zn  Zn7       1.0  0.26047  0.51799  0.13403  1.0000 0.9416986266
Zn  Zn8       1.0  0.73953  0.01799  0.86597  1.0000 0.9416986266
Zn  Zn9       1.0  0.60113  0.43660  0.41320  1.0000 0.9797084282
Zn  Zn10      1.0  0.39887  0.93660  0.58680  1.0000 0.9797084282
Zn  Zn11      1.0  0.75707  0.34817  0.34434  1.0000 0.9588370124
Zn  Zn12      1.0  0.24293  0.84817  0.65566  1.0000 0.9588370124
Zn  Zn13      1.0  0.32845  0.78913  0.50658  1.0000 0.9416986266
Zn  Zn14      1.0  0.67155  0.28913  0.49342  1.0000 0.9416986266
Zn  Zn15      1.0  0.76699  0.44460  0.49806  1.0000 0.9416986266
Zn  Zn16      1.0  0.23301  0.94460  0.50194  1.0000 0.9416986266
H   H1        1.0  0.97290  0.69340  0.97670  1.0000 0.1302063436
H   H2        1.0  0.02710  0.19340  0.02330  1.0000 0.1302063436
H   H3        1.0  0.75060  0.74340  0.12660  1.0000 0.1202063425
H   H4        1.0  0.24940  0.24340  0.87340  1.0000 0.1202063425
H   H5        1.0  0.68940  0.67930  0.22070  1.0000 0.1115468541
H   H6        1.0  0.31060  0.17930  0.77930  1.0000 0.1115468541
H   H7        1.0  0.71480  0.55910  0.26370  1.0000 0.1202063425
H   H8        1.0  0.28520  0.05910  0.73630  1.0000 0.1202063425
H   H9        1.0  0.80770  0.48290  0.23460  1.0000 0.1202063425
H   H10       1.0  0.19230  0.98290  0.76540  1.0000 0.1202063425
H   H11       1.0  0.90280  0.49720  0.15360  1.0000 0.1302063436
H   H12       1.0  0.09720  0.99720  0.84640  1.0000 0.1302063436
H   H13       1.0  0.20740  0.63190  0.76320  1.0000 0.1302063436
H   H14       1.0  0.79260  0.13190  0.23680  1.0000 0.1302063436
H   H15       1.0  0.32830  0.56180  0.52850  1.0000 0.1302063436
H   H16       1.0  0.67170  0.06180  0.47150  1.0000 0.1302063436
H   H17       1.0  0.38140  0.45410  0.48680  1.0000 0.1202063425
H   H18       1.0  0.61860  0.95410  0.51320  1.0000 0.1202063425
H   H19       1.0  0.39790  0.34470  0.54610  1.0000 0.1202063425
H   H20       1.0  0.60210  0.84470  0.45390  1.0000 0.1202063425
H   H21       1.0  0.35590  0.30650  0.65600  1.0000 0.1302063436
H   H22       1.0  0.64410  0.80650  0.34400  1.0000 0.1302063436
H   H23       1.0  0.29660  0.37360  0.74490  1.0000 0.1302063436
H   H24       1.0  0.70340  0.87360  0.25510  1.0000 0.1302063436
H   H25       1.0  0.26660  0.71200  0.27810  1.0000 0.1380482017
H   H26       1.0  0.73340  0.21200  0.72190  1.0000 0.1380482017
H   H27       1.0  0.11410  0.93580  0.31350  1.0000 0.1302063436
H   H28       1.0  0.88590  0.43580  0.68650  1.0000 0.1302063436
H   H29       1.0  0.02440  0.99340  0.24360  1.0000 0.1202063425
H   H30       1.0  0.97560  0.49340  0.75640  1.0000 0.1202063425
H   H31       1.0  0.98240  0.96610  0.12860  1.0000 0.1302063436
H   H32       1.0  0.01760  0.46610  0.87140  1.0000 0.1302063436
H   H33       1.0  0.01790  0.87660  0.05100  1.0000 0.1202063425
H   H34       1.0  0.98210  0.37660  0.94900  1.0000 0.1202063425
H   H35       1.0  0.09910  0.77800  0.07340  1.0000 0.1202063425
H   H36       1.0  0.90090  0.27800  0.92660  1.0000 0.1202063425
H   H37       1.0  0.99830  0.39930  0.27060  1.0000 0.1380482017
H   H38       1.0  0.00170  0.89930  0.72940  1.0000 0.1380482017
H   H39       1.0  0.95050  0.55460  0.48700  1.0000 0.1302063436
H   H40       1.0  0.04950  0.05460  0.51300  1.0000 0.1302063436
H   H41       1.0  0.01040  0.64950  0.54590  1.0000 0.1115468541
H   H42       1.0  0.98960  0.14950  0.45410  1.0000 0.1115468541
H   H43       1.0  0.12920  0.69510  0.52240  1.0000 0.1115468541
H   H44       1.0  0.87080  0.19510  0.47760  1.0000 0.1115468541
H   H45       1.0  0.20820  0.66040  0.42880  1.0000 0.1202063425
H   H46       1.0  0.79180  0.16040  0.57120  1.0000 0.1202063425
H   H47       1.0  0.19630  0.56940  0.34480  1.0000 0.1302063436
H   H48       1.0  0.80370  0.06940  0.65520  1.0000 0.1302063436
H   H49       1.0  0.49120  0.45350  0.21510  1.0000 0.1380482017
H   H50       1.0  0.50880  0.95350  0.78490  1.0000 0.1380482017
H   H51       1.0  0.47740  0.37590  0.95460  1.0000 0.1302063436
H   H52       1.0  0.52260  0.87590  0.04540  1.0000 0.1302063436
H   H53       1.0  0.56200  0.33230  0.86980  1.0000 0.1202063425
H   H54       1.0  0.43800  0.83230  0.13020  1.0000 0.1202063425
H   H55       1.0  0.68190  0.28700  0.89260  1.0000 0.1115468541
H   H56       1.0  0.31810  0.78700  0.10740  1.0000 0.1115468541
H   H57       1.0  0.75030  0.30280  0.99550  1.0000 0.1202063425
H   H58       1.0  0.24970  0.80280  0.00450  1.0000 0.1202063425
H   H59       1.0  0.71950  0.34110  0.11010  1.0000 0.1302063436
H   H60       1.0  0.28050  0.84110  0.88990  1.0000 0.1302063436
H   H61       1.0  0.54560  0.65870  0.47520  1.0000 0.1302063436
H   H62       1.0  0.45440  0.15870  0.52480  1.0000 0.1302063436
H   H63       1.0  0.57280  0.83880  0.67810  1.0000 0.1202063425
H   H64       1.0  0.42720  0.33880  0.32190  1.0000 0.1202063425
H   H65       1.0  0.66390  0.86240  0.76480  1.0000 0.1115468541
H   H66       1.0  0.33610  0.36240  0.23520  1.0000 0.1115468541
H   H67       1.0  0.77750  0.80540  0.77990  1.0000 0.1202063425
H   H68       1.0  0.22250  0.30540  0.22010  1.0000 0.1202063425
H   H69       1.0  0.82710  0.70830  0.71470  1.0000 0.1202063425
H   H70       1.0  0.17290  0.20830  0.28530  1.0000 0.1202063425
H   H71       1.0  0.77660  0.64450  0.61900  1.0000 0.1302063436
H   H72       1.0  0.22340  0.14450  0.38100  1.0000 0.1302063436
C   C1        1.0  0.00560  0.54950  0.03720  1.0000 0.600139999
C   C2        1.0  0.99440  0.04950  0.96280  1.0000 0.600139999
C   C3        1.0  0.94350  0.60440  0.05140  1.0000 -0.109142187
C   C4        1.0  0.05650  0.10440  0.94860  1.0000 -0.109142187
C   C5        1.0  0.93810  0.67540  0.01340  1.0000 -0.1300554447
C   C6        1.0  0.06190  0.17540  0.98660  1.0000 -0.1300554447
C   C7        1.0  0.87160  0.71610  0.03870  1.0000 -0.0982142444
C   C8        1.0  0.12840  0.21610  0.96130  1.0000 -0.0982142444
C   C9        1.0  0.83540  0.67050  0.09560  1.0000 0.0569173837
C   C10       1.0  0.16460  0.17050  0.90440  1.0000 0.0569173837
C   C11       1.0  0.88060  0.59820  0.10430  1.0000 0.0695663789
C   C12       1.0  0.11940  0.09820  0.89570  1.0000 0.0695663789
C   C13       1.0  0.77030  0.69450  0.13870  1.0000 -0.1402547503
C   C14       1.0  0.22970  0.19450  0.86130  1.0000 -0.1402547503
C   C15       1.0  0.73100  0.65390  0.19800  1.0000 -0.0885793328
C   C16       1.0  0.26900  0.15390  0.80200  1.0000 -0.0885793328
C   C17       1.0  0.74870  0.57800  0.22660  1.0000 -0.0982142444
C   C18       1.0  0.25130  0.07800  0.77340  1.0000 -0.0982142444
C   C19       1.0  0.80730  0.52970  0.20770  1.0000 -0.0814871978
C   C20       1.0  0.19270  0.02970  0.79230  1.0000 -0.0814871978
C   C21       1.0  0.86720  0.53780  0.15490  1.0000 -0.1300554447
C   C22       1.0  0.13280  0.03780  0.84510  1.0000 -0.1300554447
C   C23       1.0  0.84860  0.79330  0.00840  1.0000 0.6100274473
C   C24       1.0  0.15140  0.29330  0.99160  1.0000 0.6100274473
C   C25       1.0  0.23000  0.49390  0.83890  1.0000 0.600139999
C   C26       1.0  0.77000  0.99390  0.16110  1.0000 0.5949044028
C   C27       1.0  0.24680  0.51880  0.75840  1.0000 -0.0814871978
C   C28       1.0  0.75320  0.01880  0.24160  1.0000 -0.0814871978
C   C29       1.0  0.23230  0.59430  0.73400  1.0000 -0.1300554447
C   C30       1.0  0.76770  0.09430  0.26600  1.0000 -0.1300554447
C   C31       1.0  0.26050  0.60610  0.65920  1.0000 -0.1214618152
C   C32       1.0  0.73950  0.10610  0.34080  1.0000 -0.1214618152
C   C33       1.0  0.29550  0.53540  0.63390  1.0000 0.0784470221
C   C34       1.0  0.70450  0.03540  0.36610  1.0000 0.0784470221
C   C35       1.0  0.28500  0.48000  0.69980  1.0000 0.0487823145
C   C36       1.0  0.71500  0.98000  0.30020  1.0000 0.0487823145
C   C37       1.0  0.32850  0.52050  0.56320  1.0000 -0.1402547503
C   C38       1.0  0.67150  0.02050  0.43680  1.0000 -0.1402547503
C   C39       1.0  0.36200  0.45210  0.53670  1.0000 -0.0814871978
C   C40       1.0  0.63800  0.95210  0.46330  1.0000 -0.0814871978
C   C41       1.0  0.37070  0.38190  0.57380  1.0000 -0.0982142444
C   C42       1.0  0.62930  0.88190  0.42620  1.0000 -0.0982142444
C   C43       1.0  0.34620  0.35820  0.64390  1.0000 -0.0885793328
C   C44       1.0  0.65380  0.85820  0.35610  1.0000 -0.0885793328
C   C45       1.0  0.30840  0.40090  0.70020  1.0000 -0.1214618152
C   C46       1.0  0.69160  0.90090  0.29980  1.0000 -0.1214618152
C   C47       1.0  0.25910  0.68120  0.62070  1.0000 0.600139999
C   C48       1.0  0.74090  0.18120  0.37930  1.0000 0.600139999
C   C49       1.0  0.20790  0.67040  0.13480  1.0000 0.600139999
C   C50       1.0  0.79210  0.17040  0.86520  1.0000 0.600139999
C   C51       1.0  0.19290  0.73850  0.18580  1.0000 -0.0698447948
C   C52       1.0  0.80710  0.23850  0.81420  1.0000 -0.0698447948
C   C53       1.0  0.22960  0.74610  0.25810  1.0000 -0.1497585712
C   C54       1.0  0.77040  0.24610  0.74190  1.0000 -0.1497585712
C   C55       1.0  0.20280  0.81210  0.29560  1.0000 -0.0982142444
C   C56       1.0  0.79720  0.31210  0.70440  1.0000 -0.0982142444
C   C57       1.0  0.14730  0.84790  0.24710  1.0000 0.0569173837
C   C58       1.0  0.85270  0.34790  0.75290  1.0000 0.0569173837
C   C59       1.0  0.14130  0.80040  0.17660  1.0000 0.0431651386
C   C60       1.0  0.85870  0.30040  0.82340  1.0000 0.0431651386
C   C61       1.0  0.10400  0.91370  0.26530  1.0000 -0.1300554447
C   C62       1.0  0.89600  0.41370  0.73470  1.0000 -0.1300554447
C   C63       1.0  0.04750  0.95050  0.22060  1.0000 -0.0814871978
C   C64       1.0  0.95250  0.45050  0.77940  1.0000 -0.0814871978
C   C65       1.0  0.02080  0.93310  0.14760  1.0000 -0.0982142444
C   C66       1.0  0.97920  0.43310  0.85240  1.0000 -0.0982142444
C   C67       1.0  0.04150  0.87590  0.09950  1.0000 -0.0698447948
C   C68       1.0  0.95850  0.37590  0.90050  1.0000 -0.0698447948
C   C69       1.0  0.09500  0.81410  0.11320  1.0000 -0.1214618152
C   C70       1.0  0.90500  0.31410  0.88680  1.0000 -0.1214618152
C   C71       1.0  0.23010  0.83240  0.37370  1.0000 0.6100274473
C   C72       1.0  0.76990  0.33240  0.62630  1.0000 0.6100274473
C   C73       1.0  0.14210  0.45690  0.23550  1.0000 0.600139999
C   C74       1.0  0.85790  0.95690  0.76450  1.0000 0.600139999
C   C75       1.0  0.08720  0.47200  0.30010  1.0000 -0.0698447948
C   C76       1.0  0.91280  0.97200  0.69990  1.0000 -0.0698447948
C   C77       1.0  0.01580  0.43750  0.30460  1.0000 -0.1402547503
C   C78       1.0  0.98420  0.93750  0.69540  1.0000 -0.1402547503
C   C79       1.0  0.97300  0.46580  0.36490  1.0000 -0.109142187
C   C80       1.0  0.02700  0.96580  0.63510  1.0000 -0.109142187
C   C81       1.0  0.01820  0.52100  0.40390  1.0000 0.0569173837
C   C82       1.0  0.98180  0.02100  0.59610  1.0000 0.0569173837
C   C83       1.0  0.09160  0.52770  0.35970  1.0000 0.0487823145
C   C84       1.0  0.90840  0.02770  0.64030  1.0000 0.0487823145
C   C85       1.0  0.99880  0.56640  0.46650  1.0000 -0.1214618152
C   C86       1.0  0.00120  0.06640  0.53350  1.0000 -0.1214618152
C   C87       1.0  0.03700  0.62640  0.50540  1.0000 -0.0982142444
C   C88       1.0  0.96300  0.12640  0.49460  1.0000 -0.0982142444
C   C89       1.0  0.11140  0.65590  0.48990  1.0000 -0.0814871978
C   C90       1.0  0.88860  0.15590  0.51010  1.0000 -0.0814871978
C   C91       1.0  0.16190  0.63290  0.43090  1.0000 -0.0885793328
C   C92       1.0  0.83810  0.13290  0.56910  1.0000 -0.0885793328
C   C93       1.0  0.15330  0.57640  0.37630  1.0000 -0.1300554447
C   C94       1.0  0.84670  0.07640  0.62370  1.0000 -0.1300554447
C   C95       1.0  0.89530  0.43910  0.38440  1.0000 0.6100274473
C   C96       1.0  0.10470  0.93910  0.61560  1.0000 0.6100274473
C   C97       1.0  0.39900  0.43600  0.08390  1.0000 0.6100274473
C   C98       1.0  0.60100  0.93600  0.91610  1.0000 0.6100274473
C   C99       1.0  0.48130  0.41770  0.10110  1.0000 -0.0982142444
C   C100      1.0  0.51870  0.91770  0.89890  1.0000 -0.0982142444
C   C101      1.0  0.51610  0.43070  0.17340  1.0000 -0.1214618152
C   C102      1.0  0.48390  0.93070  0.82660  1.0000 -0.1214618152
C   C103      1.0  0.59230  0.40540  0.17450  1.0000 -0.109142187
C   C104      1.0  0.40770  0.90540  0.82550  1.0000 -0.109142187
C   C105      1.0  0.64200  0.40590  0.24350  1.0000 0.6100274473
C   C106      1.0  0.35800  0.90590  0.75650  1.0000 0.6100274473
C   C107      1.0  0.53720  0.38610  0.05140  1.0000 0.0569173837
C   C108      1.0  0.46280  0.88610  0.94860  1.0000 0.0569173837
C   C109      1.0  0.52700  0.36710  0.97420  1.0000 -0.1300554447
C   C110      1.0  0.47300  0.86710  0.02580  1.0000 -0.1300554447
C   C111      1.0  0.58010  0.33650  0.92050  1.0000 -0.0814871978
C   C112      1.0  0.41990  0.83650  0.07950  1.0000 -0.0814871978
C   C113      1.0  0.65730  0.31120  0.93370  1.0000 -0.109142187
C   C114      1.0  0.34270  0.81120  0.06630  1.0000 -0.109142187
C   C115      1.0  0.69890  0.31860  0.99990  1.0000 -0.0814871978
C   C116      1.0  0.30110  0.81860  0.00010  1.0000 -0.0814871978
C   C117      1.0  0.68050  0.34470  0.07270  1.0000 -0.1402547503
C   C118      1.0  0.31950  0.84470  0.92730  1.0000 -0.1402547503
C   C119      1.0  0.60940  0.37630  0.09700  1.0000 0.0784470221
C   C120      1.0  0.39060  0.87630  0.90300  1.0000 0.0784470221
C   C121      1.0  0.68240  0.57740  0.50010  1.0000 0.6100274473
C   C122      1.0  0.31760  0.07740  0.49990  1.0000 0.6100274473
C   C123      1.0  0.64570  0.64950  0.53640  1.0000 -0.0698447948
C   C124      1.0  0.35430  0.14950  0.46360  1.0000 -0.0698447948
C   C125      1.0  0.57580  0.67780  0.51580  1.0000 -0.1497585712
C   C126      1.0  0.42420  0.17780  0.48420  1.0000 -0.1497585712
C   C127      1.0  0.55420  0.74000  0.56340  1.0000 -0.109142187
C   C128      1.0  0.44580  0.24000  0.43660  1.0000 -0.109142187
C   C129      1.0  0.61240  0.75030  0.61800  1.0000 0.0569173837
C   C130      1.0  0.38760  0.25030  0.38200  1.0000 0.0569173837
C   C131      1.0  0.67360  0.69220  0.60060  1.0000 0.0487823145
C   C132      1.0  0.32640  0.19220  0.39940  1.0000 0.0487823145
C   C133      1.0  0.61590  0.80660  0.67550  1.0000 -0.1300554447
C   C134      1.0  0.38410  0.30660  0.32450  1.0000 -0.1300554447
C   C135      1.0  0.67440  0.82230  0.73040  1.0000 -0.0814871978
C   C136      1.0  0.32560  0.32230  0.26960  1.0000 -0.0814871978
C   C137      1.0  0.74640  0.78570  0.74020  1.0000 -0.0885793328
C   C138      1.0  0.25360  0.28570  0.25980  1.0000 -0.0885793328
C   C139      1.0  0.77790  0.72420  0.69910  1.0000 -0.0982142444
C   C140      1.0  0.22210  0.22420  0.30090  1.0000 -0.0982142444
C   C141      1.0  0.74550  0.68400  0.63840  1.0000 -0.1300554447
C   C142      1.0  0.25450  0.18400  0.36160  1.0000 -0.1300554447
C   C143      1.0  0.48100  0.78190  0.55660  1.0000 0.600139999
C   C144      1.0  0.51900  0.28190  0.44340  1.0000 0.600139999
O   O1        1.0  0.19980  0.48860  0.04500  1.0000 -1.0069735845
O   O2        1.0  0.80020  0.98860  0.95500  1.0000 -1.0069735845
O   O3        1.0  0.01260  0.48920  0.08080  1.0000 -0.5393380807
O   O4        1.0  0.98740  0.98920  0.91920  1.0000 -0.5393380807
O   O5        1.0  0.05310  0.56530  0.98430  1.0000 -0.549711903
O   O6        1.0  0.94690  0.06530  0.01570  1.0000 -0.549711903
O   O7        1.0  0.90120  0.82960  0.97230  1.0000 -0.5317955738
O   O8        1.0  0.09880  0.32960  0.02770  1.0000 -0.5317955738
O   O9        1.0  0.78140  0.81820  0.01930  1.0000 -0.5317955738
O   O10       1.0  0.21860  0.31820  0.98070  1.0000 -0.5317955738
O   O11       1.0  0.17650  0.52460  0.87450  1.0000 -0.5393380807
O   O12       1.0  0.82350  0.02460  0.12550  1.0000 -0.5393380807
O   O13       1.0  0.27660  0.44140  0.86830  1.0000 -0.5393380807
O   O14       1.0  0.72340  0.94140  0.13170  1.0000 -0.5393380807
O   O15       1.0  0.22460  0.73640  0.65870  1.0000 -0.5393380807
O   O16       1.0  0.77540  0.23640  0.34130  1.0000 -0.5393380807
O   O17       1.0  0.29280  0.69120  0.55820  1.0000 -0.5317955738
O   O18       1.0  0.70720  0.19120  0.44180  1.0000 -0.5317955738
O   O19       1.0  0.16300  0.65740  0.07930  1.0000 -0.5600619664
O   O20       1.0  0.83700  0.15740  0.92070  1.0000 -0.5600619664
O   O21       1.0  0.26740  0.62930  0.15400  1.0000 -0.5317955738
O   O22       1.0  0.73260  0.12930  0.84600  1.0000 -0.5317955738
O   O23       1.0  0.20080  0.89110  0.40640  1.0000 -0.5317955738
O   O24       1.0  0.79920  0.39110  0.59360  1.0000 -0.5317955738
O   O25       1.0  0.28230  0.78930  0.40320  1.0000 -0.5393380807
O   O26       1.0  0.71770  0.28930  0.59680  1.0000 -0.5393380807
O   O27       1.0  0.20450  0.49540  0.23070  1.0000 -0.5393380807
O   O28       1.0  0.79550  0.99540  0.76930  1.0000 -0.5393380807
O   O29       1.0  0.12090  0.40720  0.18690  1.0000 -0.5317955738
O   O30       1.0  0.87910  0.90720  0.81310  1.0000 -0.5317955738
O   O31       1.0  0.86530  0.46410  0.44680  1.0000 -0.5393380807
O   O32       1.0  0.13470  0.96410  0.55320  1.0000 -0.5393380807
O   O33       1.0  0.86220  0.39180  0.33830  1.0000 -0.5317955738
O   O34       1.0  0.13780  0.89180  0.66170  1.0000 -0.5317955738
O   O35       1.0  0.36400  0.47310  0.13630  1.0000 -0.5317955738
O   O36       1.0  0.63600  0.97310  0.86370  1.0000 -0.5317955738
O   O37       1.0  0.36920  0.41390  0.02080  1.0000 -0.5317955738
O   O38       1.0  0.63080  0.91390  0.97920  1.0000 -0.5317955738
O   O39       1.0  0.62280  0.45020  0.29630  1.0000 -0.5234292944
O   O40       1.0  0.37720  0.95020  0.70370  1.0000 -0.5234292944
O   O41       1.0  0.70240  0.36200  0.24420  1.0000 -0.5317955738
O   O42       1.0  0.29760  0.86200  0.75580  1.0000 -0.5317955738
O   O43       1.0  0.70160  0.37970  0.43500  1.0000 -1.0069735845
O   O44       1.0  0.29840  0.87970  0.56500  1.0000 -1.0069735845
O   O45       1.0  0.73710  0.54400  0.53840  1.0000 -0.5317955738
O   O46       1.0  0.26290  0.04400  0.46160  1.0000 -0.5317955738
O   O47       1.0  0.65200  0.55220  0.43850  1.0000 -0.5600619664
O   O48       1.0  0.34800  0.05220  0.56150  1.0000 -0.5600619664
O   O49       1.0  0.46320  0.83450  0.60410  1.0000 -0.5739162764
O   O50       1.0  0.53680  0.33450  0.39590  1.0000 -0.5739162764
O   O51       1.0  0.43700  0.75900  0.50170  1.0000 -0.5317955738
O   O52       1.0  0.56300  0.25900  0.49830  1.0000 -0.5317955738
