# DDEC6 charges by PACMAN v1.1 (https://github.com/mtap-research/PACMAN-charge/)
data_2010[Zn][nan]3[ASR]4
_chemical_formula_sum              "Zn8 H56 C88 O28"
_cell_length_a       10.1365
_cell_length_b       11.4134
_cell_length_c       29.2794
_cell_angle_alpha    90
_cell_angle_beta     90
_cell_angle_gamma    90

_symmetry_space_group_name_H-M    "P 1"
_symmetry_Int_Tables_number       1

loop_
  _symmetry_equiv_pos_as_xyz
  'x, y, z'

loop_
  _atom_site_type_symbol
  _atom_site_label
  _atom_site_symmetry_multiplicity
  _atom_site_fract_x
  _atom_site_fract_y
  _atom_site_fract_z
  _atom_site_occupancy
  _atom_site_charge
Zn  Zn1       1.0  0.65861  0.68462  0.99302  1.0000 0.931577436
Zn  Zn2       1.0  0.84139  0.31538  0.49302  1.0000 0.931577436
Zn  Zn3       1.0  0.34139  0.18462  0.50698  1.0000 0.931577436
Zn  Zn4       1.0  0.15861  0.81538  0.00698  1.0000 0.931577436
Zn  Zn5       1.0  0.96531  0.56981  0.99377  1.0000 0.9690432318
Zn  Zn6       1.0  0.53469  0.43019  0.49377  1.0000 0.9690432318
Zn  Zn7       1.0  0.03469  0.06981  0.50623  1.0000 0.9690432318
Zn  Zn8       1.0  0.46531  0.93019  0.00623  1.0000 0.9690432318
H   H1        1.0  0.75080  0.98130  0.02210  1.0000 0.1044909054
H   H2        1.0  0.74920  0.01870  0.52210  1.0000 0.1044909054
H   H3        1.0  0.24920  0.48130  0.47790  1.0000 0.1044909054
H   H4        1.0  0.25080  0.51870  0.97790  1.0000 0.1044909054
H   H5        1.0  0.86610  0.12830  0.98000  1.0000 0.1198567168
H   H6        1.0  0.63390  0.87170  0.48000  1.0000 0.1198567168
H   H7        1.0  0.13390  0.62830  0.52000  1.0000 0.1198567168
H   H8        1.0  0.36610  0.37170  0.02000  1.0000 0.1198567168
H   H9        1.0  0.90980  0.22650  0.91120  1.0000 0.1101945244
H   H10       1.0  0.59020  0.77350  0.41120  1.0000 0.1101945244
H   H11       1.0  0.09020  0.72650  0.58880  1.0000 0.1101945244
H   H12       1.0  0.40980  0.27350  0.08880  1.0000 0.1101945244
H   H13       1.0  0.83550  0.14750  0.84220  1.0000 0.1101945244
H   H14       1.0  0.66450  0.85250  0.34220  1.0000 0.1101945244
H   H15       1.0  0.16450  0.64750  0.65780  1.0000 0.1101945244
H   H16       1.0  0.33550  0.35250  0.15780  1.0000 0.1101945244
H   H17       1.0  0.72590  0.96740  0.84120  1.0000 0.1101945244
H   H18       1.0  0.77410  0.03260  0.34120  1.0000 0.1101945244
H   H19       1.0  0.27410  0.46740  0.65880  1.0000 0.1101945244
H   H20       1.0  0.22590  0.53260  0.15880  1.0000 0.1101945244
H   H21       1.0  0.68560  0.86820  0.91020  1.0000 0.1198567168
H   H22       1.0  0.81440  0.13180  0.41020  1.0000 0.1198567168
H   H23       1.0  0.31440  0.36820  0.58980  1.0000 0.1198567168
H   H24       1.0  0.18560  0.63180  0.08980  1.0000 0.1198567168
H   H25       1.0  0.96470  0.51240  0.13370  1.0000 0.1198567168
H   H26       1.0  0.53530  0.48760  0.63370  1.0000 0.1198567168
H   H27       1.0  0.03530  0.01240  0.36630  1.0000 0.1101945244
H   H28       1.0  0.46470  0.98760  0.86630  1.0000 0.1198567168
H   H29       1.0  0.95000  0.48280  0.21230  1.0000 0.1101945244
H   H30       1.0  0.55000  0.51720  0.71230  1.0000 0.1101945244
H   H31       1.0  0.05000  0.98280  0.28770  1.0000 0.1101945244
H   H32       1.0  0.45000  0.01720  0.78770  1.0000 0.1101945244
H   H33       1.0  0.55310  0.52480  0.20630  1.0000 0.1101945244
H   H34       1.0  0.94690  0.47520  0.70630  1.0000 0.1101945244
H   H35       1.0  0.44690  0.02480  0.29370  1.0000 0.1101945244
H   H36       1.0  0.05310  0.97520  0.79370  1.0000 0.1101945244
H   H37       1.0  0.56800  0.55910  0.12770  1.0000 0.1198567168
H   H38       1.0  0.93200  0.44090  0.62770  1.0000 0.1198567168
H   H39       1.0  0.43200  0.05910  0.37230  1.0000 0.1198567168
H   H40       1.0  0.06800  0.94090  0.87230  1.0000 0.1198567168
H   H41       1.0  0.87880  0.35340  0.27160  1.0000 0.1101945244
H   H42       1.0  0.62120  0.64660  0.77160  1.0000 0.1101945244
H   H43       1.0  0.12120  0.85340  0.22840  1.0000 0.1101945244
H   H44       1.0  0.37880  0.14660  0.72840  1.0000 0.1101945244
H   H45       1.0  0.86490  0.32370  0.35010  1.0000 0.1198567168
H   H46       1.0  0.63510  0.67630  0.85010  1.0000 0.1198567168
H   H47       1.0  0.13510  0.82370  0.14990  1.0000 0.1198567168
H   H48       1.0  0.36490  0.17630  0.64990  1.0000 0.1198567168
H   H49       1.0  0.58300  0.57490  0.35820  1.0000 0.1198567168
H   H50       1.0  0.91700  0.42510  0.85820  1.0000 0.1198567168
H   H51       1.0  0.41700  0.07490  0.14180  1.0000 0.1198567168
H   H52       1.0  0.08300  0.92510  0.64180  1.0000 0.1198567168
H   H53       1.0  0.60240  0.60810  0.27970  1.0000 0.1101945244
H   H54       1.0  0.89760  0.39190  0.77970  1.0000 0.1101945244
H   H55       1.0  0.39760  0.10810  0.22030  1.0000 0.1101945244
H   H56       1.0  0.10240  0.89190  0.72030  1.0000 0.1101945244
C   C1        1.0  0.87450  0.84430  0.00240  1.0000 0.5990182478
C   C2        1.0  0.62550  0.15570  0.50240  1.0000 0.5990182478
C   C3        1.0  0.12550  0.34430  0.49760  1.0000 0.5990182478
C   C4        1.0  0.37450  0.65570  0.99760  1.0000 0.5990182478
C   C5        1.0  0.75280  0.92280  0.99665  1.0000 0.0016068816
C   C6        1.0  0.74720  0.07720  0.49665  1.0000 0.0016068816
C   C7        1.0  0.24720  0.42280  0.50335  1.0000 0.0016068816
C   C8        1.0  0.25280  0.57720  0.00335  1.0000 0.0016068816
C   C9        1.0  0.77150  0.98750  0.95140  1.0000 0.0634062861
C   C10       1.0  0.72850  0.01250  0.45140  1.0000 0.0634062861
C   C11       1.0  0.22850  0.48750  0.54860  1.0000 0.0634062861
C   C12       1.0  0.27150  0.51250  0.04860  1.0000 0.0634062861
C   C13       1.0  0.83810  0.09530  0.95187  1.0000 -0.1408369548
C   C14       1.0  0.66190  0.90470  0.45187  1.0000 -0.1408369548
C   C15       1.0  0.16190  0.59530  0.54813  1.0000 -0.1408369548
C   C16       1.0  0.33810  0.40470  0.04813  1.0000 -0.1408369548
C   C17       1.0  0.86330  0.15430  0.91095  1.0000 -0.0801097329
C   C18       1.0  0.63670  0.84570  0.41095  1.0000 -0.0801097329
C   C19       1.0  0.13670  0.65430  0.58905  1.0000 -0.0801097329
C   C20       1.0  0.36330  0.34570  0.08905  1.0000 -0.0801097329
C   C21       1.0  0.82010  0.10670  0.86994  1.0000 -0.1077512639
C   C22       1.0  0.67990  0.89330  0.36994  1.0000 -0.1077512639
C   C23       1.0  0.17990  0.60670  0.63006  1.0000 -0.1077512639
C   C24       1.0  0.32010  0.39330  0.13006  1.0000 -0.1077512639
C   C25       1.0  0.75450  0.00020  0.86929  1.0000 -0.0910139426
C   C26       1.0  0.74550  0.99980  0.36929  1.0000 -0.0910139426
C   C27       1.0  0.24550  0.50020  0.63071  1.0000 -0.0910139426
C   C28       1.0  0.25450  0.49980  0.13071  1.0000 -0.0910139426
C   C29       1.0  0.73060  0.94120  0.91056  1.0000 -0.1304551295
C   C30       1.0  0.76940  0.05880  0.41056  1.0000 -0.1304551295
C   C31       1.0  0.26940  0.44120  0.58944  1.0000 -0.1304551295
C   C32       1.0  0.23060  0.55880  0.08944  1.0000 -0.1304551295
C   C33       1.0  0.77670  0.56320  0.07316  1.0000 0.5990182478
C   C34       1.0  0.72330  0.43680  0.57316  1.0000 0.5990182478
C   C35       1.0  0.22330  0.06320  0.42684  1.0000 0.5990182478
C   C36       1.0  0.27670  0.93680  0.92684  1.0000 0.5990182478
C   C37       1.0  0.76720  0.53900  0.12315  1.0000 -0.0321223425
C   C38       1.0  0.73280  0.46100  0.62315  1.0000 -0.0321223425
C   C39       1.0  0.23280  0.03900  0.37685  1.0000 -0.0321223425
C   C40       1.0  0.26720  0.96100  0.87685  1.0000 -0.0321223425
C   C41       1.0  0.88140  0.51580  0.14845  1.0000 -0.0974359531
C   C42       1.0  0.61860  0.48420  0.64845  1.0000 -0.0974359531
C   C43       1.0  0.11860  0.01580  0.35155  1.0000 -0.0974359531
C   C44       1.0  0.38140  0.98420  0.85155  1.0000 -0.0974359531
C   C45       1.0  0.87230  0.49780  0.19512  1.0000 -0.1511870778
C   C46       1.0  0.62770  0.50220  0.69512  1.0000 -0.1511870778
C   C47       1.0  0.12770  0.99780  0.30488  1.0000 -0.1511870778
C   C48       1.0  0.37230  0.00220  0.80488  1.0000 -0.1511870778
C   C49       1.0  0.75090  0.50130  0.21719  1.0000 0.0743229485
C   C50       1.0  0.74910  0.49870  0.71719  1.0000 0.0743229485
C   C51       1.0  0.24910  0.00130  0.28281  1.0000 0.0743229485
C   C52       1.0  0.25090  0.99870  0.78281  1.0000 0.0743229485
C   C53       1.0  0.63670  0.52330  0.19161  1.0000 -0.1511870778
C   C54       1.0  0.86330  0.47670  0.69161  1.0000 -0.1511870778
C   C55       1.0  0.36330  0.02330  0.30839  1.0000 -0.1511870778
C   C56       1.0  0.13670  0.97670  0.80839  1.0000 -0.1511870778
C   C57       1.0  0.64550  0.54300  0.14481  1.0000 -0.0910139426
C   C58       1.0  0.85450  0.45700  0.64481  1.0000 -0.0910139426
C   C59       1.0  0.35450  0.04300  0.35519  1.0000 -0.0910139426
C   C60       1.0  0.14550  0.95700  0.85519  1.0000 -0.0910139426
C   C61       1.0  0.74290  0.48320  0.26752  1.0000 0.0743229485
C   C62       1.0  0.75710  0.51680  0.76752  1.0000 0.0743229485
C   C63       1.0  0.25710  0.98320  0.23248  1.0000 0.0743229485
C   C64       1.0  0.24290  0.01680  0.73248  1.0000 0.0743229485
C   C65       1.0  0.81910  0.39920  0.28916  1.0000 -0.1511870778
C   C66       1.0  0.68090  0.60080  0.78916  1.0000 -0.1511870778
C   C67       1.0  0.18090  0.89920  0.21084  1.0000 -0.1511870778
C   C68       1.0  0.31910  0.10080  0.71084  1.0000 -0.1511870778
C   C69       1.0  0.81010  0.38040  0.33582  1.0000 -0.0974359531
C   C70       1.0  0.68990  0.61960  0.83582  1.0000 -0.0974359531
C   C71       1.0  0.18990  0.88040  0.16418  1.0000 -0.0974359531
C   C72       1.0  0.31010  0.11960  0.66418  1.0000 -0.0974359531
C   C73       1.0  0.72070  0.44470  0.36164  1.0000 -0.0373322858
C   C74       1.0  0.77930  0.55530  0.86164  1.0000 -0.0373322858
C   C75       1.0  0.27930  0.94470  0.13836  1.0000 -0.0373322858
C   C76       1.0  0.22070  0.05530  0.63836  1.0000 -0.0373322858
C   C77       1.0  0.64340  0.53000  0.34066  1.0000 -0.0974359531
C   C78       1.0  0.85660  0.47000  0.84066  1.0000 -0.0974359531
C   C79       1.0  0.35660  0.03000  0.15934  1.0000 -0.0974359531
C   C80       1.0  0.14340  0.97000  0.65934  1.0000 -0.0974359531
C   C81       1.0  0.65480  0.54950  0.29387  1.0000 -0.1511870778
C   C82       1.0  0.84520  0.45050  0.79387  1.0000 -0.1511870778
C   C83       1.0  0.34520  0.04950  0.20613  1.0000 -0.1511870778
C   C84       1.0  0.15480  0.95050  0.70613  1.0000 -0.1511870778
C   C85       1.0  0.70910  0.42300  0.41190  1.0000 0.5990182478
C   C86       1.0  0.79090  0.57700  0.91190  1.0000 0.5990182478
C   C87       1.0  0.29090  0.92300  0.08810  1.0000 0.5990182478
C   C88       1.0  0.20910  0.07700  0.58810  1.0000 0.5990182478
O   O1        1.0  0.86080  0.73540  0.99609  1.0000 -0.5711004144
O   O2        1.0  0.63920  0.26460  0.49609  1.0000 -0.5711004144
O   O3        1.0  0.13920  0.23540  0.50391  1.0000 -0.5711004144
O   O4        1.0  0.36080  0.76460  0.00391  1.0000 -0.5711004144
O   O5        1.0  0.98090  0.89430  0.01236  1.0000 -0.4920202724
O   O6        1.0  0.51910  0.10570  0.51236  1.0000 -0.4920202724
O   O7        1.0  0.01910  0.39430  0.48764  1.0000 -0.4920202724
O   O8        1.0  0.48090  0.60570  0.98764  1.0000 -0.4920202724
O   O9        1.0  0.63590  0.85500  0.99813  1.0000 -0.6278143606
O   O10       1.0  0.86410  0.14500  0.49813  1.0000 -0.6278143606
O   O11       1.0  0.36410  0.35500  0.50187  1.0000 -0.6278143606
O   O12       1.0  0.13590  0.64500  0.00187  1.0000 -0.6278143606
O   O13       1.0  0.67990  0.60870  0.05416  1.0000 -0.5228278867
O   O14       1.0  0.82010  0.39130  0.55416  1.0000 -0.5228278867
O   O15       1.0  0.32010  0.10870  0.44584  1.0000 -0.5228278867
O   O16       1.0  0.17990  0.89130  0.94584  1.0000 -0.5228278867
O   O17       1.0  0.88270  0.53130  0.05338  1.0000 -0.5761823288
O   O18       1.0  0.61730  0.46870  0.55338  1.0000 -0.5761823288
O   O19       1.0  0.11730  0.03130  0.44662  1.0000 -0.5761823288
O   O20       1.0  0.38270  0.96870  0.94662  1.0000 -0.5761823288
O   O21       1.0  0.80610  0.37090  0.43022  1.0000 -0.5353479317
O   O22       1.0  0.69390  0.62910  0.93022  1.0000 -0.5353479317
O   O23       1.0  0.19390  0.87090  0.06978  1.0000 -0.5346536568
O   O24       1.0  0.30610  0.12910  0.56978  1.0000 -0.5353479317
O   O25       1.0  0.60630  0.45750  0.43190  1.0000 -0.5711004144
O   O26       1.0  0.89370  0.54250  0.93190  1.0000 -0.5711004144
O   O27       1.0  0.39370  0.95750  0.06810  1.0000 -0.5711004144
O   O28       1.0  0.10630  0.04250  0.56810  1.0000 -0.5711004144
