# DDEC6 charges by PACMAN v1.1 (https://github.com/mtap-research/PACMAN-charge/)
data_2010[Eu][pcu]3[ASR]1
_chemical_formula_sum              "Eu4 H48 C84 N12 O24"
_cell_length_a       16.1044
_cell_length_b       16.1044
_cell_length_c       27.919
_cell_angle_alpha    79.8987
_cell_angle_beta     100.101
_cell_angle_gamma    116.854

_symmetry_space_group_name_H-M    "P 1"
_symmetry_Int_Tables_number       1

loop_
  _symmetry_equiv_pos_as_xyz
  'x, y, z'

loop_
  _atom_site_type_symbol
  _atom_site_label
  _atom_site_symmetry_multiplicity
  _atom_site_fract_x
  _atom_site_fract_y
  _atom_site_fract_z
  _atom_site_occupancy
  _atom_site_charge
Eu  Eu1       1.0  0.06657  0.46867  0.95391  1.0000 2.0786078783
Eu  Eu2       1.0  0.46867  0.06657  0.54609  1.0000 2.0786078783
Eu  Eu3       1.0  0.93343  0.53133  0.04609  1.0000 2.0786078783
Eu  Eu4       1.0  0.53133  0.93343  0.45391  1.0000 2.0786078783
H   H1        1.0  0.06560  0.36680  0.79670  1.0000 0.1222843179
H   H2        1.0  0.36680  0.06560  0.70330  1.0000 0.1222843179
H   H3        1.0  0.93440  0.63320  0.20330  1.0000 0.1222843179
H   H4        1.0  0.63320  0.93440  0.29670  1.0000 0.1222843179
H   H5        1.0  0.10660  0.29260  0.74640  1.0000 0.1222843179
H   H6        1.0  0.29260  0.10660  0.75360  1.0000 0.1222843179
H   H7        1.0  0.89340  0.70740  0.25360  1.0000 0.1222843179
H   H8        1.0  0.70740  0.89340  0.24640  1.0000 0.1222843179
H   H9        1.0  0.19380  0.15820  0.86650  1.0000 0.1222843179
H   H10       1.0  0.15820  0.19380  0.63350  1.0000 0.1222843179
H   H11       1.0  0.80620  0.84180  0.13350  1.0000 0.1222843179
H   H12       1.0  0.84180  0.80620  0.36650  1.0000 0.1222843179
H   H13       1.0  0.16100  0.24060  0.91440  1.0000 0.1222843179
H   H14       1.0  0.24060  0.16100  0.58560  1.0000 0.1222843179
H   H15       1.0  0.83900  0.75940  0.08560  1.0000 0.1222843179
H   H16       1.0  0.75940  0.83900  0.41440  1.0000 0.1222843179
H   H17       1.0  0.17250  0.32490  0.08980  1.0000 0.1305620433
H   H18       1.0  0.32490  0.17250  0.41020  1.0000 0.1305620433
H   H19       1.0  0.82750  0.67510  0.91020  1.0000 0.1305620433
H   H20       1.0  0.67510  0.82750  0.58980  1.0000 0.1305620433
H   H21       1.0  0.23310  0.26150  0.15870  1.0000 0.1222843179
H   H22       1.0  0.26150  0.23310  0.34130  1.0000 0.1222843179
H   H23       1.0  0.76690  0.73850  0.84130  1.0000 0.1222843179
H   H24       1.0  0.73850  0.76690  0.65870  1.0000 0.1222843179
H   H25       1.0  0.13470  0.36710  0.24260  1.0000 0.1222843179
H   H26       1.0  0.36710  0.13470  0.25740  1.0000 0.1222843179
H   H27       1.0  0.86530  0.63290  0.75740  1.0000 0.1222843179
H   H28       1.0  0.63290  0.86530  0.74260  1.0000 0.1222843179
H   H29       1.0  0.06790  0.43050  0.17080  1.0000 0.1377690235
H   H30       1.0  0.43050  0.06790  0.32920  1.0000 0.1377690235
H   H31       1.0  0.93210  0.56950  0.82920  1.0000 0.1377690235
H   H32       1.0  0.56950  0.93210  0.67080  1.0000 0.1377690235
H   H33       1.0  0.21070  0.82410  0.05560  1.0000 0.1377690235
H   H34       1.0  0.82410  0.21070  0.44440  1.0000 0.1377690235
H   H35       1.0  0.78930  0.17590  0.94440  1.0000 0.1377690235
H   H36       1.0  0.17590  0.78930  0.55560  1.0000 0.1377690235
H   H37       1.0  0.35430  0.94910  0.04310  1.0000 0.1222843179
H   H38       1.0  0.94910  0.35430  0.45690  1.0000 0.1222843179
H   H39       1.0  0.64570  0.05090  0.95690  1.0000 0.1222843179
H   H40       1.0  0.05090  0.64570  0.54310  1.0000 0.1222843179
H   H41       1.0  0.41160  0.80720  0.96040  1.0000 0.1222843179
H   H42       1.0  0.80720  0.41160  0.53960  1.0000 0.1222843179
H   H43       1.0  0.58840  0.19280  0.03960  1.0000 0.1222843179
H   H44       1.0  0.19280  0.58840  0.46040  1.0000 0.1222843179
H   H45       1.0  0.26850  0.68210  0.96900  1.0000 0.1122420342
H   H46       1.0  0.68210  0.26850  0.53100  1.0000 0.1122420342
H   H47       1.0  0.73150  0.31790  0.03100  1.0000 0.1122420342
H   H48       1.0  0.31790  0.73150  0.46900  1.0000 0.1122420342
C   C1        1.0  0.07611  0.35469  0.89000  1.0000 0.5634309711
C   C2        1.0  0.35469  0.07611  0.61000  1.0000 0.5634309711
C   C3        1.0  0.92389  0.64531  0.11000  1.0000 0.5634309711
C   C4        1.0  0.64531  0.92389  0.39000  1.0000 0.5634309711
C   C5        1.0  0.09217  0.29487  0.86115  1.0000 -0.0300962212
C   C6        1.0  0.29487  0.09217  0.63885  1.0000 -0.0300962212
C   C7        1.0  0.90783  0.70513  0.13885  1.0000 -0.0300962212
C   C8        1.0  0.70513  0.90783  0.36115  1.0000 -0.0300962212
C   C9        1.0  0.08701  0.32199  0.81013  1.0000 -0.0731671473
C   C10       1.0  0.32199  0.08701  0.68987  1.0000 -0.0731671473
C   C11       1.0  0.91299  0.67801  0.18987  1.0000 -0.0731671473
C   C12       1.0  0.67801  0.91299  0.31013  1.0000 -0.0731671473
C   C13       1.0  0.11480  0.28010  0.78030  1.0000 -0.1509837791
C   C14       1.0  0.28010  0.11480  0.71970  1.0000 -0.1509837791
C   C15       1.0  0.88520  0.71990  0.21970  1.0000 -0.1509837791
C   C16       1.0  0.71990  0.88520  0.28030  1.0000 -0.1509837791
C   C17       1.0  0.15455  0.22005  0.80101  1.0000 0.1837214274
C   C18       1.0  0.22005  0.15455  0.69899  1.0000 0.1837214274
C   C19       1.0  0.84545  0.77995  0.19899  1.0000 0.1837214274
C   C20       1.0  0.77995  0.84545  0.30101  1.0000 0.1837214274
C   C21       1.0  0.16860  0.19976  0.85252  1.0000 -0.1509837791
C   C22       1.0  0.19976  0.16860  0.64748  1.0000 -0.1509837791
C   C23       1.0  0.83140  0.80024  0.14748  1.0000 -0.1509837791
C   C24       1.0  0.80024  0.83140  0.35252  1.0000 -0.1509837791
C   C25       1.0  0.14332  0.24432  0.88083  1.0000 -0.0621044575
C   C26       1.0  0.24432  0.14332  0.61917  1.0000 -0.0621044575
C   C27       1.0  0.85668  0.75568  0.11917  1.0000 -0.0621044575
C   C28       1.0  0.75568  0.85668  0.38083  1.0000 -0.0621044575
C   C29       1.0  0.07616  0.42158  0.07683  1.0000 0.6494101049
C   C30       1.0  0.42158  0.07616  0.42317  1.0000 0.6494101049
C   C31       1.0  0.92384  0.57842  0.92317  1.0000 0.6494101049
C   C32       1.0  0.57842  0.92384  0.57683  1.0000 0.6494101049
C   C33       1.0  0.11305  0.38189  0.12299  1.0000 -0.0425703553
C   C34       1.0  0.38189  0.11305  0.37701  1.0000 -0.0425703553
C   C35       1.0  0.88695  0.61811  0.87701  1.0000 -0.0425703553
C   C36       1.0  0.61811  0.88695  0.62299  1.0000 -0.0425703553
C   C37       1.0  0.16332  0.33268  0.12042  1.0000 -0.0770512683
C   C38       1.0  0.33268  0.16332  0.37958  1.0000 -0.0770512683
C   C39       1.0  0.83668  0.66732  0.87958  1.0000 -0.0770512683
C   C40       1.0  0.66732  0.83668  0.62042  1.0000 -0.0770512683
C   C41       1.0  0.20002  0.29498  0.16130  1.0000 -0.1316086235
C   C42       1.0  0.29498  0.20002  0.33870  1.0000 -0.1316086235
C   C43       1.0  0.79998  0.70502  0.83870  1.0000 -0.1316086235
C   C44       1.0  0.70502  0.79998  0.66130  1.0000 -0.1316086235
C   C45       1.0  0.18763  0.30717  0.20466  1.0000 0.1837214274
C   C46       1.0  0.30717  0.18763  0.29534  1.0000 0.1837214274
C   C47       1.0  0.81237  0.69283  0.79534  1.0000 0.1837214274
C   C48       1.0  0.69283  0.81237  0.70466  1.0000 0.1837214274
C   C49       1.0  0.14017  0.35845  0.21146  1.0000 -0.1509837791
C   C50       1.0  0.35845  0.14017  0.28854  1.0000 -0.1509837791
C   C51       1.0  0.85983  0.64155  0.78854  1.0000 -0.1509837791
C   C52       1.0  0.64155  0.85983  0.71146  1.0000 -0.1509837791
C   C53       1.0  0.10071  0.39673  0.16848  1.0000 -0.0770512683
C   C54       1.0  0.39673  0.10071  0.33152  1.0000 -0.0770512683
C   C55       1.0  0.89929  0.60327  0.83152  1.0000 -0.0770512683
C   C56       1.0  0.60327  0.89929  0.66848  1.0000 -0.0770512683
C   C57       1.0  0.12951  0.66441  0.01905  1.0000 0.6140527936
C   C58       1.0  0.66441  0.12951  0.48095  1.0000 0.6150579663
C   C59       1.0  0.87049  0.33559  0.98095  1.0000 0.6150579663
C   C60       1.0  0.33559  0.87049  0.51905  1.0000 0.6140527936
C   C61       1.0  0.22300  0.74056  0.01255  1.0000 -0.0425703553
C   C62       1.0  0.74056  0.22300  0.48745  1.0000 -0.0425703553
C   C63       1.0  0.77700  0.25944  0.98745  1.0000 -0.0425703553
C   C64       1.0  0.25944  0.77700  0.51255  1.0000 -0.0425703553
C   C65       1.0  0.24978  0.82082  0.03588  1.0000 -0.0731671473
C   C66       1.0  0.82082  0.24978  0.46412  1.0000 -0.0731671473
C   C67       1.0  0.75022  0.17918  0.96412  1.0000 -0.0731671473
C   C68       1.0  0.17918  0.75022  0.53588  1.0000 -0.0731671473
C   C69       1.0  0.33585  0.89475  0.02855  1.0000 -0.1316086235
C   C70       1.0  0.89475  0.33585  0.47145  1.0000 -0.1316086235
C   C71       1.0  0.66415  0.10525  0.97145  1.0000 -0.1316086235
C   C72       1.0  0.10525  0.66415  0.52855  1.0000 -0.1316086235
C   C73       1.0  0.39799  0.88993  0.99886  1.0000 0.2109742896
C   C74       1.0  0.88993  0.39799  0.50114  1.0000 0.2109742896
C   C75       1.0  0.60201  0.11007  0.00114  1.0000 0.2109742896
C   C76       1.0  0.11007  0.60201  0.49886  1.0000 0.2109742896
C   C77       1.0  0.37081  0.81119  0.97874  1.0000 -0.1509837791
C   C78       1.0  0.81119  0.37081  0.52126  1.0000 -0.1509837791
C   C79       1.0  0.62919  0.18881  0.02126  1.0000 -0.1509837791
C   C80       1.0  0.18881  0.62919  0.47874  1.0000 -0.1509837791
C   C81       1.0  0.28528  0.73552  0.98392  1.0000 -0.0731671473
C   C82       1.0  0.73552  0.28528  0.51608  1.0000 -0.0731671473
C   C83       1.0  0.71472  0.26448  0.01608  1.0000 -0.0770512683
C   C84       1.0  0.26448  0.71472  0.48392  1.0000 -0.0770512683
N   N1        1.0  0.19094  0.18004  0.77468  1.0000 -0.191764099
N   N2        1.0  0.18004  0.19094  0.72532  1.0000 -0.191764099
N   N3        1.0  0.80906  0.81996  0.22532  1.0000 -0.191764099
N   N4        1.0  0.81996  0.80906  0.27468  1.0000 -0.191764099
N   N5        1.0  0.22590  0.27628  0.24907  1.0000 -0.2225326686
N   N6        1.0  0.27628  0.22590  0.25093  1.0000 -0.2225326686
N   N7        1.0  0.77410  0.72372  0.75093  1.0000 -0.2225326686
N   N8        1.0  0.72372  0.77410  0.74907  1.0000 -0.2225326686
N   N9        1.0  0.48418  0.95564  0.99480  1.0000 -0.2303716591
N   N10       1.0  0.95564  0.48418  0.50520  1.0000 -0.2303716591
N   N11       1.0  0.51582  0.04436  0.00520  1.0000 -0.2303716591
N   N12       1.0  0.04436  0.51582  0.49480  1.0000 -0.2303716591
O   O1        1.0  0.04176  0.40924  0.87409  1.0000 -0.6093120961
O   O2        1.0  0.40924  0.04176  0.62591  1.0000 -0.6093120961
O   O3        1.0  0.95824  0.59076  0.12591  1.0000 -0.6093120961
O   O4        1.0  0.59076  0.95824  0.37409  1.0000 -0.6093120961
O   O5        1.0  0.10377  0.34353  0.93663  1.0000 -0.6700309677
O   O6        1.0  0.34353  0.10377  0.56337  1.0000 -0.6700309677
O   O7        1.0  0.89623  0.65647  0.06337  1.0000 -0.6700309677
O   O8        1.0  0.65647  0.89623  0.43663  1.0000 -0.6700309677
O   O9        1.0  0.08465  0.40767  0.03516  1.0000 -0.6700309677
O   O10       1.0  0.40767  0.08465  0.46484  1.0000 -0.6700309677
O   O11       1.0  0.91535  0.59233  0.96484  1.0000 -0.6700309677
O   O12       1.0  0.59233  0.91535  0.53516  1.0000 -0.6700309677
O   O13       1.0  0.03640  0.46898  0.08611  1.0000 -0.6816388009
O   O14       1.0  0.46898  0.03640  0.41389  1.0000 -0.6816388009
O   O15       1.0  0.96360  0.53102  0.91389  1.0000 -0.6816388009
O   O16       1.0  0.53102  0.96360  0.58611  1.0000 -0.6816388009
O   O17       1.0  0.10378  0.59706  0.99707  1.0000 -0.6816388009
O   O18       1.0  0.59706  0.10378  0.50293  1.0000 -0.6816388009
O   O19       1.0  0.89622  0.40294  0.00293  1.0000 -0.6816388009
O   O20       1.0  0.40294  0.89622  0.49707  1.0000 -0.6816388009
O   O21       1.0  0.07948  0.67512  0.04618  1.0000 -0.6036782949
O   O22       1.0  0.67512  0.07948  0.45382  1.0000 -0.6036782949
O   O23       1.0  0.92052  0.32488  0.95382  1.0000 -0.6036782949
O   O24       1.0  0.32488  0.92052  0.54618  1.0000 -0.6036782949
