# DDEC6 charges by PACMAN v1.1 (https://github.com/mtap-research/PACMAN-charge/)
data_2010[Cu][nan]3[ASR]10
_chemical_formula_sum              "Cu8 H12 C32 S4 O32"
_cell_length_a       7.31
_cell_length_b       18.28
_cell_length_c       12.0144
_cell_angle_alpha    90
_cell_angle_beta     122.687
_cell_angle_gamma    90

_symmetry_space_group_name_H-M    "P 1"
_symmetry_Int_Tables_number       1

loop_
  _symmetry_equiv_pos_as_xyz
  'x, y, z'

loop_
  _atom_site_type_symbol
  _atom_site_label
  _atom_site_symmetry_multiplicity
  _atom_site_fract_x
  _atom_site_fract_y
  _atom_site_fract_z
  _atom_site_occupancy
  _atom_site_charge
Cu  Cu1       1.0  0.35104  0.09313  0.21750  1.0000 1.0452471147
Cu  Cu2       1.0  0.64896  0.59313  0.28250  1.0000 1.0452471147
Cu  Cu3       1.0  0.64896  0.90687  0.78250  1.0000 1.0452471147
Cu  Cu4       1.0  0.35104  0.40687  0.71750  1.0000 1.0452471147
Cu  Cu5       1.0  0.88488  0.06848  0.93480  1.0000 1.1465937863
Cu  Cu6       1.0  0.11512  0.56848  0.56520  1.0000 1.1465937863
Cu  Cu7       1.0  0.11512  0.93152  0.06520  1.0000 1.1465937863
Cu  Cu8       1.0  0.88488  0.43152  0.43480  1.0000 1.1465937863
H   H1        1.0  0.37930  0.30560  0.16870  1.0000 0.1430896441
H   H2        1.0  0.62070  0.80560  0.33130  1.0000 0.1430896441
H   H3        1.0  0.62070  0.69440  0.83130  1.0000 0.1430896441
H   H4        1.0  0.37930  0.19440  0.66870  1.0000 0.1430896441
H   H5        1.0  0.85010  0.29310  0.79900  1.0000 0.1485085855
H   H6        1.0  0.14990  0.79310  0.70100  1.0000 0.1485085855
H   H7        1.0  0.14990  0.70690  0.20100  1.0000 0.1485085855
H   H8        1.0  0.85010  0.20690  0.29900  1.0000 0.1485085855
H   H9        1.0  0.15510  0.48670  0.94240  1.0000 0.1485085855
H   H10       1.0  0.84490  0.98670  0.55760  1.0000 0.1485085855
H   H11       1.0  0.84490  0.51330  0.05760  1.0000 0.1485085855
H   H12       1.0  0.15510  0.01330  0.44240  1.0000 0.1485085855
C   C1        1.0  0.98280  0.39509  0.85300  1.0000 -0.0624887911
C   C2        1.0  0.01720  0.89509  0.64700  1.0000 -0.0624887911
C   C3        1.0  0.01720  0.60491  0.14700  1.0000 -0.0624887911
C   C4        1.0  0.98280  0.10491  0.35300  1.0000 -0.0624887911
C   C5        1.0  0.29500  0.40307  0.07480  1.0000 -0.0007741773
C   C6        1.0  0.70500  0.90307  0.42520  1.0000 -0.0007741773
C   C7        1.0  0.70500  0.59693  0.92520  1.0000 -0.0007741773
C   C8        1.0  0.29500  0.09693  0.57480  1.0000 -0.0007741773
C   C9        1.0  0.27790  0.32826  0.08930  1.0000 -0.0805569222
C   C10       1.0  0.72210  0.82826  0.41070  1.0000 -0.0805569222
C   C11       1.0  0.72210  0.67174  0.91070  1.0000 -0.0805569222
C   C12       1.0  0.27790  0.17174  0.58930  1.0000 -0.0805569222
C   C13       1.0  0.11280  0.28665  0.98780  1.0000 -0.0053590299
C   C14       1.0  0.88720  0.78665  0.51220  1.0000 -0.0053590299
C   C15       1.0  0.88720  0.71335  0.01220  1.0000 -0.0053590299
C   C16       1.0  0.11280  0.21335  0.48780  1.0000 -0.0053590299
C   C17       1.0  0.10360  0.20668  0.01080  1.0000 0.6247814069
C   C18       1.0  0.89640  0.70668  0.48920  1.0000 0.6247814069
C   C19       1.0  0.89640  0.79332  0.98920  1.0000 0.6247814069
C   C20       1.0  0.10360  0.29332  0.51080  1.0000 0.625098444
C   C21       1.0  0.96210  0.32012  0.86780  1.0000 -0.0863053319
C   C22       1.0  0.03790  0.82012  0.63220  1.0000 -0.0863053319
C   C23       1.0  0.03790  0.67988  0.13220  1.0000 -0.0863053319
C   C24       1.0  0.96210  0.17988  0.36780  1.0000 -0.0863053319
C   C25       1.0  0.14520  0.43694  0.95410  1.0000 -0.0863053319
C   C26       1.0  0.85480  0.93694  0.54590  1.0000 -0.0863053319
C   C27       1.0  0.85480  0.56306  0.04590  1.0000 -0.0863053319
C   C28       1.0  0.14520  0.06306  0.45410  1.0000 -0.0863053319
C   C29       1.0  0.47760  0.44494  0.18650  1.0000 0.6117146681
C   C30       1.0  0.52240  0.94494  0.31350  1.0000 0.6117146681
C   C31       1.0  0.52240  0.55506  0.81350  1.0000 0.6117146681
C   C32       1.0  0.47760  0.05506  0.68650  1.0000 0.6117146681
S   S1        1.0  0.80942  0.43380  0.69433  1.0000 1.1878829966
S   S2        1.0  0.19058  0.93380  0.80567  1.0000 1.1878829966
S   S3        1.0  0.19058  0.56620  0.30567  1.0000 1.1878829966
S   S4        1.0  0.80942  0.06620  0.19433  1.0000 1.1878829966
O   O1        1.0  0.96117  0.16753  0.91567  1.0000 -0.5190352132
O   O2        1.0  0.03883  0.66753  0.58433  1.0000 -0.5190352132
O   O3        1.0  0.03883  0.83247  0.08433  1.0000 -0.5190352132
O   O4        1.0  0.96117  0.33247  0.41567  1.0000 -0.5190352132
O   O5        1.0  0.18556  0.03503  0.05416  1.0000 -0.8955156436
O   O6        1.0  0.81444  0.53503  0.44584  1.0000 -0.8955156436
O   O7        1.0  0.81444  0.96497  0.94584  1.0000 -0.8955156436
O   O8        1.0  0.18556  0.46497  0.55416  1.0000 -0.8955156436
O   O9        1.0  0.50410  0.51044  0.16570  1.0000 -0.5542320838
O   O10       1.0  0.49590  0.01044  0.33430  1.0000 -0.5542320838
O   O11       1.0  0.49590  0.48956  0.83430  1.0000 -0.5542320838
O   O12       1.0  0.50410  0.98956  0.66570  1.0000 -0.5542320838
O   O13       1.0  0.24200  0.18504  0.12610  1.0000 -0.5317415824
O   O14       1.0  0.75800  0.68504  0.37390  1.0000 -0.5317415824
O   O15       1.0  0.75800  0.81496  0.87390  1.0000 -0.5317415824
O   O16       1.0  0.24200  0.31496  0.62610  1.0000 -0.5317415824
O   O17       1.0  0.81820  0.51262  0.70660  1.0000 -0.5190352132
O   O18       1.0  0.18180  0.01262  0.79340  1.0000 -0.5190352132
O   O19       1.0  0.18180  0.48738  0.29340  1.0000 -0.5190352132
O   O20       1.0  0.81820  0.98738  0.20660  1.0000 -0.5190352132
O   O21       1.0  0.59330  0.40950  0.29360  1.0000 -0.5004787078
O   O22       1.0  0.40670  0.90950  0.20640  1.0000 -0.5004787078
O   O23       1.0  0.40670  0.59050  0.70640  1.0000 -0.5004787078
O   O24       1.0  0.59330  0.09050  0.79360  1.0000 -0.5004787078
O   O25       1.0  0.89920  0.40622  0.62010  1.0000 -0.6453221669
O   O26       1.0  0.10080  0.90622  0.87990  1.0000 -0.644959413
O   O27       1.0  0.10080  0.59378  0.37990  1.0000 -0.644959413
O   O28       1.0  0.89920  0.09378  0.12010  1.0000 -0.6453221669
O   O29       1.0  0.59420  0.40307  0.64280  1.0000 -0.5694372287
O   O30       1.0  0.40580  0.90307  0.85720  1.0000 -0.5694372287
O   O31       1.0  0.40580  0.59693  0.35720  1.0000 -0.5694372287
O   O32       1.0  0.59420  0.09693  0.14280  1.0000 -0.5694372287
