# DDEC6 charges by PACMAN v1.1 (https://github.com/mtap-research/PACMAN-charge/)
data_2011[Sm][flu]3[ASR]1
_chemical_formula_sum              "Sm2 H14 C30 O14"
_cell_length_a       9.341
_cell_length_b       9.865
_cell_length_c       11.415
_cell_angle_alpha    94.033
_cell_angle_beta     98.332
_cell_angle_gamma    110.809

_symmetry_space_group_name_H-M    "P 1"
_symmetry_Int_Tables_number       1

loop_
  _symmetry_equiv_pos_as_xyz
  'x, y, z'

loop_
  _atom_site_type_symbol
  _atom_site_label
  _atom_site_symmetry_multiplicity
  _atom_site_fract_x
  _atom_site_fract_y
  _atom_site_fract_z
  _atom_site_occupancy
  _atom_site_charge
Sm  Sm1       1.0  0.21739  0.45435  0.51503  1.0000 2.0969389648
Sm  Sm2       1.0  0.78261  0.54565  0.48497  1.0000 2.0969389648
H   H1        1.0  0.56550  0.60550  0.92290  1.0000 0.1139389993
H   H2        1.0  0.43450  0.39450  0.07710  1.0000 0.1139389993
H   H3        1.0  0.65370  0.72660  0.11570  1.0000 0.1506508634
H   H4        1.0  0.34630  0.27340  0.88430  1.0000 0.1506508634
H   H5        1.0  0.32350  0.89830  0.06890  1.0000 0.1283548967
H   H6        1.0  0.67650  0.10170  0.93110  1.0000 0.1283548967
H   H7        1.0  0.23270  0.77560  0.88050  1.0000 0.1192944021
H   H8        1.0  0.76730  0.22440  0.11950  1.0000 0.1192944021
H   H9        1.0  0.30430  0.71360  0.27870  1.0000 0.142027323
H   H10       1.0  0.69570  0.28640  0.72130  1.0000 0.142027323
H   H11       1.0  0.18190  0.00260  0.46420  1.0000 0.142027323
H   H12       1.0  0.81810  0.99740  0.53580  1.0000 0.142027323
H   H13       1.0  0.58050  0.13790  0.33510  1.0000 0.142027323
H   H14       1.0  0.41950  0.86210  0.66490  1.0000 0.142027323
C   C1        1.0  0.32330  0.58800  0.76090  1.0000 0.5542745561
C   C2        1.0  0.67670  0.41200  0.23910  1.0000 0.5542745561
C   C3        1.0  0.38350  0.67200  0.88050  1.0000 -0.0615233016
C   C4        1.0  0.61650  0.32800  0.11950  1.0000 -0.0615233016
C   C5        1.0  0.51470  0.66220  0.95290  1.0000 -0.0738426513
C   C6        1.0  0.48530  0.33780  0.04710  1.0000 -0.0738426513
C   C7        1.0  0.56890  0.73590  0.06810  1.0000 -0.2016165881
C   C8        1.0  0.43110  0.26410  0.93190  1.0000 -0.2016165881
C   C9        1.0  0.49670  0.82210  0.11080  1.0000 0.2456861408
C   C10       1.0  0.50330  0.17790  0.88920  1.0000 0.2448865445
C   C11       1.0  0.37060  0.83760  0.03970  1.0000 -0.2189672879
C   C12       1.0  0.62940  0.16240  0.96030  1.0000 -0.2189672879
C   C13       1.0  0.31670  0.76400  0.92740  1.0000 -0.0615233016
C   C14       1.0  0.68330  0.23600  0.07260  1.0000 -0.0615233016
C   C15       1.0  0.45270  0.92210  0.29210  1.0000 0.2286929683
C   C16       1.0  0.54730  0.07790  0.70790  1.0000 0.2286929683
C   C17       1.0  0.32320  0.80930  0.30990  1.0000 -0.2105235784
C   C18       1.0  0.67680  0.19070  0.69010  1.0000 -0.2105235784
C   C19       1.0  0.22240  0.83910  0.37400  1.0000 -0.0056915756
C   C20       1.0  0.77760  0.16090  0.62600  1.0000 -0.0056915756
C   C21       1.0  0.25230  0.98190  0.42310  1.0000 -0.1219091891
C   C22       1.0  0.74770  0.01810  0.57690  1.0000 -0.1219091891
C   C23       1.0  0.38860  0.09330  0.40990  1.0000 -0.0172434198
C   C24       1.0  0.61140  0.90670  0.59010  1.0000 -0.0172434198
C   C25       1.0  0.48930  0.06370  0.34420  1.0000 -0.1825200199
C   C26       1.0  0.51070  0.93630  0.65580  1.0000 -0.1825200199
C   C27       1.0  0.08020  0.71980  0.39740  1.0000 0.6260569663
C   C28       1.0  0.91980  0.28020  0.60260  1.0000 0.6260569663
C   C29       1.0  0.42360  0.24620  0.46750  1.0000 0.6527775497
C   C30       1.0  0.57640  0.75380  0.53250  1.0000 0.6527775497
O   O1        1.0  0.21520  0.60980  0.69360  1.0000 -0.6413600473
O   O2        1.0  0.78480  0.39020  0.30640  1.0000 -0.6413600473
O   O3        1.0  0.37800  0.49660  0.72370  1.0000 -0.6191279321
O   O4        1.0  0.62200  0.50340  0.27630  1.0000 -0.6191279321
O   O5        1.0  0.95270  0.74110  0.38850  1.0000 -0.6191279321
O   O6        1.0  0.04730  0.25890  0.61150  1.0000 -0.6191279321
O   O7        1.0  0.08860  0.60190  0.42570  1.0000 -0.7308865814
O   O8        1.0  0.91140  0.39810  0.57430  1.0000 -0.7308865814
O   O9        1.0  0.31820  0.27020  0.51110  1.0000 -0.6654427676
O   O10       1.0  0.68180  0.72980  0.48890  1.0000 -0.6654427676
O   O11       1.0  0.55530  0.34030  0.46750  1.0000 -0.692075017
O   O12       1.0  0.44470  0.65970  0.53250  1.0000 -0.692075017
O   O13       1.0  0.55730  0.89520  0.22590  1.0000 -0.2189672879
O   O14       1.0  0.44270  0.10480  0.77410  1.0000 -0.2189672879
