# DDEC6 charges by PACMAN v1.1 (https://github.com/mtap-research/PACMAN-charge/)
data_2011[Ni][hex]3[ASR]1
_chemical_formula_sum              "Ni6 H136 C152 N28 O36"
_cell_length_a       11.297
_cell_length_b       18.495
_cell_length_c       24.215
_cell_angle_alpha    90
_cell_angle_beta     90
_cell_angle_gamma    90

_symmetry_space_group_name_H-M    "P 1"
_symmetry_Int_Tables_number       1

loop_
  _symmetry_equiv_pos_as_xyz
  'x, y, z'

loop_
  _atom_site_type_symbol
  _atom_site_label
  _atom_site_symmetry_multiplicity
  _atom_site_fract_x
  _atom_site_fract_y
  _atom_site_fract_z
  _atom_site_occupancy
  _atom_site_charge
Ni  Ni1       1.0  0.46507  0.50000  0.50000  1.0000 0.8196992564
Ni  Ni2       1.0  0.53493  0.00000  0.00000  1.0000 0.8196992564
Ni  Ni3       1.0  0.46707  0.69897  0.47791  1.0000 0.6528192449
Ni  Ni4       1.0  0.46707  0.30103  0.52209  1.0000 0.6528192449
Ni  Ni5       1.0  0.53293  0.80103  0.97791  1.0000 0.6528192449
Ni  Ni6       1.0  0.53293  0.19897  0.02209  1.0000 0.6528192449
H   H1        1.0  0.42520  0.52100  0.35500  1.0000 0.0905223832
H   H2        1.0  0.42520  0.47900  0.64500  1.0000 0.0905223832
H   H3        1.0  0.57480  0.97900  0.85500  1.0000 0.0905223832
H   H4        1.0  0.57480  0.02100  0.14500  1.0000 0.0905223832
H   H5        1.0  0.63510  0.59140  0.31800  1.0000 0.1401386063
H   H6        1.0  0.63510  0.40860  0.68200  1.0000 0.1401386063
H   H7        1.0  0.36490  0.90860  0.81800  1.0000 0.1401386063
H   H8        1.0  0.36490  0.09140  0.18200  1.0000 0.1401386063
H   H9        1.0  0.59680  0.51130  0.30330  1.0000 0.1401386063
H   H10       1.0  0.59680  0.48870  0.69670  1.0000 0.1401386063
H   H11       1.0  0.40320  0.98870  0.80330  1.0000 0.1401386063
H   H12       1.0  0.40320  0.01130  0.19670  1.0000 0.1401386063
H   H13       1.0  0.63670  0.53070  0.36420  1.0000 0.1401386063
H   H14       1.0  0.63670  0.46930  0.63580  1.0000 0.1401386063
H   H15       1.0  0.36330  0.96930  0.86420  1.0000 0.1401386063
H   H16       1.0  0.36330  0.03070  0.13580  1.0000 0.1401386063
H   H17       1.0  0.08700  0.60580  0.24570  1.0000 0.1195773457
H   H18       1.0  0.08700  0.39420  0.75430  1.0000 0.1195773457
H   H19       1.0  0.91300  0.89420  0.74570  1.0000 0.1195773457
H   H20       1.0  0.91300  0.10580  0.25430  1.0000 0.1195773457
H   H21       1.0  0.12490  0.77700  0.14460  1.0000 0.1195773457
H   H22       1.0  0.12490  0.22300  0.85540  1.0000 0.1195773457
H   H23       1.0  0.87510  0.72300  0.64460  1.0000 0.1195773457
H   H24       1.0  0.87510  0.27700  0.35540  1.0000 0.1195773457
H   H25       1.0  0.38870  0.72290  0.24930  1.0000 0.128547522
H   H26       1.0  0.38870  0.27710  0.75070  1.0000 0.128547522
H   H27       1.0  0.61130  0.77710  0.74930  1.0000 0.128547522
H   H28       1.0  0.61130  0.22290  0.25070  1.0000 0.128547522
H   H29       1.0  0.75560  0.52690  0.22340  1.0000 0.128547522
H   H30       1.0  0.75560  0.47310  0.77660  1.0000 0.128547522
H   H31       1.0  0.24440  0.97310  0.72340  1.0000 0.128547522
H   H32       1.0  0.24440  0.02690  0.27660  1.0000 0.128547522
H   H33       1.0  0.80560  0.51690  0.16280  1.0000 0.128547522
H   H34       1.0  0.80560  0.48310  0.83720  1.0000 0.128547522
H   H35       1.0  0.19440  0.98310  0.66280  1.0000 0.128547522
H   H36       1.0  0.19440  0.01690  0.33720  1.0000 0.128547522
H   H37       1.0  0.66870  0.53070  0.17210  1.0000 0.1195773457
H   H38       1.0  0.66870  0.46930  0.82790  1.0000 0.1195773457
H   H39       1.0  0.33130  0.96930  0.67210  1.0000 0.1195773457
H   H40       1.0  0.33130  0.03070  0.32790  1.0000 0.1195773457
H   H41       1.0  0.75960  0.63880  0.14190  1.0000 0.0817883872
H   H42       1.0  0.75960  0.36120  0.85810  1.0000 0.0817883872
H   H43       1.0  0.24040  0.86120  0.64190  1.0000 0.0817883872
H   H44       1.0  0.24040  0.13880  0.35810  1.0000 0.0817883872
H   H45       1.0  0.69200  0.80430  0.15250  1.0000 0.128547522
H   H46       1.0  0.69200  0.19570  0.84750  1.0000 0.128547522
H   H47       1.0  0.30800  0.69570  0.65250  1.0000 0.128547522
H   H48       1.0  0.30800  0.30430  0.34750  1.0000 0.128547522
H   H49       1.0  0.66980  0.84690  0.20830  1.0000 0.1479691255
H   H50       1.0  0.66980  0.15310  0.79170  1.0000 0.1479691255
H   H51       1.0  0.33020  0.65310  0.70830  1.0000 0.1479691255
H   H52       1.0  0.33020  0.34690  0.29170  1.0000 0.1479691255
H   H53       1.0  0.71670  0.88850  0.15550  1.0000 0.1401386063
H   H54       1.0  0.71670  0.11150  0.84450  1.0000 0.1401386063
H   H55       1.0  0.28330  0.61150  0.65550  1.0000 0.1401386063
H   H56       1.0  0.28330  0.38850  0.34450  1.0000 0.1401386063
H   H57       1.0  0.51270  0.91090  0.16750  1.0000 0.0905223832
H   H58       1.0  0.51270  0.08910  0.83250  1.0000 0.0905223832
H   H59       1.0  0.48730  0.58910  0.66750  1.0000 0.0905223832
H   H60       1.0  0.48730  0.41090  0.33250  1.0000 0.0905223832
H   H61       1.0  0.87620  0.75670  0.54930  1.0000 0.1401386063
H   H62       1.0  0.87620  0.24330  0.45070  1.0000 0.1401386063
H   H63       1.0  0.12380  0.74330  0.04930  1.0000 0.1401386063
H   H64       1.0  0.12380  0.25670  0.95070  1.0000 0.1401386063
H   H65       1.0  0.67280  0.75060  0.54760  1.0000 0.1106589041
H   H66       1.0  0.67280  0.24940  0.45240  1.0000 0.1106589041
H   H67       1.0  0.32720  0.74940  0.04760  1.0000 0.1106589041
H   H68       1.0  0.32720  0.25060  0.95240  1.0000 0.1106589041
H   H69       1.0  0.67720  0.65880  0.40200  1.0000 0.1106589041
H   H70       1.0  0.67720  0.34120  0.59800  1.0000 0.1106589041
H   H71       1.0  0.32280  0.84120  0.90200  1.0000 0.1106589041
H   H72       1.0  0.32280  0.15880  0.09800  1.0000 0.1106589041
H   H73       1.0  0.87820  0.65880  0.40060  1.0000 0.1401386063
H   H74       1.0  0.87820  0.34120  0.59940  1.0000 0.1401386063
H   H75       1.0  0.12180  0.84120  0.90060  1.0000 0.1401386063
H   H76       1.0  0.12180  0.15880  0.09940  1.0000 0.1401386063
H   H77       1.0  0.05960  0.72490  0.39430  1.0000 0.1401386063
H   H78       1.0  0.05960  0.27510  0.60570  1.0000 0.1401386063
H   H79       1.0  0.94040  0.77510  0.89430  1.0000 0.1401386063
H   H80       1.0  0.94040  0.22490  0.10570  1.0000 0.1401386063
H   H81       1.0  0.26370  0.72190  0.39790  1.0000 0.1106589041
H   H82       1.0  0.26370  0.27810  0.60210  1.0000 0.1106589041
H   H83       1.0  0.73630  0.77810  0.89790  1.0000 0.1106589041
H   H84       1.0  0.73630  0.22190  0.10210  1.0000 0.1106589041
H   H85       1.0  0.25610  0.67560  0.55540  1.0000 0.1106589041
H   H86       1.0  0.25610  0.32440  0.44460  1.0000 0.1106589041
H   H87       1.0  0.74390  0.82440  0.05540  1.0000 0.1106589041
H   H88       1.0  0.74390  0.17560  0.94460  1.0000 0.1106589041
H   H89       1.0  0.05330  0.68200  0.55760  1.0000 0.1401386063
H   H90       1.0  0.05330  0.31800  0.44240  1.0000 0.1401386063
H   H91       1.0  0.94670  0.81800  0.05760  1.0000 0.1401386063
H   H92       1.0  0.94670  0.18200  0.94240  1.0000 0.1401386063
H   H93       1.0  0.50590  0.83270  0.41010  1.0000 0.1195773457
H   H94       1.0  0.50590  0.16730  0.58990  1.0000 0.1195773457
H   H95       1.0  0.49410  0.66730  0.91010  1.0000 0.1195773457
H   H96       1.0  0.49410  0.33270  0.08990  1.0000 0.1195773457
H   H97       1.0  0.49390  0.95710  0.41630  1.0000 0.1401386063
H   H98       1.0  0.49390  0.04290  0.58370  1.0000 0.1401386063
H   H99       1.0  0.50610  0.54290  0.91630  1.0000 0.1401386063
H   H100      1.0  0.50610  0.45710  0.08370  1.0000 0.1401386063
H   H101      1.0  0.39450  0.93500  0.57430  1.0000 0.1401386063
H   H102      1.0  0.39450  0.06500  0.42570  1.0000 0.1401386063
H   H103      1.0  0.60550  0.56500  0.07430  1.0000 0.1401386063
H   H104      1.0  0.60550  0.43500  0.92570  1.0000 0.1401386063
H   H105      1.0  0.40680  0.81070  0.56390  1.0000 0.128547522
H   H106      1.0  0.40680  0.18930  0.43610  1.0000 0.128547522
H   H107      1.0  0.59320  0.68930  0.06390  1.0000 0.128547522
H   H108      1.0  0.59320  0.31070  0.93610  1.0000 0.128547522
H   H109      1.0  0.25980  0.51520  0.42020  1.0000 0.1106589041
H   H110      1.0  0.25980  0.48480  0.57980  1.0000 0.1106589041
H   H111      1.0  0.74020  0.98480  0.92020  1.0000 0.1106589041
H   H112      1.0  0.74020  0.01520  0.07980  1.0000 0.1106589041
H   H113      1.0  0.05710  0.51400  0.41740  1.0000 0.1401386063
H   H114      1.0  0.05710  0.48600  0.58260  1.0000 0.1401386063
H   H115      1.0  0.94290  0.98600  0.91740  1.0000 0.1401386063
H   H116      1.0  0.94290  0.01400  0.08260  1.0000 0.1401386063
H   H117      1.0  0.87560  0.43960  0.43090  1.0000 0.1401386063
H   H118      1.0  0.87560  0.56040  0.56910  1.0000 0.1401386063
H   H119      1.0  0.12440  0.06040  0.93090  1.0000 0.1401386063
H   H120      1.0  0.12440  0.93960  0.06910  1.0000 0.1401386063
H   H121      1.0  0.67220  0.44020  0.43330  1.0000 0.1106589041
H   H122      1.0  0.67220  0.55980  0.56670  1.0000 0.1106589041
H   H123      1.0  0.32780  0.05980  0.93330  1.0000 0.1106589041
H   H124      1.0  0.32780  0.94020  0.06670  1.0000 0.1106589041
H   H125      1.0  0.45390  0.61810  0.27340  1.0000 0.2715156849
H   H126      1.0  0.45390  0.38190  0.72660  1.0000 0.2715156849
H   H127      1.0  0.54610  0.88190  0.77340  1.0000 0.2715156849
H   H128      1.0  0.54610  0.11810  0.22660  1.0000 0.2715156849
H   H129      1.0  0.91360  0.62470  0.23040  1.0000 0.2715156849
H   H130      1.0  0.91360  0.37530  0.76960  1.0000 0.2715156849
H   H131      1.0  0.08640  0.87530  0.73040  1.0000 0.2715156849
H   H132      1.0  0.08640  0.12470  0.26960  1.0000 0.2715156849
H   H133      1.0  0.49080  0.76700  0.18250  1.0000 0.2780481639
H   H134      1.0  0.49080  0.23300  0.81750  1.0000 0.2780481639
H   H135      1.0  0.50920  0.73300  0.68250  1.0000 0.2780481639
H   H136      1.0  0.50920  0.26700  0.31750  1.0000 0.2780481639
C   C1        1.0  0.46439  0.61559  0.39729  1.0000 0.5418405819
C   C2        1.0  0.46439  0.38441  0.60271  1.0000 0.5418405819
C   C3        1.0  0.53561  0.88441  0.89729  1.0000 0.5418405819
C   C4        1.0  0.53561  0.11559  0.10271  1.0000 0.5418405819
C   C5        1.0  0.46789  0.56642  0.34650  1.0000 0.0455746229
C   C6        1.0  0.46789  0.43358  0.65350  1.0000 0.0455746229
C   C7        1.0  0.53211  0.93358  0.84650  1.0000 0.0455746229
C   C8        1.0  0.53211  0.06642  0.15350  1.0000 0.0455746229
C   C9        1.0  0.59573  0.54830  0.33165  1.0000 -0.432914668
C   C10       1.0  0.59573  0.45170  0.66835  1.0000 -0.432914668
C   C11       1.0  0.40427  0.95170  0.83165  1.0000 -0.432914668
C   C12       1.0  0.40427  0.04830  0.16835  1.0000 -0.432914668
C   C13       1.0  0.29145  0.60854  0.29824  1.0000 0.4496167141
C   C14       1.0  0.29145  0.39146  0.70176  1.0000 0.4496167141
C   C15       1.0  0.70855  0.89146  0.79824  1.0000 0.4496167141
C   C16       1.0  0.70855  0.10854  0.20176  1.0000 0.4496167141
C   C17       1.0  0.24644  0.65669  0.25330  1.0000 -0.0053368846
C   C18       1.0  0.24644  0.34331  0.74670  1.0000 -0.0053368846
C   C19       1.0  0.75356  0.84331  0.75330  1.0000 -0.0049247877
C   C20       1.0  0.75356  0.15669  0.24670  1.0000 -0.0049247877
C   C21       1.0  0.13251  0.64456  0.23233  1.0000 -0.1498903309
C   C22       1.0  0.13251  0.35544  0.76767  1.0000 -0.1498903309
C   C23       1.0  0.86749  0.85544  0.73233  1.0000 -0.1498903309
C   C24       1.0  0.86749  0.14456  0.26767  1.0000 -0.1498903309
C   C25       1.0  0.08689  0.68972  0.19183  1.0000 -0.0242265395
C   C26       1.0  0.08689  0.31028  0.80817  1.0000 -0.0242265395
C   C27       1.0  0.91311  0.81028  0.69183  1.0000 -0.0242265395
C   C28       1.0  0.91311  0.18972  0.30817  1.0000 -0.0242265395
C   C29       1.0  0.15580  0.74619  0.17185  1.0000 -0.1185130377
C   C30       1.0  0.15580  0.25381  0.82815  1.0000 -0.1185130377
C   C31       1.0  0.84420  0.75381  0.67185  1.0000 -0.1185130377
C   C32       1.0  0.84420  0.24619  0.32815  1.0000 -0.1185130377
C   C33       1.0  0.27023  0.75780  0.19165  1.0000 -0.0242265395
C   C34       1.0  0.27023  0.24220  0.80835  1.0000 -0.0242265395
C   C35       1.0  0.72977  0.74220  0.69165  1.0000 -0.0242265395
C   C36       1.0  0.72977  0.25780  0.30835  1.0000 -0.0242265395
C   C37       1.0  0.31372  0.71370  0.23399  1.0000 -0.1318217528
C   C38       1.0  0.31372  0.28630  0.76601  1.0000 -0.1318217528
C   C39       1.0  0.68628  0.78630  0.73399  1.0000 -0.1318217528
C   C40       1.0  0.68628  0.21370  0.26601  1.0000 -0.1318217528
C   C41       1.0  0.96450  0.67871  0.16795  1.0000 0.4582094837
C   C42       1.0  0.96450  0.32129  0.83205  1.0000 0.4582094837
C   C43       1.0  0.03550  0.82129  0.66795  1.0000 0.4582094837
C   C44       1.0  0.03550  0.17871  0.33205  1.0000 0.4582094837
C   C45       1.0  0.74770  0.54209  0.18524  1.0000 -0.4123075467
C   C46       1.0  0.74770  0.45791  0.81476  1.0000 -0.4123075467
C   C47       1.0  0.25230  0.95791  0.68524  1.0000 -0.4123075467
C   C48       1.0  0.25230  0.04209  0.31476  1.0000 -0.4123075467
C   C49       1.0  0.76858  0.62428  0.18106  1.0000 0.0242002441
C   C50       1.0  0.76858  0.37572  0.81894  1.0000 0.0242002441
C   C51       1.0  0.23142  0.87572  0.68106  1.0000 0.0242002441
C   C52       1.0  0.23142  0.12428  0.31894  1.0000 0.0242002441
C   C53       1.0  0.67740  0.66595  0.21554  1.0000 0.5418405819
C   C54       1.0  0.67740  0.33405  0.78446  1.0000 0.5418405819
C   C55       1.0  0.32260  0.83405  0.71554  1.0000 0.5418405819
C   C56       1.0  0.32260  0.16595  0.28446  1.0000 0.5418405819
C   C57       1.0  0.34314  0.81679  0.16823  1.0000 0.4496167141
C   C58       1.0  0.34314  0.18321  0.83177  1.0000 0.4496167141
C   C59       1.0  0.65686  0.68321  0.66823  1.0000 0.4496167141
C   C60       1.0  0.65686  0.31679  0.33177  1.0000 0.4496167141
C   C61       1.0  0.66588  0.84976  0.16836  1.0000 -0.4198890042
C   C62       1.0  0.66588  0.15024  0.83164  1.0000 -0.4198890042
C   C63       1.0  0.33412  0.65024  0.66836  1.0000 -0.4198890042
C   C64       1.0  0.33412  0.34976  0.33164  1.0000 -0.4198890042
C   C65       1.0  0.53862  0.86480  0.15069  1.0000 0.0387585216
C   C66       1.0  0.53862  0.13520  0.84931  1.0000 0.0387585216
C   C67       1.0  0.46138  0.63520  0.65069  1.0000 0.0387585216
C   C68       1.0  0.46138  0.36480  0.34931  1.0000 0.0387585216
C   C69       1.0  0.53369  0.87220  0.08770  1.0000 0.5704500962
C   C70       1.0  0.53369  0.12780  0.91230  1.0000 0.5704500962
C   C71       1.0  0.46631  0.62780  0.58770  1.0000 0.5704500962
C   C72       1.0  0.46631  0.37220  0.41230  1.0000 0.5704500962
C   C73       1.0  0.83725  0.73522  0.51916  1.0000 -0.1842391719
C   C74       1.0  0.83725  0.26478  0.48084  1.0000 -0.1842391719
C   C75       1.0  0.16275  0.76478  0.01916  1.0000 -0.1842391719
C   C76       1.0  0.16275  0.23522  0.98084  1.0000 -0.1842391719
C   C77       1.0  0.71517  0.73184  0.51742  1.0000 0.0905223832
C   C78       1.0  0.71517  0.26816  0.48258  1.0000 0.0905223832
C   C79       1.0  0.28483  0.76816  0.01742  1.0000 0.0905223832
C   C80       1.0  0.28483  0.23184  0.98258  1.0000 0.0905223832
C   C81       1.0  0.71780  0.67784  0.43261  1.0000 0.0817883872
C   C82       1.0  0.71780  0.32216  0.56739  1.0000 0.0817883872
C   C83       1.0  0.28220  0.82216  0.93261  1.0000 0.0817883872
C   C84       1.0  0.28220  0.17784  0.06739  1.0000 0.0817883872
C   C85       1.0  0.83801  0.67790  0.43129  1.0000 -0.1899154026
C   C86       1.0  0.83801  0.32210  0.56871  1.0000 -0.1899154026
C   C87       1.0  0.16199  0.82210  0.93129  1.0000 -0.1899154026
C   C88       1.0  0.16199  0.17790  0.06871  1.0000 -0.1899154026
C   C89       1.0  0.90138  0.70634  0.47551  1.0000 0.1106589041
C   C90       1.0  0.90138  0.29366  0.52449  1.0000 0.1106589041
C   C91       1.0  0.09862  0.79366  0.97551  1.0000 0.1106589041
C   C92       1.0  0.09862  0.20634  0.02449  1.0000 0.1106589041
C   C93       1.0  0.03238  0.70457  0.47590  1.0000 0.1009951967
C   C94       1.0  0.03238  0.29543  0.52410  1.0000 0.1009951967
C   C95       1.0  0.96762  0.79543  0.97590  1.0000 0.1009951967
C   C96       1.0  0.96762  0.20457  0.02410  1.0000 0.1009951967
C   C97       1.0  0.09809  0.71564  0.42799  1.0000 -0.1899154026
C   C98       1.0  0.09809  0.28436  0.57201  1.0000 -0.1842391719
C   C99       1.0  0.90191  0.78436  0.92799  1.0000 -0.1842391719
C   C100      1.0  0.90191  0.21564  0.07201  1.0000 -0.1842391719
C   C101      1.0  0.22047  0.71295  0.43035  1.0000 0.0905223832
C   C102      1.0  0.22047  0.28705  0.56965  1.0000 0.0905223832
C   C103      1.0  0.77953  0.78705  0.93035  1.0000 0.0905223832
C   C104      1.0  0.77953  0.21295  0.06965  1.0000 0.0905223832
C   C105      1.0  0.21562  0.68656  0.52252  1.0000 0.0905223832
C   C106      1.0  0.21562  0.31344  0.47748  1.0000 0.0905223832
C   C107      1.0  0.78438  0.81344  0.02252  1.0000 0.0905223832
C   C108      1.0  0.78438  0.18656  0.97748  1.0000 0.0905223832
C   C109      1.0  0.09401  0.68974  0.52425  1.0000 -0.1718258124
C   C110      1.0  0.09401  0.31026  0.47575  1.0000 -0.1718258124
C   C111      1.0  0.90599  0.81026  0.02425  1.0000 -0.1718258124
C   C112      1.0  0.90599  0.18974  0.97575  1.0000 -0.1718258124
C   C113      1.0  0.48330  0.85354  0.44388  1.0000 0.0817883872
C   C114      1.0  0.48330  0.14646  0.55612  1.0000 0.0817883872
C   C115      1.0  0.51670  0.64646  0.94388  1.0000 0.0817883872
C   C116      1.0  0.51670  0.35354  0.05612  1.0000 0.0817883872
C   C117      1.0  0.47700  0.92832  0.44732  1.0000 -0.1899154026
C   C118      1.0  0.47700  0.07168  0.55268  1.0000 -0.1899154026
C   C119      1.0  0.52300  0.57168  0.94732  1.0000 -0.1899154026
C   C120      1.0  0.52300  0.42832  0.05268  1.0000 -0.1899154026
C   C121      1.0  0.44597  0.95966  0.49649  1.0000 0.1106589041
C   C122      1.0  0.44597  0.04034  0.50351  1.0000 0.1106589041
C   C123      1.0  0.55403  0.54034  0.99649  1.0000 0.1106589041
C   C124      1.0  0.55403  0.45966  0.00351  1.0000 0.1106589041
C   C125      1.0  0.41820  0.91509  0.54028  1.0000 -0.1842391719
C   C126      1.0  0.41820  0.08491  0.45972  1.0000 -0.1842391719
C   C127      1.0  0.58180  0.58491  0.04028  1.0000 -0.1842391719
C   C128      1.0  0.58180  0.41509  0.95972  1.0000 -0.1842391719
C   C129      1.0  0.42560  0.84057  0.53378  1.0000 0.0905223832
C   C130      1.0  0.42560  0.15943  0.46622  1.0000 0.0905223832
C   C131      1.0  0.57440  0.65943  0.03378  1.0000 0.0905223832
C   C132      1.0  0.57440  0.34057  0.96622  1.0000 0.0905223832
C   C133      1.0  0.21802  0.50867  0.45335  1.0000 0.0905223832
C   C134      1.0  0.21802  0.49133  0.54665  1.0000 0.0905223832
C   C135      1.0  0.78198  0.99133  0.95335  1.0000 0.0905223832
C   C136      1.0  0.78198  0.00867  0.04665  1.0000 0.0905223832
C   C137      1.0  0.09652  0.50848  0.45130  1.0000 -0.1959960956
C   C138      1.0  0.09652  0.49152  0.54870  1.0000 -0.1959960956
C   C139      1.0  0.90348  0.99152  0.95130  1.0000 -0.1959960956
C   C140      1.0  0.90348  0.00848  0.04870  1.0000 -0.1959960956
C   C141      1.0  0.03200  0.50000  0.50000  1.0000 0.1009951967
C   C142      1.0  0.96800  0.00000  0.00000  1.0000 0.1009951967
C   C143      1.0  0.90160  0.50000  0.50000  1.0000 0.0905223832
C   C144      1.0  0.09840  0.00000  0.00000  1.0000 0.0905223832
C   C145      1.0  0.83626  0.46430  0.45937  1.0000 -0.1899154026
C   C146      1.0  0.83626  0.53570  0.54063  1.0000 -0.1899154026
C   C147      1.0  0.16374  0.03570  0.95937  1.0000 -0.1899154026
C   C148      1.0  0.16374  0.96430  0.04063  1.0000 -0.1899154026
C   C149      1.0  0.71386  0.46522  0.46094  1.0000 0.0905223832
C   C150      1.0  0.71386  0.53478  0.53906  1.0000 0.0905223832
C   C151      1.0  0.28614  0.03478  0.96094  1.0000 0.0905223832
C   C152      1.0  0.28614  0.96522  0.03906  1.0000 0.0905223832
N   N1        1.0  0.41096  0.60135  0.30034  1.0000 -0.3681506526
N   N2        1.0  0.41096  0.39865  0.69966  1.0000 -0.3681506526
N   N3        1.0  0.58904  0.89865  0.80034  1.0000 -0.3681506526
N   N4        1.0  0.58904  0.10135  0.19966  1.0000 -0.3681506526
N   N5        1.0  0.88961  0.64068  0.19848  1.0000 -0.3585497152
N   N6        1.0  0.88961  0.35932  0.80152  1.0000 -0.3585497152
N   N7        1.0  0.11039  0.85932  0.69848  1.0000 -0.3585497152
N   N8        1.0  0.11039  0.14068  0.30152  1.0000 -0.3533393454
N   N9        1.0  0.46115  0.80721  0.16995  1.0000 -0.3585497152
N   N10       1.0  0.46115  0.19279  0.83005  1.0000 -0.3585497152
N   N11       1.0  0.53885  0.69279  0.66995  1.0000 -0.3585497152
N   N12       1.0  0.53885  0.30721  0.33005  1.0000 -0.3585497152
N   N13       1.0  0.65288  0.70346  0.47528  1.0000 -0.217770071
N   N14       1.0  0.65288  0.29654  0.52472  1.0000 -0.217770071
N   N15       1.0  0.34712  0.79654  0.97528  1.0000 -0.217770071
N   N16       1.0  0.34712  0.20346  0.02472  1.0000 -0.217770071
N   N17       1.0  0.28009  0.69816  0.47685  1.0000 -0.217770071
N   N18       1.0  0.28009  0.30184  0.52315  1.0000 -0.217770071
N   N19       1.0  0.71991  0.80184  0.97685  1.0000 -0.217770071
N   N20       1.0  0.71991  0.19816  0.02315  1.0000 -0.217770071
N   N21       1.0  0.45869  0.80981  0.48607  1.0000 -0.217770071
N   N22       1.0  0.45869  0.19019  0.51393  1.0000 -0.217770071
N   N23       1.0  0.54131  0.69019  0.98607  1.0000 -0.217770071
N   N24       1.0  0.54131  0.30981  0.01393  1.0000 -0.217770071
N   N25       1.0  0.28035  0.50000  0.50000  1.0000 -0.2290759098
N   N26       1.0  0.71965  0.00000  0.00000  1.0000 -0.2290759098
N   N27       1.0  0.65150  0.50000  0.50000  1.0000 -0.2370775726
N   N28       1.0  0.34850  0.00000  0.00000  1.0000 -0.2370775726
O   O1        1.0  0.46916  0.59029  0.44598  1.0000 -0.5323553395
O   O2        1.0  0.46916  0.40971  0.55402  1.0000 -0.5323553395
O   O3        1.0  0.53084  0.90971  0.94598  1.0000 -0.5323553395
O   O4        1.0  0.53084  0.09029  0.05402  1.0000 -0.5323553395
O   O5        1.0  0.46238  0.68306  0.39100  1.0000 -0.5074537408
O   O6        1.0  0.46238  0.31694  0.60900  1.0000 -0.5074537408
O   O7        1.0  0.53762  0.81694  0.89100  1.0000 -0.5074537408
O   O8        1.0  0.53762  0.18306  0.10900  1.0000 -0.5074537408
O   O9        1.0  0.22548  0.57967  0.33259  1.0000 -0.5208134812
O   O10       1.0  0.22548  0.42033  0.66741  1.0000 -0.5208134812
O   O11       1.0  0.77452  0.92033  0.83259  1.0000 -0.5208134812
O   O12       1.0  0.77452  0.07967  0.16741  1.0000 -0.5208134812
O   O13       1.0  0.71215  0.70197  0.25580  1.0000 -0.5593000245
O   O14       1.0  0.71215  0.29803  0.74420  1.0000 -0.5652175259
O   O15       1.0  0.28785  0.79803  0.75580  1.0000 -0.5652175259
O   O16       1.0  0.28785  0.20197  0.24420  1.0000 -0.5652175259
O   O17       1.0  0.57064  0.65991  0.20123  1.0000 -0.5981430721
O   O18       1.0  0.57064  0.34009  0.79877  1.0000 -0.5981430721
O   O19       1.0  0.42936  0.84009  0.70123  1.0000 -0.5981430721
O   O20       1.0  0.42936  0.15991  0.29877  1.0000 -0.5981430721
O   O21       1.0  0.93927  0.70525  0.12305  1.0000 -0.4940057558
O   O22       1.0  0.93927  0.29475  0.87695  1.0000 -0.4940057558
O   O23       1.0  0.06073  0.79475  0.62305  1.0000 -0.4940057558
O   O24       1.0  0.06073  0.20525  0.37695  1.0000 -0.4940057558
O   O25       1.0  0.52548  0.81518  0.05976  1.0000 -0.5418821138
O   O26       1.0  0.52548  0.18482  0.94024  1.0000 -0.5418821138
O   O27       1.0  0.47452  0.68482  0.55976  1.0000 -0.5418821138
O   O28       1.0  0.47452  0.31518  0.44024  1.0000 -0.5418821138
O   O29       1.0  0.54200  0.93579  0.06884  1.0000 -0.5593000245
O   O30       1.0  0.54200  0.06421  0.93116  1.0000 -0.5593000245
O   O31       1.0  0.45800  0.56421  0.56884  1.0000 -0.5593000245
O   O32       1.0  0.45800  0.43579  0.43116  1.0000 -0.5593000245
O   O33       1.0  0.29726  0.87165  0.14796  1.0000 -0.5074537408
O   O34       1.0  0.29726  0.12835  0.85204  1.0000 -0.5074537408
O   O35       1.0  0.70274  0.62835  0.64796  1.0000 -0.5074537408
O   O36       1.0  0.70274  0.37165  0.35204  1.0000 -0.5074537408
