# DDEC6 charges by PACMAN v1.1 (https://github.com/mtap-research/PACMAN-charge/)
data_2011[Ce][flu]3[ASR]1
_chemical_formula_sum              "Ce2 H14 C30 O14"
_cell_length_a       9.423
_cell_length_b       9.947
_cell_length_c       11.419
_cell_angle_alpha    93.633
_cell_angle_beta     98.092
_cell_angle_gamma    110.649

_symmetry_space_group_name_H-M    "P 1"
_symmetry_Int_Tables_number       1

loop_
  _symmetry_equiv_pos_as_xyz
  'x, y, z'

loop_
  _atom_site_type_symbol
  _atom_site_label
  _atom_site_symmetry_multiplicity
  _atom_site_fract_x
  _atom_site_fract_y
  _atom_site_fract_z
  _atom_site_occupancy
  _atom_site_charge
Ce  Ce1       1.0  0.71581  0.95408  0.01521  1.0000 1.9499247503
Ce  Ce2       1.0  0.28419  0.04592  0.98479  1.0000 1.9499247503
H   H1        1.0  0.31680  0.49350  0.03680  1.0000 0.140279018
H   H2        1.0  0.68320  0.50650  0.96320  1.0000 0.140279018
H   H3        1.0  0.91900  0.36430  0.16370  1.0000 0.140279018
H   H4        1.0  0.08100  0.63570  0.83630  1.0000 0.140279018
H   H5        1.0  0.19700  0.78490  0.21890  1.0000 0.140279018
H   H6        1.0  0.80300  0.21510  0.78110  1.0000 0.140279018
H   H7        1.0  0.17340  0.59740  0.43040  1.0000 0.1270679664
H   H8        1.0  0.82660  0.40260  0.56960  1.0000 0.1270679664
H   H9        1.0  0.26390  0.72150  0.61760  1.0000 0.1174506825
H   H10       1.0  0.73610  0.27850  0.38240  1.0000 0.1174506825
H   H11       1.0  0.93910  0.89550  0.57300  1.0000 0.1126961839
H   H12       1.0  0.06090  0.10450  0.42700  1.0000 0.1126961839
H   H13       1.0  0.84780  0.77260  0.38360  1.0000 0.1479889285
H   H14       1.0  0.15220  0.22740  0.61640  1.0000 0.1479889285
C   C1        1.0  0.42070  0.77400  0.10360  1.0000 0.6029480826
C   C2        1.0  0.57930  0.22600  0.89640  1.0000 0.6029480826
C   C3        1.0  0.27820  0.65730  0.12460  1.0000 -0.0073257608
C   C4        1.0  0.72180  0.34270  0.87540  1.0000 -0.0073257608
C   C5        1.0  0.24680  0.51530  0.07690  1.0000 -0.1232928578
C   C6        1.0  0.75320  0.48470  0.92310  1.0000 -0.1232928578
C   C7        1.0  0.11180  0.40740  0.08920  1.0000 -0.0177626954
C   C8        1.0  0.88820  0.59260  0.91080  1.0000 -0.0177626954
C   C9        1.0  0.01010  0.43700  0.15520  1.0000 -0.1949738133
C   C10       1.0  0.98990  0.56300  0.84480  1.0000 -0.1949738133
C   C11       1.0  0.04840  0.57760  0.20750  1.0000 0.2330113631
C   C12       1.0  0.95160  0.42240  0.79250  1.0000 0.2330113631
C   C13       1.0  0.17790  0.68980  0.18890  1.0000 -0.2233305853
C   C14       1.0  0.82210  0.31020  0.81110  1.0000 -0.2233305853
C   C15       1.0  0.07470  0.25570  0.03170  1.0000 0.619348092
C   C16       1.0  0.92530  0.74430  0.96830  1.0000 0.619348092
C   C17       1.0  0.12800  0.65920  0.45870  1.0000 -0.2233305853
C   C18       1.0  0.87200  0.34080  0.54130  1.0000 -0.2233305853
C   C19       1.0  0.18130  0.73330  0.57050  1.0000 -0.0650602598
C   C20       1.0  0.81870  0.26670  0.42950  1.0000 -0.0650602598
C   C21       1.0  0.11580  0.82580  0.61590  1.0000 -0.0619067084
C   C22       1.0  0.88420  0.17420  0.38410  1.0000 -0.0619067084
C   C23       1.0  0.98770  0.83710  0.54370  1.0000 -0.0771162677
C   C24       1.0  0.01230  0.16290  0.45630  1.0000 -0.0771162677
C   C25       1.0  0.93250  0.76370  0.43030  1.0000 -0.2014983464
C   C26       1.0  0.06750  0.23630  0.56970  1.0000 -0.2014983464
C   C27       1.0  0.00430  0.67740  0.38730  1.0000 0.2502168846
C   C28       1.0  0.99570  0.32260  0.61270  1.0000 0.2502168846
C   C29       1.0  0.17540  0.90980  0.73440  1.0000 0.5475490224
C   C30       1.0  0.82460  0.09020  0.26560  1.0000 0.5475490224
O   O1        1.0  0.54380  0.74890  0.11260  1.0000 -0.5812592078
O   O2        1.0  0.45620  0.25110  0.88740  1.0000 -0.5812592078
O   O3        1.0  0.41520  0.89250  0.07510  1.0000 -0.6823268402
O   O4        1.0  0.58480  0.10750  0.92490  1.0000 -0.6823268402
O   O5        1.0  0.17770  0.23100  0.98650  1.0000 -0.6122976411
O   O6        1.0  0.82230  0.76900  0.01350  1.0000 -0.6122976411
O   O7        1.0  0.94450  0.16380  0.03170  1.0000 -0.6351359058
O   O8        1.0  0.05550  0.83620  0.96830  1.0000 -0.6351359058
O   O9        1.0  0.28600  0.88970  0.80030  1.0000 -0.6230614949
O   O10       1.0  0.71400  0.11030  0.19970  1.0000 -0.6230614949
O   O11       1.0  0.12080  0.00000  0.77160  1.0000 -0.5902843643
O   O12       1.0  0.87920  0.00000  0.22840  1.0000 -0.5902843643
O   O13       1.0  0.94550  0.60500  0.27360  1.0000 -0.2090756763
O   O14       1.0  0.05450  0.39500  0.72640  1.0000 -0.2090756763
