# DDEC6 charges by PACMAN v1.1 (https://github.com/mtap-research/PACMAN-charge/)
data_2011[Zn][moa]3[ASR]1
_chemical_formula_sum              "Zn8 P12 H28 C12 N4 Cl4 O36"
_cell_length_a       8.13
_cell_length_b       22.358
_cell_length_c       10.5816
_cell_angle_alpha    90
_cell_angle_beta     112.924
_cell_angle_gamma    90

_symmetry_space_group_name_H-M    "P 1"
_symmetry_Int_Tables_number       1

loop_
  _symmetry_equiv_pos_as_xyz
  'x, y, z'

loop_
  _atom_site_type_symbol
  _atom_site_label
  _atom_site_symmetry_multiplicity
  _atom_site_fract_x
  _atom_site_fract_y
  _atom_site_fract_z
  _atom_site_occupancy
  _atom_site_charge
Zn  Zn1       1.0  0.42842  0.19393  0.58619  1.0000 1.0333210215
Zn  Zn2       1.0  0.57158  0.69393  0.91381  1.0000 1.0333210215
Zn  Zn3       1.0  0.57158  0.80607  0.41381  1.0000 1.0333210215
Zn  Zn4       1.0  0.42842  0.30607  0.08619  1.0000 1.0333210215
Zn  Zn5       1.0  0.95132  0.03194  0.66779  1.0000 1.1031466708
Zn  Zn6       1.0  0.04868  0.53194  0.83221  1.0000 1.1031466708
Zn  Zn7       1.0  0.04868  0.96806  0.33221  1.0000 1.1031466708
Zn  Zn8       1.0  0.95132  0.46806  0.16779  1.0000 1.1031466708
P   P1        1.0  0.79488  0.14788  0.79138  1.0000 1.3290681229
P   P2        1.0  0.20512  0.64788  0.70862  1.0000 1.3290681229
P   P3        1.0  0.20512  0.85212  0.20862  1.0000 1.3290681229
P   P4        1.0  0.79488  0.35212  0.29138  1.0000 1.3290681229
P   P5        1.0  0.23008  0.07216  0.53321  1.0000 1.3534538135
P   P6        1.0  0.76992  0.57216  0.96679  1.0000 1.3534538135
P   P7        1.0  0.76992  0.92784  0.46679  1.0000 1.3534538135
P   P8        1.0  0.23008  0.42784  0.03321  1.0000 1.3534538135
P   P9        1.0  0.29558  0.22974  0.80802  1.0000 1.3290681229
P   P10       1.0  0.70442  0.72974  0.69198  1.0000 1.3290681229
P   P11       1.0  0.70442  0.77026  0.19198  1.0000 1.3290681229
P   P12       1.0  0.29558  0.27026  0.30802  1.0000 1.3290681229
H   H1        1.0  0.07080  0.22060  0.83590  1.0000 0.4046737612
H   H2        1.0  0.92920  0.72060  0.66410  1.0000 0.4046737612
H   H3        1.0  0.92920  0.77940  0.16410  1.0000 0.4046737612
H   H4        1.0  0.07080  0.27940  0.33590  1.0000 0.4046737612
H   H5        1.0  0.63720  0.16670  0.93050  1.0000 0.1988772065
H   H6        1.0  0.36280  0.66667  0.56950  1.0000 0.1988772065
H   H7        1.0  0.36280  0.83330  0.06950  1.0000 0.1988772065
H   H8        1.0  0.63720  0.33333  0.43050  1.0000 0.1988772065
H   H9        1.0  0.66420  0.09750  0.92210  1.0000 0.1988772065
H   H10       1.0  0.33580  0.59750  0.57790  1.0000 0.1988772065
H   H11       1.0  0.33580  0.90250  0.07790  1.0000 0.1988772065
H   H12       1.0  0.66420  0.40250  0.42210  1.0000 0.1988772065
H   H13       1.0  0.52240  0.05420  0.68680  1.0000 0.1988772065
H   H14       1.0  0.47760  0.55420  0.81320  1.0000 0.1988772065
H   H15       1.0  0.47760  0.94580  0.31320  1.0000 0.1988772065
H   H16       1.0  0.52240  0.44580  0.18680  1.0000 0.1988772065
H   H17       1.0  0.38950  0.04110  0.75860  1.0000 0.1988772065
H   H18       1.0  0.61050  0.54110  0.74140  1.0000 0.1988772065
H   H19       1.0  0.61050  0.95890  0.24140  1.0000 0.1988772065
H   H20       1.0  0.38950  0.45890  0.25860  1.0000 0.1988772065
H   H21       1.0  0.34690  0.13460  0.90700  1.0000 0.1988772065
H   H22       1.0  0.65310  0.63460  0.59300  1.0000 0.1988772065
H   H23       1.0  0.65310  0.86540  0.09300  1.0000 0.1988772065
H   H24       1.0  0.34690  0.36540  0.40700  1.0000 0.1988772065
H   H25       1.0  0.19950  0.13090  0.75750  1.0000 0.1764960275
H   H26       1.0  0.80050  0.63090  0.74250  1.0000 0.1764960275
H   H27       1.0  0.80050  0.86910  0.24250  1.0000 0.1764960275
H   H28       1.0  0.19950  0.36910  0.25750  1.0000 0.1764960275
C   C1        1.0  0.63350  0.13410  0.86890  1.0000 -0.3977291896
C   C2        1.0  0.36650  0.63410  0.63110  1.0000 -0.3977291896
C   C3        1.0  0.36650  0.86590  0.13110  1.0000 -0.3977291896
C   C4        1.0  0.63350  0.36590  0.36890  1.0000 -0.3977291896
C   C5        1.0  0.41690  0.06870  0.69870  1.0000 -0.4120250359
C   C6        1.0  0.58310  0.56870  0.80130  1.0000 -0.4120250359
C   C7        1.0  0.58310  0.93130  0.30130  1.0000 -0.4120250359
C   C8        1.0  0.41690  0.43130  0.19870  1.0000 -0.4120250359
C   C9        1.0  0.31410  0.14840  0.81350  1.0000 -0.4120250359
C   C10       1.0  0.68590  0.64840  0.68650  1.0000 -0.4120250359
C   C11       1.0  0.68590  0.85160  0.18650  1.0000 -0.4120250359
C   C12       1.0  0.31410  0.35160  0.31350  1.0000 -0.4120250359
N   N1        1.0  0.45170  0.12899  0.76140  1.0000 0.1137722691
N   N2        1.0  0.54830  0.62899  0.73860  1.0000 0.1157958866
N   N3        1.0  0.54830  0.87101  0.23860  1.0000 0.1137722691
N   N4        1.0  0.45170  0.37101  0.26140  1.0000 0.1137722691
Cl  Cl1       1.0  0.14743  0.97535  0.84385  1.0000 -0.5763466373
Cl  Cl2       1.0  0.85257  0.47535  0.65615  1.0000 -0.5763466373
Cl  Cl3       1.0  0.85257  0.02465  0.15615  1.0000 -0.5763466373
Cl  Cl4       1.0  0.14743  0.52465  0.34385  1.0000 -0.5763466373
O   O1        1.0  0.85070  0.08990  0.75040  1.0000 -0.71173224
O   O2        1.0  0.14930  0.58990  0.74960  1.0000 -0.71173224
O   O3        1.0  0.14930  0.91010  0.24960  1.0000 -0.71173224
O   O4        1.0  0.85070  0.41010  0.25040  1.0000 -0.71173224
O   O5        1.0  0.94930  0.18120  0.90110  1.0000 -0.6571785077
O   O6        1.0  0.05070  0.68120  0.59890  1.0000 -0.6571785077
O   O7        1.0  0.05070  0.81880  0.09890  1.0000 -0.6571785077
O   O8        1.0  0.94930  0.31880  0.40110  1.0000 -0.6571785077
O   O9        1.0  0.69680  0.18758  0.66730  1.0000 -0.6980383879
O   O10       1.0  0.30320  0.68758  0.83270  1.0000 -0.6980383879
O   O11       1.0  0.30320  0.81242  0.33270  1.0000 -0.6944946363
O   O12       1.0  0.69680  0.31242  0.16730  1.0000 -0.6980383879
O   O13       1.0  0.24050  0.01704  0.45330  1.0000 -0.6980383879
O   O14       1.0  0.75950  0.51704  0.04670  1.0000 -0.6980383879
O   O15       1.0  0.75950  0.98296  0.54670  1.0000 -0.6980383879
O   O16       1.0  0.24050  0.48296  0.95330  1.0000 -0.6980383879
O   O17       1.0  0.25950  0.13018  0.46860  1.0000 -0.6800307571
O   O18       1.0  0.74050  0.63018  0.03140  1.0000 -0.6800307571
O   O19       1.0  0.74050  0.86982  0.53140  1.0000 -0.6800307571
O   O20       1.0  0.25950  0.36982  0.96860  1.0000 -0.6800307571
O   O21       1.0  0.05520  0.07634  0.55590  1.0000 -0.7257539346
O   O22       1.0  0.94480  0.57634  0.94410  1.0000 -0.7231841996
O   O23       1.0  0.94480  0.92366  0.44410  1.0000 -0.7257539346
O   O24       1.0  0.05520  0.42366  0.05590  1.0000 -0.7231841996
O   O25       1.0  0.10560  0.24580  0.79550  1.0000 -0.5217997595
O   O26       1.0  0.89440  0.74580  0.70450  1.0000 -0.5217997595
O   O27       1.0  0.89440  0.75420  0.20450  1.0000 -0.5217997595
O   O28       1.0  0.10560  0.25420  0.29550  1.0000 -0.5217997595
O   O29       1.0  0.31000  0.24919  0.67460  1.0000 -0.6800307571
O   O30       1.0  0.69000  0.74919  0.82540  1.0000 -0.6800307571
O   O31       1.0  0.69000  0.75081  0.32540  1.0000 -0.6800307571
O   O32       1.0  0.31000  0.25081  0.17460  1.0000 -0.6800307571
O   O33       1.0  0.43610  0.25526  0.93450  1.0000 -0.6693339213
O   O34       1.0  0.56390  0.75526  0.56550  1.0000 -0.6693339213
O   O35       1.0  0.56390  0.74474  0.06550  1.0000 -0.6693339213
O   O36       1.0  0.43610  0.24474  0.43450  1.0000 -0.6693339213
