# DDEC6 charges by PACMAN v1.1 (https://github.com/mtap-research/PACMAN-charge/)
data_2011[Zn][nan]3[ASR]7
_chemical_formula_sum              "Zn8 P8 H24 C32 O48"
_cell_length_a       9.1804
_cell_length_b       9.974
_cell_length_c       27.5385
_cell_angle_alpha    90
_cell_angle_beta     90
_cell_angle_gamma    90

_symmetry_space_group_name_H-M    "P 1"
_symmetry_Int_Tables_number       1

loop_
  _symmetry_equiv_pos_as_xyz
  'x, y, z'

loop_
  _atom_site_type_symbol
  _atom_site_label
  _atom_site_symmetry_multiplicity
  _atom_site_fract_x
  _atom_site_fract_y
  _atom_site_fract_z
  _atom_site_occupancy
  _atom_site_charge
Zn  Zn1       1.0  0.32750  0.62128  0.05796  1.0000 1.0734769229
Zn  Zn2       1.0  0.67250  0.37872  0.55796  1.0000 1.0734769229
Zn  Zn3       1.0  0.17250  0.12128  0.05796  1.0000 1.0734769229
Zn  Zn4       1.0  0.82750  0.87872  0.55796  1.0000 1.0734769229
Zn  Zn5       1.0  0.67979  0.43416  0.96054  1.0000 1.0897357289
Zn  Zn6       1.0  0.32021  0.56584  0.46054  1.0000 1.0897357289
Zn  Zn7       1.0  0.82021  0.93416  0.96054  1.0000 1.0897357289
Zn  Zn8       1.0  0.17979  0.06584  0.46054  1.0000 1.0897357289
P   P1        1.0  0.57882  0.72228  0.98473  1.0000 1.522933555
P   P2        1.0  0.42118  0.27772  0.48473  1.0000 1.522933555
P   P3        1.0  0.92118  0.22228  0.98473  1.0000 1.522933555
P   P4        1.0  0.07882  0.77772  0.48473  1.0000 1.522933555
P   P5        1.0  0.41845  0.32699  0.03494  1.0000 1.5265086416
P   P6        1.0  0.58155  0.67301  0.53494  1.0000 1.5265086416
P   P7        1.0  0.08155  0.82699  0.03494  1.0000 1.5265086416
P   P8        1.0  0.91845  0.17301  0.53494  1.0000 1.5265086416
H   H1        1.0  0.49330  0.66470  0.92120  1.0000 0.3995631162
H   H2        1.0  0.50670  0.33530  0.42120  1.0000 0.3995631162
H   H3        1.0  0.00670  0.16470  0.92120  1.0000 0.3995631162
H   H4        1.0  0.99330  0.83530  0.42120  1.0000 0.3995631162
H   H5        1.0  0.45950  0.31260  0.10660  1.0000 0.4052957941
H   H6        1.0  0.54050  0.68740  0.60660  1.0000 0.4052957941
H   H7        1.0  0.04050  0.81260  0.10660  1.0000 0.4052957941
H   H8        1.0  0.95950  0.18740  0.60660  1.0000 0.4052957941
H   H9        1.0  0.20760  0.80040  0.24350  1.0000 0.1324880917
H   H10       1.0  0.79240  0.19960  0.74350  1.0000 0.1324880917
H   H11       1.0  0.29240  0.30040  0.24350  1.0000 0.1324880917
H   H12       1.0  0.70760  0.69960  0.74350  1.0000 0.1324880917
H   H13       1.0  0.25580  0.74450  0.32260  1.0000 0.1470085878
H   H14       1.0  0.74420  0.25550  0.82260  1.0000 0.1470085878
H   H15       1.0  0.24420  0.24450  0.32260  1.0000 0.1470085878
H   H16       1.0  0.75580  0.75550  0.82260  1.0000 0.1470085878
H   H17       1.0  0.51390  0.44700  0.27650  1.0000 0.13644321
H   H18       1.0  0.48610  0.55300  0.77650  1.0000 0.13644321
H   H19       1.0  0.98610  0.94700  0.27650  1.0000 0.13644321
H   H20       1.0  0.01390  0.05300  0.77650  1.0000 0.13644321
H   H21       1.0  0.47460  0.51260  0.19750  1.0000 0.1470085878
H   H22       1.0  0.52540  0.48740  0.69750  1.0000 0.1470085878
H   H23       1.0  0.02540  0.01260  0.19750  1.0000 0.1470085878
H   H24       1.0  0.97460  0.98740  0.69750  1.0000 0.1470085878
C   C1        1.0  0.29530  0.69550  0.16010  1.0000 0.5968631808
C   C2        1.0  0.70470  0.30450  0.66010  1.0000 0.5968631808
C   C3        1.0  0.20470  0.19550  0.16010  1.0000 0.5968631808
C   C4        1.0  0.79530  0.80450  0.66010  1.0000 0.5968631808
C   C5        1.0  0.33490  0.66320  0.21210  1.0000 0.0135044949
C   C6        1.0  0.66510  0.33680  0.71210  1.0000 0.0135044949
C   C7        1.0  0.16510  0.16320  0.21210  1.0000 0.0135044949
C   C8        1.0  0.83490  0.83680  0.71210  1.0000 0.0135044949
C   C9        1.0  0.27060  0.72970  0.25010  1.0000 -0.0823839693
C   C10       1.0  0.72940  0.27030  0.75010  1.0000 -0.0823839693
C   C11       1.0  0.22940  0.22970  0.25010  1.0000 -0.0823839693
C   C12       1.0  0.77060  0.77030  0.75010  1.0000 -0.0823839693
C   C13       1.0  0.29660  0.69470  0.29740  1.0000 -0.0728381414
C   C14       1.0  0.70340  0.30530  0.79740  1.0000 -0.0728381414
C   C15       1.0  0.20340  0.19470  0.29740  1.0000 -0.0728381414
C   C16       1.0  0.79660  0.80530  0.79740  1.0000 -0.0728381414
C   C17       1.0  0.38340  0.58590  0.30770  1.0000 0.0036273316
C   C18       1.0  0.61660  0.41410  0.80770  1.0000 0.0036273316
C   C19       1.0  0.11660  0.08590  0.30770  1.0000 0.0036273316
C   C20       1.0  0.88340  0.91410  0.80770  1.0000 0.0036273316
C   C21       1.0  0.45190  0.51840  0.26980  1.0000 -0.0823839693
C   C22       1.0  0.54810  0.48160  0.76980  1.0000 -0.0823839693
C   C23       1.0  0.04810  0.01840  0.26980  1.0000 -0.0823839693
C   C24       1.0  0.95190  0.98160  0.76980  1.0000 -0.0823839693
C   C25       1.0  0.42790  0.55760  0.22270  1.0000 -0.0823839693
C   C26       1.0  0.57210  0.44240  0.72270  1.0000 -0.0823839693
C   C27       1.0  0.07210  0.05760  0.22270  1.0000 -0.0823839693
C   C28       1.0  0.92790  0.94240  0.72270  1.0000 -0.0823839693
C   C29       1.0  0.39890  0.53390  0.35890  1.0000 0.5948220316
C   C30       1.0  0.60110  0.46610  0.85890  1.0000 0.5948220316
C   C31       1.0  0.10110  0.03390  0.35890  1.0000 0.5968631808
C   C32       1.0  0.89890  0.96610  0.85890  1.0000 0.5948220316
O   O1        1.0  0.69980  0.62160  0.97481  1.0000 -0.7666396897
O   O2        1.0  0.30020  0.37840  0.47481  1.0000 -0.7666396897
O   O3        1.0  0.80020  0.12160  0.97481  1.0000 -0.7666396897
O   O4        1.0  0.19980  0.87840  0.47481  1.0000 -0.7666396897
O   O5        1.0  0.50250  0.69920  0.03279  1.0000 -0.7409873184
O   O6        1.0  0.49750  0.30080  0.53279  1.0000 -0.7409873184
O   O7        1.0  0.99750  0.19920  0.03279  1.0000 -0.7409873184
O   O8        1.0  0.00250  0.80080  0.53279  1.0000 -0.7409873184
O   O9        1.0  0.63380  0.86480  0.98406  1.0000 -0.6971228894
O   O10       1.0  0.36620  0.13520  0.48406  1.0000 -0.6971228894
O   O11       1.0  0.86620  0.36480  0.98406  1.0000 -0.6971228894
O   O12       1.0  0.13380  0.63520  0.48406  1.0000 -0.6971228894
O   O13       1.0  0.45940  0.70690  0.94419  1.0000 -0.5435241636
O   O14       1.0  0.54060  0.29310  0.44419  1.0000 -0.5435241636
O   O15       1.0  0.04060  0.20690  0.94419  1.0000 -0.5435241636
O   O16       1.0  0.95940  0.79310  0.44419  1.0000 -0.5435241636
O   O17       1.0  0.30560  0.43830  0.04014  1.0000 -0.7666396897
O   O18       1.0  0.69440  0.56170  0.54014  1.0000 -0.7666396897
O   O19       1.0  0.19440  0.93830  0.04014  1.0000 -0.7666396897
O   O20       1.0  0.80560  0.06170  0.54014  1.0000 -0.7666396897
O   O21       1.0  0.35130  0.19140  0.02861  1.0000 -0.7056809541
O   O22       1.0  0.64870  0.80860  0.52861  1.0000 -0.7056809541
O   O23       1.0  0.14870  0.69140  0.02861  1.0000 -0.7056809541
O   O24       1.0  0.85130  0.30860  0.52861  1.0000 -0.7056809541
O   O25       1.0  0.52130  0.34960  0.99314  1.0000 -0.751828092
O   O26       1.0  0.47870  0.65040  0.49314  1.0000 -0.751828092
O   O27       1.0  0.97870  0.84960  0.99314  1.0000 -0.751828092
O   O28       1.0  0.02130  0.15040  0.49314  1.0000 -0.751828092
O   O29       1.0  0.51300  0.32470  0.08314  1.0000 -0.5511600997
O   O30       1.0  0.48700  0.67530  0.58314  1.0000 -0.5511600997
O   O31       1.0  0.98700  0.82470  0.08314  1.0000 -0.5511600997
O   O32       1.0  0.01300  0.17530  0.58314  1.0000 -0.5511600997
O   O33       1.0  0.36050  0.63230  0.12794  1.0000 -0.4793228086
O   O34       1.0  0.63950  0.36770  0.62794  1.0000 -0.4793228086
O   O35       1.0  0.13950  0.13230  0.12794  1.0000 -0.4793228086
O   O36       1.0  0.86050  0.86770  0.62794  1.0000 -0.4793228086
O   O37       1.0  0.34500  0.60590  0.39213  1.0000 -0.5110162076
O   O38       1.0  0.65500  0.39410  0.89213  1.0000 -0.5110162076
O   O39       1.0  0.15500  0.10590  0.39213  1.0000 -0.5110162076
O   O40       1.0  0.84500  0.89410  0.89213  1.0000 -0.5110162076
O   O41       1.0  0.19660  0.77980  0.15260  1.0000 -0.4944994029
O   O42       1.0  0.80340  0.22020  0.65260  1.0000 -0.4944994029
O   O43       1.0  0.30340  0.27980  0.15260  1.0000 -0.4944994029
O   O44       1.0  0.69660  0.72020  0.65260  1.0000 -0.4944994029
O   O45       1.0  0.45850  0.42380  0.36508  1.0000 -0.461378197
O   O46       1.0  0.54150  0.57620  0.86508  1.0000 -0.461378197
O   O47       1.0  0.04150  0.92380  0.36508  1.0000 -0.461378197
O   O48       1.0  0.95850  0.07620  0.86508  1.0000 -0.461378197
