# DDEC6 charges by PACMAN v1.1 (https://github.com/mtap-research/PACMAN-charge/)
data_2011[Ag][nan]3[ASR]5
_chemical_formula_sum              "Ag8 H48 C32 N24"
_cell_length_a       12.5335
_cell_length_b       12.5335
_cell_length_c       11.7302
_cell_angle_alpha    73.8051
_cell_angle_beta     106.195
_cell_angle_gamma    62.2916

_symmetry_space_group_name_H-M    "P 1"
_symmetry_Int_Tables_number       1

loop_
  _symmetry_equiv_pos_as_xyz
  'x, y, z'

loop_
  _atom_site_type_symbol
  _atom_site_label
  _atom_site_symmetry_multiplicity
  _atom_site_fract_x
  _atom_site_fract_y
  _atom_site_fract_z
  _atom_site_occupancy
  _atom_site_charge
Ag  Ag1       1.0  0.76831  0.62557  0.17683  1.0000 0.2668808667
Ag  Ag2       1.0  0.62557  0.76831  0.32317  1.0000 0.2668808667
Ag  Ag3       1.0  0.23169  0.37443  0.82317  1.0000 0.2668808667
Ag  Ag4       1.0  0.37443  0.23169  0.67683  1.0000 0.2668808667
Ag  Ag5       1.0  0.72043  0.40489  0.45265  1.0000 0.2857118814
Ag  Ag6       1.0  0.40489  0.72043  0.04735  1.0000 0.2857118814
Ag  Ag7       1.0  0.27957  0.59511  0.54735  1.0000 0.2857118814
Ag  Ag8       1.0  0.59511  0.27957  0.95265  1.0000 0.2857118814
H   H1        1.0  0.67390  0.25290  0.26560  1.0000 0.1098344906
H   H2        1.0  0.25290  0.67390  0.23440  1.0000 0.1098344906
H   H3        1.0  0.32610  0.74710  0.73440  1.0000 0.1098344906
H   H4        1.0  0.74710  0.32610  0.76560  1.0000 0.1098344906
H   H5        1.0  0.64380  0.61300  0.91320  1.0000 0.1098344906
H   H6        1.0  0.61300  0.64380  0.58680  1.0000 0.1098344906
H   H7        1.0  0.35620  0.38700  0.08680  1.0000 0.1098344906
H   H8        1.0  0.38700  0.35620  0.41320  1.0000 0.1098344906
H   H9        1.0  0.63410  0.51010  0.86810  1.0000 0.1004316453
H   H10       1.0  0.51010  0.63410  0.63190  1.0000 0.1004316453
H   H11       1.0  0.36590  0.48990  0.13190  1.0000 0.1004316453
H   H12       1.0  0.48990  0.36590  0.36810  1.0000 0.1004316453
H   H13       1.0  0.81990  0.50450  0.86720  1.0000 0.1199143097
H   H14       1.0  0.50450  0.81990  0.63280  1.0000 0.1199143097
H   H15       1.0  0.18010  0.49550  0.13280  1.0000 0.1199143097
H   H16       1.0  0.49550  0.18010  0.36720  1.0000 0.1199143097
H   H17       1.0  0.88160  0.46400  0.02100  1.0000 0.1199143097
H   H18       1.0  0.46400  0.88160  0.47900  1.0000 0.1199143097
H   H19       1.0  0.11840  0.53600  0.97900  1.0000 0.1199143097
H   H20       1.0  0.53600  0.11840  0.52100  1.0000 0.1199143097
H   H21       1.0  0.87190  0.36090  0.97580  1.0000 0.1199143097
H   H22       1.0  0.36090  0.87190  0.52420  1.0000 0.1199143097
H   H23       1.0  0.12810  0.63910  0.02420  1.0000 0.1199143097
H   H24       1.0  0.63910  0.12810  0.47580  1.0000 0.1199143097
H   H25       1.0  0.29300  0.01380  0.77220  1.0000 0.1098344906
H   H26       1.0  0.01380  0.29300  0.72780  1.0000 0.1098344906
H   H27       1.0  0.70700  0.98620  0.22780  1.0000 0.1098344906
H   H28       1.0  0.98620  0.70700  0.27220  1.0000 0.1098344906
H   H29       1.0  0.67140  0.02460  0.91020  1.0000 0.1098344906
H   H30       1.0  0.02460  0.67140  0.58980  1.0000 0.1098344906
H   H31       1.0  0.32860  0.97540  0.08980  1.0000 0.1098344906
H   H32       1.0  0.97540  0.32860  0.41020  1.0000 0.1098344906
H   H33       1.0  0.76530  0.87870  0.03770  1.0000 0.1004316453
H   H34       1.0  0.87870  0.76530  0.46230  1.0000 0.1004316453
H   H35       1.0  0.23470  0.12130  0.96230  1.0000 0.1004316453
H   H36       1.0  0.12130  0.23470  0.53770  1.0000 0.1004316453
H   H37       1.0  0.85430  0.87830  0.89080  1.0000 0.1199143097
H   H38       1.0  0.87830  0.85430  0.60920  1.0000 0.1199143097
H   H39       1.0  0.14570  0.12170  0.10920  1.0000 0.1199143097
H   H40       1.0  0.12170  0.14570  0.39080  1.0000 0.1199143097
H   H41       1.0  0.71730  0.92430  0.77560  1.0000 0.1199143097
H   H42       1.0  0.92430  0.71730  0.72440  1.0000 0.1199143097
H   H43       1.0  0.28270  0.07570  0.22440  1.0000 0.1199143097
H   H44       1.0  0.07570  0.28270  0.27560  1.0000 0.1199143097
H   H45       1.0  0.81110  0.77830  0.90310  1.0000 0.1199143097
H   H46       1.0  0.77830  0.81110  0.59690  1.0000 0.1199143097
H   H47       1.0  0.18890  0.22170  0.09690  1.0000 0.1199143097
H   H48       1.0  0.22170  0.18890  0.40310  1.0000 0.1199143097
C   C1        1.0  0.68780  0.44880  0.06620  1.0000 0.3099617629
C   C2        1.0  0.44880  0.68780  0.43380  1.0000 0.3099617629
C   C3        1.0  0.31220  0.55120  0.93380  1.0000 0.3099617629
C   C4        1.0  0.55120  0.31220  0.56620  1.0000 0.3099617629
C   C5        1.0  0.68151  0.31971  0.21790  1.0000 0.1098344906
C   C6        1.0  0.31971  0.68151  0.28210  1.0000 0.1098344906
C   C7        1.0  0.31849  0.68029  0.78210  1.0000 0.1098344906
C   C8        1.0  0.68029  0.31849  0.71790  1.0000 0.1098344906
C   C9        1.0  0.68820  0.51640  0.93970  1.0000 -0.2481122942
C   C10       1.0  0.51640  0.68820  0.56030  1.0000 -0.2481122942
C   C11       1.0  0.31180  0.48360  0.06030  1.0000 -0.2481122942
C   C12       1.0  0.48360  0.31180  0.43970  1.0000 -0.2481122942
C   C13       1.0  0.82780  0.45600  0.95200  1.0000 -0.3514617266
C   C14       1.0  0.45600  0.82780  0.54800  1.0000 -0.3514617266
C   C15       1.0  0.17220  0.54400  0.04800  1.0000 -0.3514617266
C   C16       1.0  0.54400  0.17220  0.45200  1.0000 -0.3514617266
C   C17       1.0  0.58239  0.92459  0.91580  1.0000 0.3099617629
C   C18       1.0  0.92459  0.58239  0.58420  1.0000 0.3099617629
C   C19       1.0  0.41761  0.07541  0.08420  1.0000 0.3099617629
C   C20       1.0  0.07541  0.41761  0.41580  1.0000 0.3099617629
C   C21       1.0  0.38566  0.96926  0.82980  1.0000 0.1004316453
C   C22       1.0  0.96926  0.38566  0.67020  1.0000 0.1004316453
C   C23       1.0  0.61434  0.03074  0.17020  1.0000 0.1004316453
C   C24       1.0  0.03074  0.61434  0.32980  1.0000 0.1004316453
C   C25       1.0  0.70290  0.92990  0.94110  1.0000 -0.2405886514
C   C26       1.0  0.92990  0.70290  0.55890  1.0000 -0.2405886514
C   C27       1.0  0.29710  0.07010  0.05890  1.0000 -0.2405886514
C   C28       1.0  0.07010  0.29710  0.44110  1.0000 -0.2405886514
C   C29       1.0  0.77800  0.87260  0.87150  1.0000 -0.3514617266
C   C30       1.0  0.87260  0.77800  0.62850  1.0000 -0.3514617266
C   C31       1.0  0.22200  0.12740  0.12850  1.0000 -0.3514617266
C   C32       1.0  0.12740  0.22200  0.37150  1.0000 -0.3514617266
N   N1        1.0  0.70701  0.48081  0.16550  1.0000 -0.2405886514
N   N2        1.0  0.48081  0.70701  0.33450  1.0000 -0.2405886514
N   N3        1.0  0.29299  0.51919  0.83450  1.0000 -0.2405886514
N   N4        1.0  0.51919  0.29299  0.66550  1.0000 -0.2405886514
N   N5        1.0  0.70253  0.39553  0.26470  1.0000 -0.1871516084
N   N6        1.0  0.39553  0.70253  0.23530  1.0000 -0.1871516084
N   N7        1.0  0.29747  0.60447  0.73530  1.0000 -0.1871516084
N   N8        1.0  0.60447  0.29747  0.76470  1.0000 -0.1871516084
N   N9        1.0  0.67166  0.34746  0.09440  1.0000 -0.3514617266
N   N10       1.0  0.34746  0.67166  0.40560  1.0000 -0.3514617266
N   N11       1.0  0.32834  0.65254  0.90560  1.0000 -0.3514617266
N   N12       1.0  0.65254  0.32834  0.59440  1.0000 -0.3514617266
N   N13       1.0  0.59029  0.81949  0.99380  1.0000 -0.2330298008
N   N14       1.0  0.81949  0.59029  0.50620  1.0000 -0.2330298008
N   N15       1.0  0.40971  0.18051  0.00620  1.0000 -0.2330298008
N   N16       1.0  0.18051  0.40971  0.49380  1.0000 -0.2330298008
N   N17       1.0  0.46128  0.84888  0.93790  1.0000 -0.1871516084
N   N18       1.0  0.84888  0.46128  0.56210  1.0000 -0.1871516084
N   N19       1.0  0.53872  0.15112  0.06210  1.0000 -0.1871516084
N   N20       1.0  0.15112  0.53872  0.43790  1.0000 -0.1871516084
N   N21       1.0  0.45510  0.02270  0.81010  1.0000 -0.3514617266
N   N22       1.0  0.02270  0.45510  0.68990  1.0000 -0.3514617266
N   N23       1.0  0.54490  0.97730  0.18990  1.0000 -0.3514617266
N   N24       1.0  0.97730  0.54490  0.31010  1.0000 -0.3514617266
