# DDEC6 charges by PACMAN v1.1 (https://github.com/mtap-research/PACMAN-charge/)
data_2011[U][gfy]3[ASR]1
_chemical_formula_sum              "U6 H18 C54 O38"
_cell_length_a       18.3539
_cell_length_b       18.3539
_cell_length_c       9.7736
_cell_angle_alpha    90
_cell_angle_beta     90
_cell_angle_gamma    120

_symmetry_space_group_name_H-M    "P 1"
_symmetry_Int_Tables_number       1

loop_
  _symmetry_equiv_pos_as_xyz
  'x, y, z'

loop_
  _atom_site_type_symbol
  _atom_site_label
  _atom_site_symmetry_multiplicity
  _atom_site_fract_x
  _atom_site_fract_y
  _atom_site_fract_z
  _atom_site_occupancy
  _atom_site_charge
U   U1        1.0  0.35708  0.79803  0.25000  1.0000 2.2500583578
U   U2        1.0  0.20197  0.55905  0.25000  1.0000 2.2500583578
U   U3        1.0  0.44095  0.64292  0.25000  1.0000 2.2500583578
U   U4        1.0  0.64292  0.20197  0.75000  1.0000 2.2500583578
U   U5        1.0  0.79803  0.44095  0.75000  1.0000 2.2500583578
U   U6        1.0  0.55905  0.35708  0.75000  1.0000 2.2500583578
H   H1        1.0  0.29300  0.75630  0.75000  1.0000 0.1263473132
H   H2        1.0  0.24370  0.53670  0.75000  1.0000 0.1263473132
H   H3        1.0  0.46330  0.70700  0.75000  1.0000 0.1263473132
H   H4        1.0  0.70700  0.24370  0.25000  1.0000 0.1263473132
H   H5        1.0  0.75630  0.46330  0.25000  1.0000 0.1263473132
H   H6        1.0  0.53670  0.29300  0.25000  1.0000 0.1263473132
H   H7        1.0  0.08410  0.59960  0.95850  1.0000 0.1380711147
H   H8        1.0  0.40040  0.48450  0.95850  1.0000 0.1380711147
H   H9        1.0  0.51550  0.91590  0.95850  1.0000 0.1380711147
H   H10       1.0  0.91590  0.40040  0.45850  1.0000 0.1380711147
H   H11       1.0  0.59960  0.51550  0.45850  1.0000 0.1380711147
H   H12       1.0  0.48450  0.08410  0.45850  1.0000 0.1380711147
H   H13       1.0  0.91590  0.40040  0.04150  1.0000 0.1380711147
H   H14       1.0  0.59960  0.51550  0.04150  1.0000 0.1380711147
H   H15       1.0  0.48450  0.08410  0.04150  1.0000 0.1380711147
H   H16       1.0  0.08410  0.59960  0.54150  1.0000 0.1380711147
H   H17       1.0  0.40040  0.48450  0.54150  1.0000 0.1380711147
H   H18       1.0  0.51550  0.91590  0.54150  1.0000 0.1380711147
C   C1        1.0  0.06630  0.59390  0.75000  1.0000 -0.022846421
C   C2        1.0  0.40610  0.47240  0.75000  1.0000 -0.022846421
C   C3        1.0  0.52760  0.93370  0.75000  1.0000 -0.022846421
C   C4        1.0  0.93370  0.40610  0.25000  1.0000 -0.022846421
C   C5        1.0  0.59390  0.52760  0.25000  1.0000 -0.022846421
C   C6        1.0  0.47240  0.06630  0.25000  1.0000 -0.022846421
C   C7        1.0  0.19530  0.68240  0.87300  1.0000 -0.0328687834
C   C8        1.0  0.31760  0.51290  0.87300  1.0000 -0.0328687834
C   C9        1.0  0.48710  0.80470  0.87300  1.0000 -0.0328687834
C   C10       1.0  0.80470  0.31760  0.37300  1.0000 -0.0328687834
C   C11       1.0  0.68240  0.48710  0.37300  1.0000 -0.0328687834
C   C12       1.0  0.51290  0.19530  0.37300  1.0000 -0.0328687834
C   C13       1.0  0.80470  0.31760  0.12700  1.0000 -0.0328687834
C   C14       1.0  0.68240  0.48710  0.12700  1.0000 -0.0328687834
C   C15       1.0  0.51290  0.19530  0.12700  1.0000 -0.0328687834
C   C16       1.0  0.19530  0.68240  0.62700  1.0000 -0.0328687834
C   C17       1.0  0.31760  0.51290  0.62700  1.0000 -0.0328687834
C   C18       1.0  0.48710  0.80470  0.62700  1.0000 -0.0328687834
C   C19       1.0  0.23690  0.71390  0.75000  1.0000 -0.0978705304
C   C20       1.0  0.28610  0.52300  0.75000  1.0000 -0.0978705304
C   C21       1.0  0.47700  0.76310  0.75000  1.0000 -0.0978705304
C   C22       1.0  0.76310  0.28610  0.25000  1.0000 -0.0978705304
C   C23       1.0  0.71390  0.47700  0.25000  1.0000 -0.0978705304
C   C24       1.0  0.52300  0.23690  0.25000  1.0000 -0.0978705304
C   C25       1.0  0.11110  0.62180  0.87570  1.0000 -0.0978705304
C   C26       1.0  0.37820  0.48930  0.87570  1.0000 -0.0978705304
C   C27       1.0  0.51070  0.88890  0.87570  1.0000 -0.0978705304
C   C28       1.0  0.88890  0.37820  0.37570  1.0000 -0.0978705304
C   C29       1.0  0.62180  0.51070  0.37570  1.0000 -0.0978705304
C   C30       1.0  0.48930  0.11110  0.37570  1.0000 -0.0978705304
C   C31       1.0  0.88890  0.37820  0.12430  1.0000 -0.0978705304
C   C32       1.0  0.62180  0.51070  0.12430  1.0000 -0.0978705304
C   C33       1.0  0.48930  0.11110  0.12430  1.0000 -0.0978705304
C   C34       1.0  0.11110  0.62180  0.62430  1.0000 -0.0978705304
C   C35       1.0  0.37820  0.48930  0.62430  1.0000 -0.0978705304
C   C36       1.0  0.51070  0.88890  0.62430  1.0000 -0.0978705304
C   C37       1.0  0.23980  0.71170  0.00640  1.0000 0.6056851098
C   C38       1.0  0.28830  0.52810  0.00640  1.0000 0.6056851098
C   C39       1.0  0.47190  0.76020  0.00640  1.0000 0.6056851098
C   C40       1.0  0.76020  0.28830  0.50640  1.0000 0.6056851098
C   C41       1.0  0.71170  0.47190  0.50640  1.0000 0.6056851098
C   C42       1.0  0.52810  0.23980  0.50640  1.0000 0.6056851098
C   C43       1.0  0.76020  0.28830  0.99360  1.0000 0.6056851098
C   C44       1.0  0.71170  0.47190  0.99360  1.0000 0.6056851098
C   C45       1.0  0.52810  0.23980  0.99360  1.0000 0.6056851098
C   C46       1.0  0.23980  0.71170  0.49360  1.0000 0.6056851098
C   C47       1.0  0.28830  0.52810  0.49360  1.0000 0.6056851098
C   C48       1.0  0.47190  0.76020  0.49360  1.0000 0.6056851098
C   C49       1.0  0.97440  0.53260  0.75000  1.0000 0.5395444283
C   C50       1.0  0.46740  0.44180  0.75000  1.0000 0.5395444283
C   C51       1.0  0.55820  0.02560  0.75000  1.0000 0.5395444283
C   C52       1.0  0.02560  0.46740  0.25000  1.0000 0.5395444283
C   C53       1.0  0.53260  0.55820  0.25000  1.0000 0.5395444283
C   C54       1.0  0.44180  0.97440  0.25000  1.0000 0.5395444283
O   O1        1.0  0.31200  0.77380  0.00870  1.0000 -0.5720006874
O   O2        1.0  0.22620  0.53820  0.00870  1.0000 -0.5720006874
O   O3        1.0  0.46180  0.68800  0.00870  1.0000 -0.5720006874
O   O4        1.0  0.68800  0.22620  0.50870  1.0000 -0.5720006874
O   O5        1.0  0.77380  0.46180  0.50870  1.0000 -0.5720006874
O   O6        1.0  0.53820  0.31200  0.50870  1.0000 -0.5720006874
O   O7        1.0  0.68800  0.22620  0.99130  1.0000 -0.5720006874
O   O8        1.0  0.77380  0.46180  0.99130  1.0000 -0.5720006874
O   O9        1.0  0.53820  0.31200  0.99130  1.0000 -0.5720006874
O   O10       1.0  0.31200  0.77380  0.49130  1.0000 -0.5720006874
O   O11       1.0  0.22620  0.53820  0.49130  1.0000 -0.5720006874
O   O12       1.0  0.46180  0.68800  0.49130  1.0000 -0.5720006874
O   O13       1.0  0.33333  0.66667  0.25000  1.0000 -1.1574464193
O   O14       1.0  0.66667  0.33333  0.75000  1.0000 -1.1574464193
O   O15       1.0  0.93500  0.50600  0.63800  1.0000 -0.5845790908
O   O16       1.0  0.49400  0.42900  0.63800  1.0000 -0.5845790908
O   O17       1.0  0.57100  0.06500  0.63800  1.0000 -0.5845790908
O   O18       1.0  0.06500  0.49400  0.13800  1.0000 -0.5845790908
O   O19       1.0  0.50600  0.57100  0.13800  1.0000 -0.5845790908
O   O20       1.0  0.42900  0.93500  0.13800  1.0000 -0.5845790908
O   O21       1.0  0.06500  0.49400  0.36200  1.0000 -0.5845790908
O   O22       1.0  0.50600  0.57100  0.36200  1.0000 -0.5845790908
O   O23       1.0  0.42900  0.93500  0.36200  1.0000 -0.5845790908
O   O24       1.0  0.93500  0.50600  0.86200  1.0000 -0.5856243721
O   O25       1.0  0.49400  0.42900  0.86200  1.0000 -0.5845790908
O   O26       1.0  0.57100  0.06500  0.86200  1.0000 -0.5845790908
O   O27       1.0  0.20380  0.67080  0.11600  1.0000 -0.6610588631
O   O28       1.0  0.32920  0.53300  0.11600  1.0000 -0.6610588631
O   O29       1.0  0.46700  0.79620  0.11600  1.0000 -0.6610588631
O   O30       1.0  0.79620  0.32920  0.61600  1.0000 -0.6610588631
O   O31       1.0  0.67080  0.46700  0.61600  1.0000 -0.6610588631
O   O32       1.0  0.53300  0.20380  0.61600  1.0000 -0.6610588631
O   O33       1.0  0.79620  0.32920  0.88400  1.0000 -0.6610588631
O   O34       1.0  0.67080  0.46700  0.88400  1.0000 -0.6610588631
O   O35       1.0  0.53300  0.20380  0.88400  1.0000 -0.6610588631
O   O36       1.0  0.20380  0.67080  0.38400  1.0000 -0.6610588631
O   O37       1.0  0.32920  0.53300  0.38400  1.0000 -0.6610588631
O   O38       1.0  0.46700  0.79620  0.38400  1.0000 -0.6610588631
