# DDEC6 charges by PACMAN v1.1 (https://github.com/mtap-research/PACMAN-charge/)
data_2011[Cd][scu]3[ASR]1
_chemical_formula_sum              "Cd8 H40 C74 O40"
_cell_length_a       12.529
_cell_length_b       18.326
_cell_length_c       19.033
_cell_angle_alpha    90
_cell_angle_beta     90
_cell_angle_gamma    90

_symmetry_space_group_name_H-M    "P 1"
_symmetry_Int_Tables_number       1

loop_
  _symmetry_equiv_pos_as_xyz
  'x, y, z'

loop_
  _atom_site_type_symbol
  _atom_site_label
  _atom_site_symmetry_multiplicity
  _atom_site_fract_x
  _atom_site_fract_y
  _atom_site_fract_z
  _atom_site_occupancy
  _atom_site_charge
Cd  Cd1       1.0  0.38038  0.72880  0.74842  1.0000 1.0125486469
Cd  Cd2       1.0  0.38038  0.27120  0.25158  1.0000 1.0125486469
Cd  Cd3       1.0  0.61962  0.22880  0.75158  1.0000 1.0125486469
Cd  Cd4       1.0  0.61962  0.77120  0.24842  1.0000 1.0125486469
Cd  Cd5       1.0  0.55800  0.82596  0.66327  1.0000 1.0966430522
Cd  Cd6       1.0  0.55800  0.17404  0.33673  1.0000 1.0966430522
Cd  Cd7       1.0  0.44200  0.32596  0.83673  1.0000 1.0966430522
Cd  Cd8       1.0  0.44200  0.67404  0.16327  1.0000 1.0966430522
H   H1        1.0  0.73200  0.63190  0.62060  1.0000 0.1394117931
H   H2        1.0  0.73200  0.36810  0.37940  1.0000 0.1394117931
H   H3        1.0  0.26800  0.13190  0.87940  1.0000 0.1394117931
H   H4        1.0  0.26800  0.86810  0.12060  1.0000 0.1394117931
H   H5        1.0  0.81910  0.42210  0.65290  1.0000 0.1234578369
H   H6        1.0  0.81910  0.57790  0.34710  1.0000 0.1234578369
H   H7        1.0  0.18090  0.92210  0.84710  1.0000 0.1234578369
H   H8        1.0  0.18090  0.07790  0.15290  1.0000 0.1234578369
H   H9        1.0  0.55700  0.50500  0.75140  1.0000 0.1394117931
H   H10       1.0  0.55700  0.49500  0.24860  1.0000 0.1394117931
H   H11       1.0  0.44300  0.00500  0.74860  1.0000 0.1394117931
H   H12       1.0  0.44300  0.99500  0.25140  1.0000 0.1394117931
H   H13       1.0  0.89000  0.43850  0.55320  1.0000 0.1018163288
H   H14       1.0  0.89000  0.56150  0.44680  1.0000 0.1018163288
H   H15       1.0  0.11000  0.93850  0.94680  1.0000 0.1018163288
H   H16       1.0  0.11000  0.06150  0.05320  1.0000 0.1018163288
H   H17       1.0  0.97820  0.46900  0.60270  1.0000 0.1018163288
H   H18       1.0  0.97820  0.53100  0.39730  1.0000 0.1018163288
H   H19       1.0  0.02180  0.96900  0.89730  1.0000 0.1018163288
H   H20       1.0  0.02180  0.03100  0.10270  1.0000 0.1018163288
H   H21       1.0  0.44740  0.75330  0.44990  1.0000 0.1394117931
H   H22       1.0  0.44740  0.24670  0.55010  1.0000 0.1394117931
H   H23       1.0  0.55260  0.25330  0.05010  1.0000 0.1394117931
H   H24       1.0  0.55260  0.74670  0.94990  1.0000 0.1394117931
H   H25       1.0  0.23640  0.61990  0.35250  1.0000 0.1394117931
H   H26       1.0  0.23640  0.38010  0.64750  1.0000 0.1394117931
H   H27       1.0  0.76360  0.11990  0.14750  1.0000 0.1394117931
H   H28       1.0  0.76360  0.88010  0.85250  1.0000 0.1394117931
H   H29       1.0  0.20820  0.65780  0.56170  1.0000 0.1276097512
H   H30       1.0  0.20820  0.34220  0.43830  1.0000 0.1276097512
H   H31       1.0  0.79180  0.15780  0.93830  1.0000 0.1276097512
H   H32       1.0  0.79180  0.84220  0.06170  1.0000 0.1276097512
H   H33       1.0  0.02620  0.60760  0.53410  1.0000 0.1018163288
H   H34       1.0  0.02620  0.39240  0.46590  1.0000 0.1018163288
H   H35       1.0  0.97380  0.10760  0.96590  1.0000 0.1018163288
H   H36       1.0  0.97380  0.89240  0.03410  1.0000 0.1018163288
H   H37       1.0  0.12330  0.55440  0.55540  1.0000 0.1018163288
H   H38       1.0  0.12330  0.44560  0.44460  1.0000 0.1018163288
H   H39       1.0  0.87670  0.05440  0.94460  1.0000 0.1018163288
H   H40       1.0  0.87670  0.94560  0.05540  1.0000 0.1018163288
C   C1        1.0  0.55960  0.63960  0.70190  1.0000 0.5870020703
C   C2        1.0  0.55960  0.36040  0.29810  1.0000 0.5870020703
C   C3        1.0  0.44040  0.13960  0.79810  1.0000 0.5870020703
C   C4        1.0  0.44040  0.86040  0.20190  1.0000 0.5870020703
C   C5        1.0  0.63370  0.57770  0.68780  1.0000 -0.0098741028
C   C6        1.0  0.63370  0.42230  0.31220  1.0000 -0.0098741028
C   C7        1.0  0.36630  0.07770  0.81220  1.0000 -0.0098741028
C   C8        1.0  0.36630  0.92230  0.18780  1.0000 -0.0098741028
C   C9        1.0  0.71930  0.58590  0.64200  1.0000 -0.2117677302
C   C10       1.0  0.71930  0.41410  0.35800  1.0000 -0.2117677302
C   C11       1.0  0.28070  0.08590  0.85800  1.0000 -0.2117677302
C   C12       1.0  0.28070  0.91410  0.14200  1.0000 -0.2117677302
C   C13       1.0  0.78540  0.52860  0.62740  1.0000 0.2511320403
C   C14       1.0  0.78540  0.47140  0.37260  1.0000 0.2511320403
C   C15       1.0  0.21460  0.02860  0.87260  1.0000 0.2511320403
C   C16       1.0  0.21460  0.97140  0.12740  1.0000 0.2511320403
C   C17       1.0  0.77110  0.46120  0.66120  1.0000 -0.2494633169
C   C18       1.0  0.77110  0.53880  0.33880  1.0000 -0.2494633169
C   C19       1.0  0.22890  0.96120  0.83880  1.0000 -0.2494633169
C   C20       1.0  0.22890  0.03880  0.16120  1.0000 -0.2494633169
C   C21       1.0  0.68470  0.45240  0.70760  1.0000 0.0094966014
C   C22       1.0  0.68470  0.54760  0.29240  1.0000 0.0094966014
C   C23       1.0  0.31530  0.95240  0.79240  1.0000 0.0094966014
C   C24       1.0  0.31530  0.04760  0.20760  1.0000 0.0094966014
C   C25       1.0  0.61580  0.51090  0.72040  1.0000 -0.1306749293
C   C26       1.0  0.61580  0.48910  0.27960  1.0000 -0.1306749293
C   C27       1.0  0.38420  0.01090  0.77960  1.0000 -0.1306749293
C   C28       1.0  0.38420  0.98910  0.22040  1.0000 -0.1306749293
C   C29       1.0  0.93300  0.48050  0.56350  1.0000 -0.0729986885
C   C30       1.0  0.93300  0.51950  0.43650  1.0000 -0.0729986885
C   C31       1.0  0.06700  0.98050  0.93650  1.0000 -0.0729986885
C   C32       1.0  0.06700  0.01950  0.06350  1.0000 -0.0729986885
C   C33       1.0  0.66360  0.37850  0.73910  1.0000 0.5845175302
C   C34       1.0  0.66360  0.62150  0.26090  1.0000 0.5870020703
C   C35       1.0  0.33640  0.87850  0.76090  1.0000 0.5870020703
C   C36       1.0  0.33640  0.12150  0.23910  1.0000 0.5845175302
C   C37       1.0  0.37410  0.74640  0.58110  1.0000 0.5993842324
C   C38       1.0  0.37410  0.25360  0.41890  1.0000 0.5993842324
C   C39       1.0  0.62590  0.24640  0.91890  1.0000 0.5993842324
C   C40       1.0  0.62590  0.75360  0.08110  1.0000 0.5993842324
C   C41       1.0  0.33390  0.71150  0.51470  1.0000 -0.0037175376
C   C42       1.0  0.33390  0.28850  0.48530  1.0000 -0.0037175376
C   C43       1.0  0.66610  0.21150  0.98530  1.0000 -0.0037175376
C   C44       1.0  0.66610  0.78850  0.01470  1.0000 -0.0037175376
C   C45       1.0  0.38680  0.72220  0.45170  1.0000 -0.121991544
C   C46       1.0  0.38680  0.27780  0.54830  1.0000 -0.121991544
C   C47       1.0  0.61320  0.22220  0.04830  1.0000 -0.121991544
C   C48       1.0  0.61320  0.77780  0.95170  1.0000 -0.121991544
C   C49       1.0  0.35090  0.68760  0.39110  1.0000 -0.0037175376
C   C50       1.0  0.35090  0.31240  0.60890  1.0000 -0.0037175376
C   C51       1.0  0.64910  0.18760  0.10890  1.0000 -0.0037175376
C   C52       1.0  0.64910  0.81240  0.89110  1.0000 -0.0037175376
C   C53       1.0  0.26160  0.64330  0.39380  1.0000 -0.2117677302
C   C54       1.0  0.26160  0.35670  0.60620  1.0000 -0.2117677302
C   C55       1.0  0.73840  0.14330  0.10620  1.0000 -0.2117677302
C   C56       1.0  0.73840  0.85670  0.89380  1.0000 -0.2117677302
C   C57       1.0  0.20960  0.63330  0.45700  1.0000 0.2511320403
C   C58       1.0  0.20960  0.36670  0.54300  1.0000 0.2511320403
C   C59       1.0  0.79040  0.13330  0.04300  1.0000 0.2511320403
C   C60       1.0  0.79040  0.86670  0.95700  1.0000 0.2511320403
C   C61       1.0  0.24410  0.66590  0.51840  1.0000 -0.2494633169
C   C62       1.0  0.24410  0.33410  0.48160  1.0000 -0.2494633169
C   C63       1.0  0.75590  0.16590  0.98160  1.0000 -0.2494633169
C   C64       1.0  0.75590  0.83410  0.01840  1.0000 -0.2494633169
C   C65       1.0  0.41220  0.69660  0.32270  1.0000 0.5993842324
C   C66       1.0  0.41220  0.30340  0.67730  1.0000 0.5993842324
C   C67       1.0  0.58780  0.19660  0.17730  1.0000 0.5993842324
C   C68       1.0  0.58780  0.80340  0.82270  1.0000 0.5993842324
C   C69       1.0  0.07120  0.56640  0.51800  1.0000 -0.0890986108
C   C70       1.0  0.07120  0.43360  0.48200  1.0000 -0.0890986108
C   C71       1.0  0.92880  0.06640  0.98200  1.0000 -0.0890986108
C   C72       1.0  0.92880  0.93360  0.01800  1.0000 -0.0890986108
C   C73       1.0  0.00250  0.50000  0.50000  1.0000 0.0425976431
C   C74       1.0  0.99750  0.00000  0.00000  1.0000 0.0485716416
O   O1        1.0  0.33030  0.72610  0.63732  1.0000 -0.5600629316
O   O2        1.0  0.33030  0.27390  0.36268  1.0000 -0.5600629316
O   O3        1.0  0.66970  0.22610  0.86268  1.0000 -0.5600629316
O   O4        1.0  0.66970  0.77390  0.13732  1.0000 -0.5600629316
O   O5        1.0  0.44950  0.79157  0.57585  1.0000 -0.5600629316
O   O6        1.0  0.44950  0.20843  0.42415  1.0000 -0.5600629316
O   O7        1.0  0.55050  0.29157  0.92415  1.0000 -0.5600629316
O   O8        1.0  0.55050  0.70843  0.07585  1.0000 -0.5600629316
O   O9        1.0  0.47860  0.62750  0.73900  1.0000 -0.5305217588
O   O10       1.0  0.47860  0.37250  0.26100  1.0000 -0.5305217588
O   O11       1.0  0.52140  0.12750  0.76100  1.0000 -0.5305217588
O   O12       1.0  0.52140  0.87250  0.23900  1.0000 -0.5305217588
O   O13       1.0  0.58050  0.70040  0.67360  1.0000 -0.6028755837
O   O14       1.0  0.58050  0.29960  0.32640  1.0000 -0.6028755837
O   O15       1.0  0.41950  0.20040  0.82640  1.0000 -0.6028755837
O   O16       1.0  0.41950  0.79960  0.17360  1.0000 -0.6028755837
O   O17       1.0  0.37090  0.66600  0.26909  1.0000 -0.5763740623
O   O18       1.0  0.37090  0.33400  0.73091  1.0000 -0.5763740623
O   O19       1.0  0.62910  0.16600  0.23091  1.0000 -0.5763740623
O   O20       1.0  0.62910  0.83400  0.76909  1.0000 -0.5763740623
O   O21       1.0  0.49520  0.73350  0.32543  1.0000 -0.5389808798
O   O22       1.0  0.49520  0.26650  0.67457  1.0000 -0.5389808798
O   O23       1.0  0.50480  0.23350  0.17457  1.0000 -0.5389808798
O   O24       1.0  0.50480  0.76650  0.82543  1.0000 -0.5389808798
O   O25       1.0  0.59310  0.37390  0.78400  1.0000 -0.5600629316
O   O26       1.0  0.59310  0.62610  0.21600  1.0000 -0.5600629316
O   O27       1.0  0.40690  0.87390  0.71600  1.0000 -0.5600629316
O   O28       1.0  0.40690  0.12610  0.28400  1.0000 -0.5653608525
O   O29       1.0  0.71610  0.32490  0.71620  1.0000 -0.5389808798
O   O30       1.0  0.71610  0.67510  0.28380  1.0000 -0.5389808798
O   O31       1.0  0.28390  0.82490  0.78380  1.0000 -0.5389808798
O   O32       1.0  0.28390  0.17510  0.21620  1.0000 -0.5389808798
O   O33       1.0  0.12490  0.58440  0.45370  1.0000 -0.2117677302
O   O34       1.0  0.12490  0.41560  0.54630  1.0000 -0.2117677302
O   O35       1.0  0.87510  0.08440  0.04630  1.0000 -0.2117677302
O   O36       1.0  0.87510  0.91560  0.95370  1.0000 -0.2117677302
O   O37       1.0  0.86600  0.54040  0.58000  1.0000 -0.195705899
O   O38       1.0  0.86600  0.45960  0.42000  1.0000 -0.195705899
O   O39       1.0  0.13400  0.04040  0.92000  1.0000 -0.195705899
O   O40       1.0  0.13400  0.95960  0.08000  1.0000 -0.195705899
