# DDEC6 charges by PACMAN v1.1 (https://github.com/mtap-research/PACMAN-charge/)
data_2011[Cu][nan]3[ASR]8
_chemical_formula_sum              "Cu4 H32 C56 N8 O20"
_cell_length_a       8.4048
_cell_length_b       10.2379
_cell_length_c       17.7707
_cell_angle_alpha    90
_cell_angle_beta     104.405
_cell_angle_gamma    90

_symmetry_space_group_name_H-M    "P 1"
_symmetry_Int_Tables_number       1

loop_
  _symmetry_equiv_pos_as_xyz
  'x, y, z'

loop_
  _atom_site_type_symbol
  _atom_site_label
  _atom_site_symmetry_multiplicity
  _atom_site_fract_x
  _atom_site_fract_y
  _atom_site_fract_z
  _atom_site_occupancy
  _atom_site_charge
Cu  Cu1       1.0  0.60575  0.05774  0.93204  1.0000 0.7388960909
Cu  Cu2       1.0  0.60575  0.44226  0.43204  1.0000 0.7388960909
Cu  Cu3       1.0  0.39425  0.55774  0.56796  1.0000 0.7388960909
Cu  Cu4       1.0  0.39425  0.94226  0.06796  1.0000 0.7388960909
H   H1        1.0  0.63270  0.27030  0.66960  1.0000 0.1361382793
H   H2        1.0  0.63270  0.22970  0.16960  1.0000 0.1361382793
H   H3        1.0  0.33920  0.08920  0.48480  1.0000 0.1361382793
H   H4        1.0  0.33920  0.41080  0.98480  1.0000 0.1361382793
H   H5        1.0  0.38560  0.94880  0.69980  1.0000 0.1474316012
H   H6        1.0  0.38560  0.55120  0.19980  1.0000 0.1474316012
H   H7        1.0  0.96950  0.77110  0.36370  1.0000 0.1474316012
H   H8        1.0  0.96950  0.72890  0.86370  1.0000 0.1474316012
H   H9        1.0  0.77840  0.60900  0.34180  1.0000 0.1195246693
H   H10       1.0  0.77840  0.89100  0.84180  1.0000 0.1195246693
H   H11       1.0  0.82900  0.56440  0.56450  1.0000 0.1195246693
H   H12       1.0  0.82900  0.93560  0.06450  1.0000 0.1195246693
H   H13       1.0  0.02280  0.72580  0.59210  1.0000 0.1474316012
H   H14       1.0  0.02280  0.77420  0.09210  1.0000 0.1474316012
H   H15       1.0  0.23120  0.83810  0.59610  1.0000 0.2890663635
H   H16       1.0  0.23120  0.66190  0.09610  1.0000 0.2890663635
H   H17       1.0  0.36730  0.77030  0.83040  1.0000 0.1361382793
H   H18       1.0  0.36730  0.72970  0.33040  1.0000 0.1361382793
H   H19       1.0  0.66080  0.58920  0.01520  1.0000 0.1361382793
H   H20       1.0  0.66080  0.91080  0.51520  1.0000 0.1361382793
H   H21       1.0  0.61440  0.44880  0.80020  1.0000 0.1474316012
H   H22       1.0  0.61440  0.05120  0.30020  1.0000 0.1474316012
H   H23       1.0  0.03050  0.27110  0.13630  1.0000 0.1474316012
H   H24       1.0  0.03050  0.22890  0.63630  1.0000 0.1474316012
H   H25       1.0  0.22160  0.10900  0.15820  1.0000 0.1195246693
H   H26       1.0  0.22160  0.39100  0.65820  1.0000 0.1195246693
H   H27       1.0  0.17100  0.06440  0.93550  1.0000 0.1195246693
H   H28       1.0  0.17100  0.43560  0.43550  1.0000 0.1195246693
H   H29       1.0  0.97720  0.22580  0.90790  1.0000 0.1474316012
H   H30       1.0  0.97720  0.27420  0.40790  1.0000 0.1474316012
H   H31       1.0  0.76880  0.33810  0.90390  1.0000 0.2890663635
H   H32       1.0  0.76880  0.16190  0.40390  1.0000 0.2890663635
C   C1        1.0  0.52010  0.11080  0.69760  1.0000 -0.0055569309
C   C2        1.0  0.52010  0.38920  0.19760  1.0000 -0.0055569309
C   C3        1.0  0.56060  0.20280  0.64930  1.0000 -0.1230707724
C   C4        1.0  0.56060  0.29720  0.14930  1.0000 -0.1230707724
C   C5        1.0  0.49270  0.19410  0.56970  1.0000 -0.022959394
C   C6        1.0  0.49270  0.30590  0.06970  1.0000 -0.022959394
C   C7        1.0  0.38370  0.09440  0.53810  1.0000 -0.1717981655
C   C8        1.0  0.38370  0.40560  0.03810  1.0000 -0.1717981655
C   C9        1.0  0.34270  0.00270  0.58820  1.0000 0.2316484418
C   C10       1.0  0.34270  0.49730  0.08820  1.0000 0.2316484418
C   C11       1.0  0.41190  0.01110  0.66667  1.0000 -0.1775932718
C   C12       1.0  0.41190  0.48890  0.16670  1.0000 -0.1775932718
C   C13       1.0  0.58920  0.11910  0.78390  1.0000 0.5504195284
C   C14       1.0  0.58920  0.38090  0.28390  1.0000 0.5504195284
C   C15       1.0  0.53040  0.29290  0.51660  1.0000 0.5006585609
C   C16       1.0  0.53040  0.20710  0.01660  1.0000 0.5006585609
C   C17       1.0  0.13200  0.88290  0.49120  1.0000 0.4518460001
C   C18       1.0  0.13200  0.61710  0.99120  1.0000 0.4518460001
C   C19       1.0  0.01690  0.76830  0.48110  1.0000 0.0337462149
C   C20       1.0  0.01690  0.73170  0.98110  1.0000 0.0337462149
C   C21       1.0  0.94170  0.73030  0.40540  1.0000 -0.1424589563
C   C22       1.0  0.94170  0.76970  0.90540  1.0000 -0.1424589563
C   C23       1.0  0.82760  0.63350  0.39260  1.0000 0.0787406772
C   C24       1.0  0.82760  0.86650  0.89260  1.0000 0.0787406772
C   C25       1.0  0.85770  0.60740  0.52370  1.0000 0.0878096711
C   C26       1.0  0.85770  0.89260  0.02370  1.0000 0.0878096711
C   C27       1.0  0.97390  0.70410  0.54070  1.0000 -0.1518562544
C   C28       1.0  0.97390  0.79590  0.04070  1.0000 -0.1518562544
C   C29       1.0  0.47990  0.61080  0.80240  1.0000 -0.0055569309
C   C30       1.0  0.47990  0.88920  0.30240  1.0000 -0.0055569309
C   C31       1.0  0.43940  0.70280  0.85070  1.0000 -0.1230707724
C   C32       1.0  0.43940  0.79720  0.35070  1.0000 -0.1230707724
C   C33       1.0  0.50730  0.69410  0.93030  1.0000 -0.022959394
C   C34       1.0  0.50730  0.80590  0.43030  1.0000 -0.022959394
C   C35       1.0  0.61630  0.59440  0.96190  1.0000 -0.1717981655
C   C36       1.0  0.61630  0.90560  0.46190  1.0000 -0.1717981655
C   C37       1.0  0.65730  0.50270  0.91180  1.0000 0.2316484418
C   C38       1.0  0.65730  0.99730  0.41180  1.0000 0.2316484418
C   C39       1.0  0.58810  0.51110  0.83330  1.0000 -0.1775932718
C   C40       1.0  0.58810  0.98890  0.33333  1.0000 -0.1775932718
C   C41       1.0  0.41080  0.61910  0.71610  1.0000 0.5504195284
C   C42       1.0  0.41080  0.88090  0.21610  1.0000 0.5504195284
C   C43       1.0  0.46960  0.79290  0.98340  1.0000 0.5006585609
C   C44       1.0  0.46960  0.70710  0.48340  1.0000 0.5006585609
C   C45       1.0  0.86800  0.38290  0.00880  1.0000 0.4518460001
C   C46       1.0  0.86800  0.11710  0.50880  1.0000 0.4518460001
C   C47       1.0  0.98310  0.26830  0.01890  1.0000 0.0337462149
C   C48       1.0  0.98310  0.23170  0.51890  1.0000 0.0337462149
C   C49       1.0  0.05830  0.23030  0.09460  1.0000 -0.1424589563
C   C50       1.0  0.05830  0.26970  0.59460  1.0000 -0.1424589563
C   C51       1.0  0.17240  0.13350  0.10740  1.0000 0.0787406772
C   C52       1.0  0.17240  0.36650  0.60740  1.0000 0.0787406772
C   C53       1.0  0.14230  0.10740  0.97630  1.0000 0.0878096711
C   C54       1.0  0.14230  0.39260  0.47630  1.0000 0.0878096711
C   C55       1.0  0.02610  0.20410  0.95930  1.0000 -0.1518562544
C   C56       1.0  0.02610  0.29590  0.45930  1.0000 -0.1518562544
N   N1        1.0  0.78390  0.57220  0.45100  1.0000 -0.246789645
N   N2        1.0  0.78390  0.92780  0.95100  1.0000 -0.246789645
N   N3        1.0  0.23350  0.89840  0.56270  1.0000 -0.3594581518
N   N4        1.0  0.23350  0.60160  0.06270  1.0000 -0.3594581518
N   N5        1.0  0.21610  0.07220  0.04900  1.0000 -0.246789645
N   N6        1.0  0.21610  0.42780  0.54900  1.0000 -0.246789645
N   N7        1.0  0.76650  0.39840  0.93730  1.0000 -0.3594581518
N   N8        1.0  0.76650  0.10160  0.43730  1.0000 -0.3594581518
O   O1        1.0  0.53050  0.03620  0.82362  1.0000 -0.523111384
O   O2        1.0  0.53050  0.46380  0.32362  1.0000 -0.523111384
O   O3        1.0  0.69360  0.20070  0.81250  1.0000 -0.5599954534
O   O4        1.0  0.69360  0.29930  0.31250  1.0000 -0.5599954534
O   O5        1.0  0.47450  0.28400  0.44418  1.0000 -0.455416422
O   O6        1.0  0.47450  0.21600  0.94418  1.0000 -0.455416422
O   O7        1.0  0.62080  0.39060  0.54172  1.0000 -0.5335240621
O   O8        1.0  0.62080  0.10940  0.04172  1.0000 -0.5335240621
O   O9        1.0  0.12710  0.95730  0.43745  1.0000 -0.4428633858
O   O10       1.0  0.12710  0.54270  0.93745  1.0000 -0.4428633858
O   O11       1.0  0.46950  0.53620  0.67638  1.0000 -0.523111384
O   O12       1.0  0.46950  0.96380  0.17638  1.0000 -0.523111384
O   O13       1.0  0.30640  0.70070  0.68750  1.0000 -0.5599954534
O   O14       1.0  0.30640  0.79930  0.18750  1.0000 -0.5599954534
O   O15       1.0  0.52550  0.78400  0.05582  1.0000 -0.455416422
O   O16       1.0  0.52550  0.71600  0.55582  1.0000 -0.455416422
O   O17       1.0  0.37920  0.89060  0.95828  1.0000 -0.5335240621
O   O18       1.0  0.37920  0.60940  0.45828  1.0000 -0.5335240621
O   O19       1.0  0.87290  0.45730  0.06255  1.0000 -0.4428633858
O   O20       1.0  0.87290  0.04270  0.56255  1.0000 -0.4428633858
