# DDEC6 charges by PACMAN v1.1 (https://github.com/mtap-research/PACMAN-charge/)
data_2011[Pr][deh]3[ASR]1
_chemical_formula_sum              "Pr8 H24 C56 N8 O32"
_cell_length_a       17.6143
_cell_length_b       17.6143
_cell_length_c       17.6143
_cell_angle_alpha    102.996
_cell_angle_beta     102.996
_cell_angle_gamma    123.384

_symmetry_space_group_name_H-M    "P 1"
_symmetry_Int_Tables_number       1

loop_
  _symmetry_equiv_pos_as_xyz
  'x, y, z'

loop_
  _atom_site_type_symbol
  _atom_site_label
  _atom_site_symmetry_multiplicity
  _atom_site_fract_x
  _atom_site_fract_y
  _atom_site_fract_z
  _atom_site_occupancy
  _atom_site_charge
Pr  Pr1       1.0  0.85014  0.06520  0.43406  1.0000 1.9957692911
Pr  Pr2       1.0  0.63114  0.41608  0.56594  1.0000 1.9957692911
Pr  Pr3       1.0  0.66608  0.60014  0.28494  1.0000 1.9932200798
Pr  Pr4       1.0  0.31520  0.38114  0.71506  1.0000 1.9932200798
Pr  Pr5       1.0  0.39986  0.68480  0.06594  1.0000 1.9957692911
Pr  Pr6       1.0  0.61886  0.33392  0.93406  1.0000 1.9957692911
Pr  Pr7       1.0  0.58392  0.14986  0.21506  1.0000 1.9957692911
Pr  Pr8       1.0  0.93480  0.36886  0.78494  1.0000 1.9957692911
H   H1        1.0  0.77180  0.03010  0.71390  1.0000 0.1073702802
H   H2        1.0  0.31620  0.05790  0.28610  1.0000 0.1073702802
H   H3        1.0  0.30790  0.52180  0.24170  1.0000 0.1073702802
H   H4        1.0  0.28010  0.06620  0.75830  1.0000 0.1073702802
H   H5        1.0  0.47820  0.71990  0.78610  1.0000 0.1073702802
H   H6        1.0  0.93380  0.69210  0.21390  1.0000 0.1073702802
H   H7        1.0  0.94210  0.22820  0.25830  1.0000 0.1073702802
H   H8        1.0  0.96990  0.68380  0.74170  1.0000 0.1073702802
H   H9        1.0  0.69850  0.86010  0.67520  1.0000 0.0922174009
H   H10       1.0  0.18490  0.02330  0.32480  1.0000 0.0922174009
H   H11       1.0  0.27330  0.44850  0.33840  1.0000 0.0922174009
H   H12       1.0  0.11010  0.93490  0.66160  1.0000 0.0922174009
H   H13       1.0  0.55150  0.88990  0.82480  1.0000 0.0922174009
H   H14       1.0  0.06510  0.72670  0.17520  1.0000 0.0922174009
H   H15       1.0  0.97670  0.30150  0.16160  1.0000 0.0922174009
H   H16       1.0  0.13990  0.81510  0.83840  1.0000 0.0922174009
H   H17       1.0  0.67870  0.76730  0.54500  1.0000 0.1175359824
H   H18       1.0  0.22230  0.13370  0.45500  1.0000 0.1175359824
H   H19       1.0  0.38370  0.42870  0.41140  1.0000 0.1175359824
H   H20       1.0  0.01730  0.97230  0.58860  1.0000 0.1175359824
H   H21       1.0  0.57130  0.98270  0.95500  1.0000 0.1175359824
H   H22       1.0  0.02770  0.61630  0.04500  1.0000 0.1175359824
H   H23       1.0  0.86630  0.32130  0.08860  1.0000 0.1175359824
H   H24       1.0  0.23270  0.77770  0.91140  1.0000 0.1175359824
C   C1        1.0  0.79190  0.03050  0.60480  1.0000 0.1073702802
C   C2        1.0  0.42570  0.18710  0.39520  1.0000 0.1041332105
C   C3        1.0  0.43710  0.54190  0.26140  1.0000 0.1073702802
C   C4        1.0  0.28050  0.17570  0.73860  1.0000 0.1041332105
C   C5        1.0  0.45810  0.71950  0.89520  1.0000 0.1041332105
C   C6        1.0  0.82430  0.56290  0.10480  1.0000 0.1041332105
C   C7        1.0  0.81290  0.20810  0.23860  1.0000 0.1073702802
C   C8        1.0  0.96950  0.57430  0.76140  1.0000 0.1041332105
C   C9        1.0  0.76290  0.99110  0.66220  1.0000 -0.1562837345
C   C10       1.0  0.32890  0.10070  0.33780  1.0000 -0.1562837345
C   C11       1.0  0.35070  0.51290  0.27180  1.0000 -0.1562837345
C   C12       1.0  0.24110  0.07890  0.72820  1.0000 -0.1562837345
C   C13       1.0  0.48710  0.75890  0.83780  1.0000 -0.1562837345
C   C14       1.0  0.92110  0.64930  0.16220  1.0000 -0.1562837345
C   C15       1.0  0.89930  0.23710  0.22820  1.0000 -0.1562837345
C   C16       1.0  0.00890  0.67110  0.77180  1.0000 -0.1549720129
C   C17       1.0  0.71960  0.88990  0.63890  1.0000 -0.0967769071
C   C18       1.0  0.25100  0.08070  0.36110  1.0000 -0.0930229917
C   C19       1.0  0.33070  0.46960  0.32970  1.0000 -0.0967769071
C   C20       1.0  0.13990  0.00100  0.67030  1.0000 -0.0930229917
C   C21       1.0  0.53040  0.86010  0.86110  1.0000 -0.0930229917
C   C22       1.0  0.99900  0.66930  0.13890  1.0000 -0.0967769071
C   C23       1.0  0.91930  0.28040  0.17030  1.0000 -0.0967769071
C   C24       1.0  0.11010  0.74900  0.82970  1.0000 -0.0930229917
C   C25       1.0  0.70860  0.83500  0.56220  1.0000 -0.1750924399
C   C26       1.0  0.27280  0.14640  0.43780  1.0000 -0.1750924399
C   C27       1.0  0.39640  0.45860  0.37360  1.0000 -0.1750924399
C   C28       1.0  0.08500  0.02280  0.62640  1.0000 -0.1750924399
C   C29       1.0  0.54140  0.91500  0.93780  1.0000 -0.1738589665
C   C30       1.0  0.97720  0.60360  0.06220  1.0000 -0.1738589665
C   C31       1.0  0.85360  0.29140  0.12640  1.0000 -0.1738589665
C   C32       1.0  0.16500  0.72720  0.87360  1.0000 -0.1738589665
C   C33       1.0  0.74280  0.88220  0.51160  1.0000 0.0708707982
C   C34       1.0  0.37060  0.23120  0.48840  1.0000 0.0708707982
C   C35       1.0  0.48120  0.49280  0.36060  1.0000 0.0708707982
C   C36       1.0  0.13220  0.12060  0.63940  1.0000 0.0708707982
C   C37       1.0  0.50720  0.86780  0.98840  1.0000 0.0708707982
C   C38       1.0  0.87940  0.51880  0.01160  1.0000 0.0708707982
C   C39       1.0  0.76880  0.25720  0.13940  1.0000 0.0708707982
C   C40       1.0  0.11780  0.62940  0.86060  1.0000 0.0708707982
C   C41       1.0  0.73810  0.83090  0.42780  1.0000 0.5706545675
C   C42       1.0  0.40310  0.31030  0.57220  1.0000 0.5706545675
C   C43       1.0  0.56030  0.48810  0.40720  1.0000 0.5706545675
C   C44       1.0  0.08090  0.15310  0.59280  1.0000 0.5706545675
C   C45       1.0  0.51190  0.91910  0.07220  1.0000 0.5706545675
C   C46       1.0  0.84690  0.43970  0.92780  1.0000 0.5706545675
C   C47       1.0  0.68970  0.26190  0.09280  1.0000 0.5706545675
C   C48       1.0  0.16910  0.59690  0.90720  1.0000 0.5706545675
C   C49       1.0  0.84060  0.13830  0.62430  1.0000 0.5706545675
C   C50       1.0  0.51400  0.21630  0.37570  1.0000 0.5706545675
C   C51       1.0  0.46630  0.59060  0.20230  1.0000 0.5706545675
C   C52       1.0  0.38830  0.26400  0.79770  1.0000 0.5706545675
C   C53       1.0  0.40940  0.61170  0.87570  1.0000 0.5706545675
C   C54       1.0  0.73600  0.53370  0.12430  1.0000 0.5706545675
C   C55       1.0  0.78370  0.15940  0.29770  1.0000 0.5706545675
C   C56       1.0  0.86170  0.48600  0.70230  1.0000 0.5706545675
N   N1        1.0  0.78220  0.97810  0.53170  1.0000 -0.4146472581
N   N2        1.0  0.44640  0.25050  0.46830  1.0000 -0.4146472581
N   N3        1.0  0.50050  0.53220  0.30410  1.0000 -0.4146472581
N   N4        1.0  0.22810  0.19640  0.69590  1.0000 -0.4146472581
N   N5        1.0  0.46780  0.77190  0.96830  1.0000 -0.4158654621
N   N6        1.0  0.80360  0.49950  0.03170  1.0000 -0.4146472581
N   N7        1.0  0.74950  0.21780  0.19590  1.0000 -0.4146472581
N   N8        1.0  0.02190  0.55360  0.80410  1.0000 -0.4146472581
O   O1        1.0  0.77650  0.88490  0.38980  1.0000 -0.6912188938
O   O2        1.0  0.49510  0.38670  0.61020  1.0000 -0.6912188938
O   O3        1.0  0.63670  0.52650  0.39160  1.0000 -0.6912188938
O   O4        1.0  0.13490  0.24510  0.60840  1.0000 -0.6912188938
O   O5        1.0  0.47350  0.86510  0.11020  1.0000 -0.6912188938
O   O6        1.0  0.75490  0.36330  0.88980  1.0000 -0.6912188938
O   O7        1.0  0.61330  0.22350  0.10840  1.0000 -0.6912188938
O   O8        1.0  0.11510  0.50490  0.89160  1.0000 -0.6912188938
O   O9        1.0  0.87050  0.16840  0.57070  1.0000 -0.7092050722
O   O10       1.0  0.59770  0.29980  0.42930  1.0000 -0.7092050722
O   O11       1.0  0.54980  0.62050  0.20210  1.0000 -0.7092050722
O   O12       1.0  0.41840  0.34770  0.79790  1.0000 -0.7092050722
O   O13       1.0  0.37950  0.58160  0.92930  1.0000 -0.7092050722
O   O14       1.0  0.65230  0.45020  0.07070  1.0000 -0.7092050722
O   O15       1.0  0.70020  0.12950  0.29790  1.0000 -0.7092050722
O   O16       1.0  0.83160  0.40230  0.70210  1.0000 -0.7092050722
O   O17       1.0  0.84810  0.19140  0.69010  1.0000 -0.7187498322
O   O18       1.0  0.50130  0.15800  0.30990  1.0000 -0.7187498322
O   O19       1.0  0.40800  0.59810  0.15670  1.0000 -0.7187498322
O   O20       1.0  0.44140  0.25130  0.84330  1.0000 -0.7187498322
O   O21       1.0  0.40190  0.55860  0.80990  1.0000 -0.7187498322
O   O22       1.0  0.74870  0.59200  0.19010  1.0000 -0.7187498322
O   O23       1.0  0.84200  0.15190  0.34330  1.0000 -0.7187498322
O   O24       1.0  0.80860  0.49870  0.65670  1.0000 -0.7187498322
O   O25       1.0  0.69990  0.74070  0.40260  1.0000 -0.670313943
O   O26       1.0  0.33810  0.29730  0.59740  1.0000 -0.670313943
O   O27       1.0  0.54730  0.44990  0.45920  1.0000 -0.670313943
O   O28       1.0  0.99070  0.08810  0.54080  1.0000 -0.670313943
O   O29       1.0  0.55010  0.00930  0.09740  1.0000 -0.670313943
O   O30       1.0  0.91190  0.45270  0.90260  1.0000 -0.670313943
O   O31       1.0  0.70270  0.30010  0.04080  1.0000 -0.670313943
O   O32       1.0  0.25930  0.66190  0.95920  1.0000 -0.670313943
