# DDEC6 charges by PACMAN v1.1 (https://github.com/mtap-research/PACMAN-charge/)
data_2011[Zn][dia]3[ASR]5
_chemical_formula_sum              "Zn8 H48 C32 N64"
_cell_length_a       13.9806
_cell_length_b       10.7868
_cell_length_c       18.2139
_cell_angle_alpha    90
_cell_angle_beta     113.928
_cell_angle_gamma    90

_symmetry_space_group_name_H-M    "P 1"
_symmetry_Int_Tables_number       1

loop_
  _symmetry_equiv_pos_as_xyz
  'x, y, z'

loop_
  _atom_site_type_symbol
  _atom_site_label
  _atom_site_symmetry_multiplicity
  _atom_site_fract_x
  _atom_site_fract_y
  _atom_site_fract_z
  _atom_site_occupancy
  _atom_site_charge
Zn  Zn1       1.0  0.90689  0.27811  0.17631  1.0000 0.6507640418
Zn  Zn2       1.0  0.09311  0.77811  0.32369  1.0000 0.6507640418
Zn  Zn3       1.0  0.09311  0.72189  0.82369  1.0000 0.6507640418
Zn  Zn4       1.0  0.90689  0.22189  0.67631  1.0000 0.6507640418
Zn  Zn5       1.0  0.57128  0.23305  0.33053  1.0000 0.6507640418
Zn  Zn6       1.0  0.42872  0.73305  0.16947  1.0000 0.6507640418
Zn  Zn7       1.0  0.42872  0.76695  0.66947  1.0000 0.6507640418
Zn  Zn8       1.0  0.57128  0.26695  0.83053  1.0000 0.6507640418
H   H1        1.0  0.71070  0.03580  0.27040  1.0000 0.1619729584
H   H2        1.0  0.28930  0.53580  0.22960  1.0000 0.1619729584
H   H3        1.0  0.28930  0.96420  0.72960  1.0000 0.1619729584
H   H4        1.0  0.71070  0.46420  0.77040  1.0000 0.1619729584
H   H5        1.0  0.74360  0.05600  0.19670  1.0000 0.1619729584
H   H6        1.0  0.25640  0.55600  0.30330  1.0000 0.1619729584
H   H7        1.0  0.25640  0.94400  0.80330  1.0000 0.1619729584
H   H8        1.0  0.74360  0.44400  0.69670  1.0000 0.1619729584
H   H9        1.0  0.83160  0.04750  0.28640  1.0000 0.1619729584
H   H10       1.0  0.16840  0.54750  0.21360  1.0000 0.1619729584
H   H11       1.0  0.16840  0.95250  0.71360  1.0000 0.1619729584
H   H12       1.0  0.83160  0.45250  0.78640  1.0000 0.1619729584
H   H13       1.0  0.01850  0.50760  0.38570  1.0000 0.1619729584
H   H14       1.0  0.98150  0.00760  0.11430  1.0000 0.1619729584
H   H15       1.0  0.98150  0.49240  0.61430  1.0000 0.1619729584
H   H16       1.0  0.01850  0.99240  0.88570  1.0000 0.1619729584
H   H17       1.0  0.02820  0.37460  0.35040  1.0000 0.1619729584
H   H18       1.0  0.97180  0.87460  0.14960  1.0000 0.1619729584
H   H19       1.0  0.97180  0.62540  0.64960  1.0000 0.1619729584
H   H20       1.0  0.02820  0.12540  0.85040  1.0000 0.1619729584
H   H21       1.0  0.12480  0.46890  0.37840  1.0000 0.1681214015
H   H22       1.0  0.87520  0.96890  0.12160  1.0000 0.1681214015
H   H23       1.0  0.87520  0.53110  0.62160  1.0000 0.1681214015
H   H24       1.0  0.12480  0.03110  0.87840  1.0000 0.1681214015
H   H25       1.0  0.39640  0.05450  0.13200  1.0000 0.1681214015
H   H26       1.0  0.60360  0.55450  0.36800  1.0000 0.1681214015
H   H27       1.0  0.60360  0.94550  0.86800  1.0000 0.1681214015
H   H28       1.0  0.39640  0.44550  0.63200  1.0000 0.1681214015
H   H29       1.0  0.50500  0.12670  0.15620  1.0000 0.1619729584
H   H30       1.0  0.49500  0.62670  0.34380  1.0000 0.1619729584
H   H31       1.0  0.49500  0.87330  0.84380  1.0000 0.1619729584
H   H32       1.0  0.50500  0.37330  0.65620  1.0000 0.1619729584
H   H33       1.0  0.49040  0.99170  0.11670  1.0000 0.1619729584
H   H34       1.0  0.50960  0.49170  0.38330  1.0000 0.1619729584
H   H35       1.0  0.50960  0.00830  0.88330  1.0000 0.1681214015
H   H36       1.0  0.49040  0.50830  0.61670  1.0000 0.1619729584
H   H37       1.0  0.85950  0.32850  0.94390  1.0000 0.1681214015
H   H38       1.0  0.14050  0.82850  0.55610  1.0000 0.1681214015
H   H39       1.0  0.14050  0.67150  0.05610  1.0000 0.1681214015
H   H40       1.0  0.85950  0.17150  0.44390  1.0000 0.1681214015
H   H41       1.0  0.76960  0.43020  0.92660  1.0000 0.1619729584
H   H42       1.0  0.23040  0.93020  0.57340  1.0000 0.1619729584
H   H43       1.0  0.23040  0.56980  0.07340  1.0000 0.1619729584
H   H44       1.0  0.76960  0.06980  0.42660  1.0000 0.1619729584
H   H45       1.0  0.86520  0.42360  0.01300  1.0000 0.1619729584
H   H46       1.0  0.13480  0.92360  0.48700  1.0000 0.1619729584
H   H47       1.0  0.13480  0.57640  0.98700  1.0000 0.1619729584
H   H48       1.0  0.86520  0.07640  0.51300  1.0000 0.1619729584
C   C1        1.0  0.75504  0.21344  0.26177  1.0000 0.3709624546
C   C2        1.0  0.24496  0.71344  0.23823  1.0000 0.3709624546
C   C3        1.0  0.24496  0.78656  0.73823  1.0000 0.3709624546
C   C4        1.0  0.75504  0.28656  0.76177  1.0000 0.3709624546
C   C5        1.0  0.76072  0.07642  0.25308  1.0000 -0.512236363
C   C6        1.0  0.23928  0.57642  0.24692  1.0000 -0.512236363
C   C7        1.0  0.23928  0.92358  0.74692  1.0000 -0.512236363
C   C8        1.0  0.76072  0.42358  0.75308  1.0000 -0.512236363
C   C9        1.0  0.00832  0.51541  0.27104  1.0000 0.3709624546
C   C10       1.0  0.99168  0.01541  0.22896  1.0000 0.3709624546
C   C11       1.0  0.99168  0.48459  0.72896  1.0000 0.3709624546
C   C12       1.0  0.00832  0.98459  0.77104  1.0000 0.3709624546
C   C13       1.0  0.04837  0.46209  0.35342  1.0000 -0.4917666677
C   C14       1.0  0.95163  0.96209  0.14658  1.0000 -0.4917666677
C   C15       1.0  0.95163  0.53791  0.64658  1.0000 -0.4917666677
C   C16       1.0  0.04837  0.03791  0.85342  1.0000 -0.4917666677
C   C17       1.0  0.51180  0.98837  0.23381  1.0000 0.3516201612
C   C18       1.0  0.48820  0.48837  0.26619  1.0000 0.3516201612
C   C19       1.0  0.48820  0.01163  0.76619  1.0000 0.3516201612
C   C20       1.0  0.51180  0.51163  0.73381  1.0000 0.3516201612
C   C21       1.0  0.47257  0.04512  0.15280  1.0000 -0.5026102725
C   C22       1.0  0.52743  0.54512  0.34720  1.0000 -0.5026102725
C   C23       1.0  0.52743  0.95488  0.84720  1.0000 -0.5026102725
C   C24       1.0  0.47257  0.45488  0.65280  1.0000 -0.5026102725
C   C25       1.0  0.75810  0.28619  0.99489  1.0000 0.3709624546
C   C26       1.0  0.24190  0.78619  0.50511  1.0000 0.3709624546
C   C27       1.0  0.24190  0.71381  0.00511  1.0000 0.3709624546
C   C28       1.0  0.75810  0.21381  0.49489  1.0000 0.3709624546
C   C29       1.0  0.81826  0.37467  0.96724  1.0000 -0.5026102725
C   C30       1.0  0.18174  0.87467  0.53276  1.0000 -0.5026102725
C   C31       1.0  0.18174  0.62533  0.03276  1.0000 -0.5026102725
C   C32       1.0  0.81826  0.12533  0.46724  1.0000 -0.5026102725
N   N1        1.0  0.69650  0.27129  0.29365  1.0000 -0.2662728447
N   N2        1.0  0.30350  0.77129  0.20635  1.0000 -0.2662728447
N   N3        1.0  0.30350  0.72871  0.70635  1.0000 -0.2662728447
N   N4        1.0  0.69650  0.22871  0.79365  1.0000 -0.2662728447
N   N5        1.0  0.71918  0.39408  0.29386  1.0000 -0.0793447387
N   N6        1.0  0.28082  0.89408  0.20614  1.0000 -0.0793447387
N   N7        1.0  0.28082  0.60592  0.70614  1.0000 -0.0793447387
N   N8        1.0  0.71918  0.10592  0.79386  1.0000 -0.0793447387
N   N9        1.0  0.78755  0.40875  0.26293  1.0000 -0.0733322755
N   N10       1.0  0.21245  0.90875  0.23707  1.0000 -0.0733322755
N   N11       1.0  0.21245  0.59125  0.73707  1.0000 -0.0733322755
N   N12       1.0  0.78755  0.09125  0.76293  1.0000 -0.0733322755
N   N13       1.0  0.81181  0.29621  0.24166  1.0000 -0.2662728447
N   N14       1.0  0.18819  0.79621  0.25834  1.0000 -0.2662728447
N   N15       1.0  0.18819  0.70379  0.75834  1.0000 -0.2662728447
N   N16       1.0  0.81181  0.20379  0.74166  1.0000 -0.2662728447
N   N17       1.0  0.96337  0.45201  0.20241  1.0000 -0.2662728447
N   N18       1.0  0.03663  0.95201  0.29759  1.0000 -0.2662728447
N   N19       1.0  0.03663  0.54799  0.79759  1.0000 -0.2662728447
N   N20       1.0  0.96337  0.04799  0.70241  1.0000 -0.2662728447
N   N21       1.0  0.93977  0.53612  0.14189  1.0000 -0.0793447387
N   N22       1.0  0.06023  0.03612  0.35811  1.0000 -0.0793447387
N   N23       1.0  0.06023  0.46388  0.85811  1.0000 -0.0793447387
N   N24       1.0  0.93977  0.96388  0.64189  1.0000 -0.0793447387
N   N25       1.0  0.97004  0.64526  0.17287  1.0000 -0.0733322755
N   N26       1.0  0.02996  0.14526  0.32713  1.0000 -0.0793447387
N   N27       1.0  0.02996  0.35474  0.82713  1.0000 -0.0793447387
N   N28       1.0  0.97004  0.85474  0.67287  1.0000 -0.0733322755
N   N29       1.0  0.01356  0.63464  0.25424  1.0000 -0.2662728447
N   N30       1.0  0.98644  0.13464  0.24576  1.0000 -0.2662728447
N   N31       1.0  0.98644  0.36536  0.74576  1.0000 -0.2662728447
N   N32       1.0  0.01356  0.86536  0.75424  1.0000 -0.2662728447
N   N33       1.0  0.55192  0.05019  0.30302  1.0000 -0.2604679752
N   N34       1.0  0.44808  0.55019  0.19698  1.0000 -0.2604679752
N   N35       1.0  0.44808  0.94981  0.69698  1.0000 -0.2604679752
N   N36       1.0  0.55192  0.44981  0.80302  1.0000 -0.2604679752
N   N37       1.0  0.57769  0.96380  0.36218  1.0000 -0.0733322755
N   N38       1.0  0.42231  0.46380  0.13782  1.0000 -0.0733322755
N   N39       1.0  0.42231  0.03620  0.63782  1.0000 -0.0733322755
N   N40       1.0  0.57769  0.53620  0.86218  1.0000 -0.0733322755
N   N41       1.0  0.55388  0.85447  0.32935  1.0000 -0.0793447387
N   N42       1.0  0.44612  0.35447  0.17065  1.0000 -0.0793447387
N   N43       1.0  0.44612  0.14553  0.67065  1.0000 -0.0793447387
N   N44       1.0  0.55388  0.64553  0.82935  1.0000 -0.0793447387
N   N45       1.0  0.51225  0.86735  0.24828  1.0000 -0.2604679752
N   N46       1.0  0.48775  0.36735  0.25172  1.0000 -0.2604679752
N   N47       1.0  0.48775  0.13265  0.75172  1.0000 -0.2604679752
N   N48       1.0  0.51225  0.63265  0.74828  1.0000 -0.2604679752
N   N49       1.0  0.78703  0.24404  0.06971  1.0000 -0.2662728447
N   N50       1.0  0.21297  0.74404  0.43029  1.0000 -0.2662728447
N   N51       1.0  0.21297  0.75596  0.93029  1.0000 -0.2662728447
N   N52       1.0  0.78703  0.25596  0.56971  1.0000 -0.2662728447
N   N53       1.0  0.70992  0.16576  0.06842  1.0000 -0.0733322755
N   N54       1.0  0.29008  0.66576  0.43158  1.0000 -0.0733322755
N   N55       1.0  0.29008  0.83424  0.93158  1.0000 -0.0733322755
N   N56       1.0  0.70992  0.33424  0.56842  1.0000 -0.0733322755
N   N57       1.0  0.63750  0.16143  0.99613  1.0000 -0.0733322755
N   N58       1.0  0.36250  0.66143  0.50387  1.0000 -0.0733322755
N   N59       1.0  0.36250  0.83857  0.00387  1.0000 -0.0733322755
N   N60       1.0  0.63750  0.33857  0.49613  1.0000 -0.0733322755
N   N61       1.0  0.66547  0.23703  0.94817  1.0000 -0.2604679752
N   N62       1.0  0.33453  0.73703  0.55183  1.0000 -0.2604679752
N   N63       1.0  0.33453  0.76297  0.05183  1.0000 -0.2604679752
N   N64       1.0  0.66547  0.26297  0.44817  1.0000 -0.2604679752
