# DDEC6 charges by PACMAN v1.1 (https://github.com/mtap-research/PACMAN-charge/)
data_2011[CuMo][ths]3[ASR]1
_chemical_formula_sum              "Cu24 Mo8 H128 C160 S24 N32 Cl8"
_cell_length_a       32.7468
_cell_length_b       31.8853
_cell_length_c       19.57
_cell_angle_alpha    74.7957
_cell_angle_beta     69.9857
_cell_angle_gamma    35.2186

_symmetry_space_group_name_H-M    "P 1"
_symmetry_Int_Tables_number       1

loop_
  _symmetry_equiv_pos_as_xyz
  'x, y, z'

loop_
  _atom_site_type_symbol
  _atom_site_label
  _atom_site_symmetry_multiplicity
  _atom_site_fract_x
  _atom_site_fract_y
  _atom_site_fract_z
  _atom_site_occupancy
  _atom_site_charge
Cu  Cu1       1.0  0.76586  0.40256  0.41062  1.0000 0.301075386
Cu  Cu2       1.0  0.42096  0.41062  0.40256  1.0000 0.301075386
Cu  Cu3       1.0  0.48414  0.84744  0.83938  1.0000 0.301075386
Cu  Cu4       1.0  0.82904  0.83938  0.84744  1.0000 0.301075386
Cu  Cu5       1.0  0.88715  0.34867  0.49183  1.0000 0.2920737785
Cu  Cu6       1.0  0.27235  0.49183  0.34867  1.0000 0.2920737785
Cu  Cu7       1.0  0.36285  0.90133  0.75817  1.0000 0.2920737785
Cu  Cu8       1.0  0.97765  0.75817  0.90133  1.0000 0.2920737785
Cu  Cu9       1.0  0.85618  0.43142  0.30988  1.0000 0.4017362631
Cu  Cu10      1.0  0.40252  0.30988  0.43142  1.0000 0.4017362631
Cu  Cu11      1.0  0.39382  0.81858  0.94012  1.0000 0.4017362631
Cu  Cu12      1.0  0.84748  0.94012  0.81858  1.0000 0.4017362631
Cu  Cu13      1.0  0.40256  0.76586  0.42096  1.0000 0.301075386
Cu  Cu14      1.0  0.41062  0.42096  0.76586  1.0000 0.301075386
Cu  Cu15      1.0  0.84744  0.48414  0.82904  1.0000 0.301075386
Cu  Cu16      1.0  0.83938  0.82904  0.48414  1.0000 0.301075386
Cu  Cu17      1.0  0.34867  0.88715  0.27235  1.0000 0.2920737785
Cu  Cu18      1.0  0.49183  0.27235  0.88715  1.0000 0.301075386
Cu  Cu19      1.0  0.90133  0.36285  0.97765  1.0000 0.2920737785
Cu  Cu20      1.0  0.75817  0.97765  0.36285  1.0000 0.2920737785
Cu  Cu21      1.0  0.43142  0.85618  0.40252  1.0000 0.4017362631
Cu  Cu22      1.0  0.30988  0.40252  0.85618  1.0000 0.4054220752
Cu  Cu23      1.0  0.81858  0.39382  0.84748  1.0000 0.4054220752
Cu  Cu24      1.0  0.94012  0.84748  0.39382  1.0000 0.4017362631
Mo  Mo1       1.0  0.90570  0.31354  0.36486  1.0000 0.7760695295
Mo  Mo2       1.0  0.41590  0.36486  0.31354  1.0000 0.7740967707
Mo  Mo3       1.0  0.34430  0.93646  0.88514  1.0000 0.7760695295
Mo  Mo4       1.0  0.83410  0.88514  0.93646  1.0000 0.7760695295
Mo  Mo5       1.0  0.31354  0.90570  0.41590  1.0000 0.7740967707
Mo  Mo6       1.0  0.36486  0.41590  0.90570  1.0000 0.7760695295
Mo  Mo7       1.0  0.93646  0.34430  0.83410  1.0000 0.7903758721
Mo  Mo8       1.0  0.88514  0.83410  0.34430  1.0000 0.7760695295
H   H1        1.0  0.03280  0.23840  0.67200  1.0000 0.1299314448
H   H2        1.0  0.05680  0.67200  0.23840  1.0000 0.1299314448
H   H3        1.0  0.21720  0.01160  0.57800  1.0000 0.1299314448
H   H4        1.0  0.19320  0.57800  0.01160  1.0000 0.1299314448
H   H5        1.0  0.93960  0.32600  0.61940  1.0000 0.1188859912
H   H6        1.0  0.11500  0.61940  0.32600  1.0000 0.1188859912
H   H7        1.0  0.31040  0.92400  0.63060  1.0000 0.1188859912
H   H8        1.0  0.13500  0.63060  0.92400  1.0000 0.1188859912
H   H9        1.0  0.12600  0.09760  0.53280  1.0000 0.1299314448
H   H10       1.0  0.24360  0.53280  0.09760  1.0000 0.1299314448
H   H11       1.0  0.12400  0.15240  0.71720  1.0000 0.1299314448
H   H12       1.0  0.00640  0.71720  0.15240  1.0000 0.1299314448
H   H13       1.0  0.02730  0.19230  0.47990  1.0000 0.1077699898
H   H14       1.0  0.30050  0.47990  0.19230  1.0000 0.1077699898
H   H15       1.0  0.22270  0.05770  0.77010  1.0000 0.1006464831
H   H16       1.0  0.94950  0.77010  0.05770  1.0000 0.1077699898
H   H17       1.0  0.70180  0.51000  0.71100  1.0000 0.1394663086
H   H18       1.0  0.07720  0.71100  0.51000  1.0000 0.1394663086
H   H19       1.0  0.54820  0.74000  0.53900  1.0000 0.1394663086
H   H20       1.0  0.17280  0.53900  0.74000  1.0000 0.1394663086
H   H21       1.0  0.77800  0.41560  0.63660  1.0000 0.1188859912
H   H22       1.0  0.16980  0.63660  0.41560  1.0000 0.1188859912
H   H23       1.0  0.47200  0.83440  0.61340  1.0000 0.1188859912
H   H24       1.0  0.08020  0.61340  0.83440  1.0000 0.1188859912
H   H25       1.0  0.70000  0.54980  0.40120  1.0000 0.1006464831
H   H26       1.0  0.34900  0.40120  0.54980  1.0000 0.1006464831
H   H27       1.0  0.55000  0.70020  0.84880  1.0000 0.1006464831
H   H28       1.0  0.90100  0.84880  0.70020  1.0000 0.1006464831
H   H29       1.0  0.67660  0.67200  0.62400  1.0000 0.1188859912
H   H30       1.0  0.02740  0.62400  0.67200  1.0000 0.1188859912
H   H31       1.0  0.57340  0.57800  0.62600  1.0000 0.1188859912
H   H32       1.0  0.22260  0.62600  0.57800  1.0000 0.1188859912
H   H33       1.0  0.63490  0.59610  0.78050  1.0000 0.1394663086
H   H34       1.0  0.98850  0.78050  0.59610  1.0000 0.1394663086
H   H35       1.0  0.61510  0.65390  0.46950  1.0000 0.1394663086
H   H36       1.0  0.26150  0.46950  0.65390  1.0000 0.1394663086
H   H37       1.0  0.65050  0.48090  0.55130  1.0000 0.1006464831
H   H38       1.0  0.31730  0.55130  0.48090  1.0000 0.1006464831
H   H39       1.0  0.59950  0.76910  0.69870  1.0000 0.1006464831
H   H40       1.0  0.93270  0.69870  0.76910  1.0000 0.1006464831
H   H41       1.0  0.82600  0.48520  0.49200  1.0000 0.1188859912
H   H42       1.0  0.19680  0.49200  0.48520  1.0000 0.1188859912
H   H43       1.0  0.42400  0.76480  0.75800  1.0000 0.1188859912
H   H44       1.0  0.05320  0.75800  0.76480  1.0000 0.1188859912
H   H45       1.0  0.74000  0.32940  0.47760  1.0000 0.1077699898
H   H46       1.0  0.45300  0.47760  0.32940  1.0000 0.1077699898
H   H47       1.0  0.51000  0.92060  0.77240  1.0000 0.1077699898
H   H48       1.0  0.79700  0.77240  0.92060  1.0000 0.1077699898
H   H49       1.0  0.64230  0.48690  0.35210  1.0000 0.1077699898
H   H50       1.0  0.51870  0.35210  0.48690  1.0000 0.1077699898
H   H51       1.0  0.60770  0.76310  0.89790  1.0000 0.1077699898
H   H52       1.0  0.73130  0.89790  0.76310  1.0000 0.1077699898
H   H53       1.0  0.75160  0.58280  0.56360  1.0000 0.1299314448
H   H54       1.0  0.10200  0.56360  0.58280  1.0000 0.1299314448
H   H55       1.0  0.49840  0.66720  0.68640  1.0000 0.1299314448
H   H56       1.0  0.14800  0.68640  0.66720  1.0000 0.1299314448
H   H57       1.0  0.57310  0.48890  0.35050  1.0000 0.1299314448
H   H58       1.0  0.58750  0.35050  0.48890  1.0000 0.1299314448
H   H59       1.0  0.67690  0.76110  0.89950  1.0000 0.1299314448
H   H60       1.0  0.66250  0.89950  0.76110  1.0000 0.1299314448
H   H61       1.0  0.67120  0.32980  0.47780  1.0000 0.1299314448
H   H62       1.0  0.52120  0.47780  0.32980  1.0000 0.1299314448
H   H63       1.0  0.57880  0.92020  0.77220  1.0000 0.1299314448
H   H64       1.0  0.72880  0.77220  0.92020  1.0000 0.1299314448
H   H65       1.0  0.23840  0.03280  0.05680  1.0000 0.1299314448
H   H66       1.0  0.67200  0.05680  0.03280  1.0000 0.1299314448
H   H67       1.0  0.01160  0.21720  0.19320  1.0000 0.1299314448
H   H68       1.0  0.57800  0.19320  0.21720  1.0000 0.1299314448
H   H69       1.0  0.32600  0.93960  0.11500  1.0000 0.1188859912
H   H70       1.0  0.61940  0.11500  0.93960  1.0000 0.1188859912
H   H71       1.0  0.92400  0.31040  0.13500  1.0000 0.1188859912
H   H72       1.0  0.63060  0.13500  0.31040  1.0000 0.1188859912
H   H73       1.0  0.09760  0.12600  0.24360  1.0000 0.1299314448
H   H74       1.0  0.53280  0.24360  0.12600  1.0000 0.1299314448
H   H75       1.0  0.15240  0.12400  0.00640  1.0000 0.1299314448
H   H76       1.0  0.71720  0.00640  0.12400  1.0000 0.1299314448
H   H77       1.0  0.19230  0.02730  0.30050  1.0000 0.1006464831
H   H78       1.0  0.47990  0.30050  0.02730  1.0000 0.1077699898
H   H79       1.0  0.05770  0.22270  0.94950  1.0000 0.1077699898
H   H80       1.0  0.77010  0.94950  0.22270  1.0000 0.1006464831
H   H81       1.0  0.51000  0.70180  0.07720  1.0000 0.1394663086
H   H82       1.0  0.71100  0.07720  0.70180  1.0000 0.1394663086
H   H83       1.0  0.74000  0.54820  0.17280  1.0000 0.1394663086
H   H84       1.0  0.53900  0.17280  0.54820  1.0000 0.1394663086
H   H85       1.0  0.41560  0.77800  0.16980  1.0000 0.1188859912
H   H86       1.0  0.63660  0.16980  0.77800  1.0000 0.1188859912
H   H87       1.0  0.83440  0.47200  0.08020  1.0000 0.1188859912
H   H88       1.0  0.61340  0.08020  0.47200  1.0000 0.1188859912
H   H89       1.0  0.54980  0.70000  0.34900  1.0000 0.1006464831
H   H90       1.0  0.40120  0.34900  0.70000  1.0000 0.1006464831
H   H91       1.0  0.70020  0.55000  0.90100  1.0000 0.1006464831
H   H92       1.0  0.84880  0.90100  0.55000  1.0000 0.1006464831
H   H93       1.0  0.67200  0.67660  0.02740  1.0000 0.1188859912
H   H94       1.0  0.62400  0.02740  0.67660  1.0000 0.1188859912
H   H95       1.0  0.57800  0.57340  0.22260  1.0000 0.1188859912
H   H96       1.0  0.62600  0.22260  0.57340  1.0000 0.1188859912
H   H97       1.0  0.59610  0.63490  0.98850  1.0000 0.1394663086
H   H98       1.0  0.78050  0.98850  0.63490  1.0000 0.1394663086
H   H99       1.0  0.65390  0.61510  0.26150  1.0000 0.1394663086
H   H100      1.0  0.46950  0.26150  0.61510  1.0000 0.1394663086
H   H101      1.0  0.48090  0.65050  0.31730  1.0000 0.1006464831
H   H102      1.0  0.55130  0.31730  0.65050  1.0000 0.1006464831
H   H103      1.0  0.76910  0.59950  0.93270  1.0000 0.1006464831
H   H104      1.0  0.69870  0.93270  0.59950  1.0000 0.1006464831
H   H105      1.0  0.48520  0.82600  0.19680  1.0000 0.1188859912
H   H106      1.0  0.49200  0.19680  0.82600  1.0000 0.1188859912
H   H107      1.0  0.76480  0.42400  0.05320  1.0000 0.1188859912
H   H108      1.0  0.75800  0.05320  0.42400  1.0000 0.1188859912
H   H109      1.0  0.32940  0.74000  0.45300  1.0000 0.1077699898
H   H110      1.0  0.47760  0.45300  0.74000  1.0000 0.1077699898
H   H111      1.0  0.92060  0.51000  0.79700  1.0000 0.1077699898
H   H112      1.0  0.77240  0.79700  0.51000  1.0000 0.1077699898
H   H113      1.0  0.48690  0.64230  0.51870  1.0000 0.1077699898
H   H114      1.0  0.35210  0.51870  0.64230  1.0000 0.1077699898
H   H115      1.0  0.76310  0.60770  0.73130  1.0000 0.1077699898
H   H116      1.0  0.89790  0.73130  0.60770  1.0000 0.1077699898
H   H117      1.0  0.58280  0.75160  0.10200  1.0000 0.1299314448
H   H118      1.0  0.56360  0.10200  0.75160  1.0000 0.1299314448
H   H119      1.0  0.66720  0.49840  0.14800  1.0000 0.1299314448
H   H120      1.0  0.68640  0.14800  0.49840  1.0000 0.1299314448
H   H121      1.0  0.48890  0.57310  0.58750  1.0000 0.1299314448
H   H122      1.0  0.35050  0.58750  0.57310  1.0000 0.1299314448
H   H123      1.0  0.76110  0.67690  0.66250  1.0000 0.1299314448
H   H124      1.0  0.89950  0.66250  0.67690  1.0000 0.1299314448
H   H125      1.0  0.32980  0.67120  0.52120  1.0000 0.1299314448
H   H126      1.0  0.47780  0.52120  0.67120  1.0000 0.1299314448
H   H127      1.0  0.92020  0.57880  0.72880  1.0000 0.1299314448
H   H128      1.0  0.77220  0.72880  0.57880  1.0000 0.1299314448
C   C1        1.0  0.03320  0.22620  0.63320  1.0000 -0.1920169303
C   C2        1.0  0.10740  0.63320  0.22620  1.0000 -0.1920169303
C   C3        1.0  0.21680  0.02380  0.61680  1.0000 -0.1920169303
C   C4        1.0  0.14260  0.61680  0.02380  1.0000 -0.1920169303
C   C5        1.0  0.09090  0.15570  0.61010  1.0000 0.1006464831
C   C6        1.0  0.14330  0.61010  0.15570  1.0000 0.1006464831
C   C7        1.0  0.15910  0.09430  0.63990  1.0000 0.1006464831
C   C8        1.0  0.10670  0.63990  0.09430  1.0000 0.1006464831
C   C9        1.0  0.97750  0.27850  0.60150  1.0000 0.0289818007
C   C10       1.0  0.14250  0.60150  0.27850  1.0000 0.0289818007
C   C11       1.0  0.27250  0.97150  0.64850  1.0000 0.0289818007
C   C12       1.0  0.10750  0.64850  0.97150  1.0000 0.0289818007
C   C13       1.0  0.08750  0.14450  0.55250  1.0000 -0.2096463995
C   C14       1.0  0.21550  0.55250  0.14450  1.0000 -0.2096463995
C   C15       1.0  0.16250  0.10550  0.69750  1.0000 -0.2096463995
C   C16       1.0  0.03450  0.69750  0.10550  1.0000 -0.2096463995
C   C17       1.0  0.02700  0.20220  0.52080  1.0000 0.0841196836
C   C18       1.0  0.25000  0.52080  0.20220  1.0000 0.0841196836
C   C19       1.0  0.22300  0.04780  0.72920  1.0000 0.0872386865
C   C20       1.0  0.00000  0.72920  0.04780  1.0000 0.0841196836
C   C21       1.0  0.66360  0.62440  0.69520  1.0000 0.0872386865
C   C22       1.0  0.01680  0.69520  0.62440  1.0000 0.0872386865
C   C23       1.0  0.58640  0.62560  0.55480  1.0000 0.0872386865
C   C24       1.0  0.23320  0.55480  0.62560  1.0000 0.0872386865
C   C25       1.0  0.71490  0.56010  0.64790  1.0000 0.1077699898
C   C26       1.0  0.07710  0.64790  0.56010  1.0000 0.1077699898
C   C27       1.0  0.53510  0.68990  0.60210  1.0000 0.1077699898
C   C28       1.0  0.17290  0.60210  0.68990  1.0000 0.1077699898
C   C29       1.0  0.72680  0.50660  0.66600  1.0000 -0.1920169303
C   C30       1.0  0.10060  0.66600  0.50660  1.0000 -0.1920169303
C   C31       1.0  0.52320  0.74340  0.58400  1.0000 -0.1920169303
C   C32       1.0  0.14940  0.58400  0.74340  1.0000 -0.1920169303
C   C33       1.0  0.61390  0.40990  0.40890  1.0000 0.1006464831
C   C34       1.0  0.56730  0.40890  0.40990  1.0000 0.1006464831
C   C35       1.0  0.63610  0.84010  0.84110  1.0000 0.1077699898
C   C36       1.0  0.68270  0.84110  0.84010  1.0000 0.1006464831
C   C37       1.0  0.77280  0.44980  0.62120  1.0000 0.0620939937
C   C38       1.0  0.15620  0.62120  0.44980  1.0000 0.0620939937
C   C39       1.0  0.47720  0.80020  0.62880  1.0000 0.0620939937
C   C40       1.0  0.09380  0.62880  0.80020  1.0000 0.0620939937
C   C41       1.0  0.67330  0.55530  0.44590  1.0000 0.0872386865
C   C42       1.0  0.32550  0.44590  0.55530  1.0000 0.0872386865
C   C43       1.0  0.57670  0.69470  0.80410  1.0000 0.0872386865
C   C44       1.0  0.92450  0.80410  0.69470  1.0000 0.0872386865
C   C45       1.0  0.65270  0.67610  0.67030  1.0000 -0.1920169303
C   C46       1.0  0.00090  0.67030  0.67610  1.0000 -0.1920169303
C   C47       1.0  0.59730  0.57390  0.57970  1.0000 -0.1920169303
C   C48       1.0  0.24910  0.57970  0.57390  1.0000 -0.1920169303
C   C49       1.0  0.62670  0.63210  0.76270  1.0000 -0.1780990655
C   C50       1.0  0.97850  0.76270  0.63210  1.0000 -0.1780990655
C   C51       1.0  0.62330  0.61790  0.48730  1.0000 -0.1780990655
C   C52       1.0  0.27150  0.48730  0.61790  1.0000 -0.1780990655
C   C53       1.0  0.64500  0.51520  0.53460  1.0000 -0.0039041161
C   C54       1.0  0.30520  0.53460  0.51520  1.0000 -0.0039041161
C   C55       1.0  0.60500  0.73480  0.71540  1.0000 -0.0039041161
C   C56       1.0  0.94480  0.71540  0.73480  1.0000 -0.0039041161
C   C57       1.0  0.80070  0.49030  0.53770  1.0000 0.0620939937
C   C58       1.0  0.17130  0.53770  0.49030  1.0000 0.0620939937
C   C59       1.0  0.44930  0.75970  0.71230  1.0000 0.0620939937
C   C60       1.0  0.07870  0.71230  0.75970  1.0000 0.0620939937
C   C61       1.0  0.70650  0.36250  0.44850  1.0000 0.0748538957
C   C62       1.0  0.48250  0.44850  0.36250  1.0000 0.0748538957
C   C63       1.0  0.54350  0.88750  0.80150  1.0000 0.0748538957
C   C64       1.0  0.76750  0.80150  0.88750  1.0000 0.0748538957
C   C65       1.0  0.65120  0.45160  0.37740  1.0000 0.0407004007
C   C66       1.0  0.51980  0.37740  0.45160  1.0000 0.0407004007
C   C67       1.0  0.59880  0.79840  0.87260  1.0000 0.0407004007
C   C68       1.0  0.73020  0.87260  0.79840  1.0000 0.0407004007
C   C69       1.0  0.75540  0.54980  0.57980  1.0000 -0.2025553076
C   C70       1.0  0.11500  0.57980  0.54980  1.0000 -0.2025553076
C   C71       1.0  0.49460  0.70020  0.67020  1.0000 -0.2025553076
C   C72       1.0  0.13500  0.67020  0.70020  1.0000 -0.2025553076
C   C73       1.0  0.60890  0.45290  0.37690  1.0000 -0.1920169303
C   C74       1.0  0.56130  0.37690  0.45290  1.0000 -0.1920169303
C   C75       1.0  0.64110  0.79710  0.87310  1.0000 -0.1920169303
C   C76       1.0  0.68870  0.87310  0.79710  1.0000 -0.1920169303
C   C77       1.0  0.66480  0.36260  0.44920  1.0000 -0.2436732142
C   C78       1.0  0.52340  0.44920  0.36260  1.0000 -0.2436732142
C   C79       1.0  0.58520  0.88740  0.80080  1.0000 -0.2436732142
C   C80       1.0  0.72660  0.80080  0.88740  1.0000 -0.2436732142
C   C81       1.0  0.22620  0.03320  0.10740  1.0000 -0.1920169303
C   C82       1.0  0.63320  0.10740  0.03320  1.0000 -0.1920169303
C   C83       1.0  0.02380  0.21680  0.14260  1.0000 -0.1920169303
C   C84       1.0  0.61680  0.14260  0.21680  1.0000 -0.1920169303
C   C85       1.0  0.15570  0.09090  0.14330  1.0000 0.1006464831
C   C86       1.0  0.61010  0.14330  0.09090  1.0000 0.1006464831
C   C87       1.0  0.09430  0.15910  0.10670  1.0000 0.1006464831
C   C88       1.0  0.63990  0.10670  0.15910  1.0000 0.1006464831
C   C89       1.0  0.27850  0.97750  0.14250  1.0000 0.0289818007
C   C90       1.0  0.60150  0.14250  0.97750  1.0000 0.0289818007
C   C91       1.0  0.97150  0.27250  0.10750  1.0000 0.0289818007
C   C92       1.0  0.64850  0.10750  0.27250  1.0000 0.0289818007
C   C93       1.0  0.14450  0.08750  0.21550  1.0000 -0.2096463995
C   C94       1.0  0.55250  0.21550  0.08750  1.0000 -0.2096463995
C   C95       1.0  0.10550  0.16250  0.03450  1.0000 -0.2096463995
C   C96       1.0  0.69750  0.03450  0.16250  1.0000 -0.2096463995
C   C97       1.0  0.20220  0.02700  0.25000  1.0000 0.0841196836
C   C98       1.0  0.52080  0.25000  0.02700  1.0000 0.0841196836
C   C99       1.0  0.04780  0.22300  0.00000  1.0000 0.0872386865
C   C100      1.0  0.72920  0.00000  0.22300  1.0000 0.0872386865
C   C101      1.0  0.62440  0.66360  0.01680  1.0000 0.0872386865
C   C102      1.0  0.69520  0.01680  0.66360  1.0000 0.0872386865
C   C103      1.0  0.62560  0.58640  0.23320  1.0000 0.0872386865
C   C104      1.0  0.55480  0.23320  0.58640  1.0000 0.0872386865
C   C105      1.0  0.56010  0.71490  0.07710  1.0000 0.1077699898
C   C106      1.0  0.64790  0.07710  0.71490  1.0000 0.1077699898
C   C107      1.0  0.68990  0.53510  0.17290  1.0000 0.1077699898
C   C108      1.0  0.60210  0.17290  0.53510  1.0000 0.1077699898
C   C109      1.0  0.50660  0.72680  0.10060  1.0000 -0.1920169303
C   C110      1.0  0.66600  0.10060  0.72680  1.0000 -0.1920169303
C   C111      1.0  0.74340  0.52320  0.14940  1.0000 -0.1920169303
C   C112      1.0  0.58400  0.14940  0.52320  1.0000 -0.1920169303
C   C113      1.0  0.40990  0.61390  0.56730  1.0000 0.1006464831
C   C114      1.0  0.40890  0.56730  0.61390  1.0000 0.1006464831
C   C115      1.0  0.84010  0.63610  0.68270  1.0000 0.1006464831
C   C116      1.0  0.84110  0.68270  0.63610  1.0000 0.1006464831
C   C117      1.0  0.44980  0.77280  0.15620  1.0000 0.0620939937
C   C118      1.0  0.62120  0.15620  0.77280  1.0000 0.0620939937
C   C119      1.0  0.80020  0.47720  0.09380  1.0000 0.0620939937
C   C120      1.0  0.62880  0.09380  0.47720  1.0000 0.0620939937
C   C121      1.0  0.55530  0.67330  0.32550  1.0000 0.0872386865
C   C122      1.0  0.44590  0.32550  0.67330  1.0000 0.0872386865
C   C123      1.0  0.69470  0.57670  0.92450  1.0000 0.0872386865
C   C124      1.0  0.80410  0.92450  0.57670  1.0000 0.0872386865
C   C125      1.0  0.67610  0.65270  0.00090  1.0000 -0.1920169303
C   C126      1.0  0.67030  0.00090  0.65270  1.0000 -0.1920169303
C   C127      1.0  0.57390  0.59730  0.24910  1.0000 -0.1920169303
C   C128      1.0  0.57970  0.24910  0.59730  1.0000 -0.1920169303
C   C129      1.0  0.63210  0.62670  0.97850  1.0000 -0.1780990655
C   C130      1.0  0.76270  0.97850  0.62670  1.0000 -0.1780990655
C   C131      1.0  0.61790  0.62330  0.27150  1.0000 -0.1780990655
C   C132      1.0  0.48730  0.27150  0.62330  1.0000 -0.1780990655
C   C133      1.0  0.51520  0.64500  0.30520  1.0000 -0.0039041161
C   C134      1.0  0.53460  0.30520  0.64500  1.0000 -0.0039041161
C   C135      1.0  0.73480  0.60500  0.94480  1.0000 -0.0039041161
C   C136      1.0  0.71540  0.94480  0.60500  1.0000 -0.0039041161
C   C137      1.0  0.49030  0.80070  0.17130  1.0000 0.0620939937
C   C138      1.0  0.53770  0.17130  0.80070  1.0000 0.0620939937
C   C139      1.0  0.75970  0.44930  0.07870  1.0000 0.0620939937
C   C140      1.0  0.71230  0.07870  0.44930  1.0000 0.0620939937
C   C141      1.0  0.36250  0.70650  0.48250  1.0000 0.0748538957
C   C142      1.0  0.44850  0.48250  0.70650  1.0000 0.0748538957
C   C143      1.0  0.88750  0.54350  0.76750  1.0000 0.0748538957
C   C144      1.0  0.80150  0.76750  0.54350  1.0000 0.0748538957
C   C145      1.0  0.45160  0.65120  0.51980  1.0000 0.0407004007
C   C146      1.0  0.37740  0.51980  0.65120  1.0000 0.0407004007
C   C147      1.0  0.79840  0.59880  0.73020  1.0000 0.0407004007
C   C148      1.0  0.87260  0.73020  0.59880  1.0000 0.0407004007
C   C149      1.0  0.54980  0.75540  0.11500  1.0000 -0.2025553076
C   C150      1.0  0.57980  0.11500  0.75540  1.0000 -0.2025553076
C   C151      1.0  0.70020  0.49460  0.13500  1.0000 -0.2025553076
C   C152      1.0  0.67020  0.13500  0.49460  1.0000 -0.2025553076
C   C153      1.0  0.45290  0.60890  0.56130  1.0000 -0.1920169303
C   C154      1.0  0.37690  0.56130  0.60890  1.0000 -0.1920169303
C   C155      1.0  0.79710  0.64110  0.68870  1.0000 -0.1920169303
C   C156      1.0  0.87310  0.68870  0.64110  1.0000 -0.1920169303
C   C157      1.0  0.36260  0.66480  0.52340  1.0000 -0.2436732142
C   C158      1.0  0.44920  0.52340  0.66480  1.0000 -0.2436732142
C   C159      1.0  0.88740  0.58520  0.72660  1.0000 -0.2436732142
C   C160      1.0  0.80080  0.72660  0.58520  1.0000 -0.2436732142
S   S1        1.0  0.82150  0.39596  0.29698  1.0000 -0.5678746565
S   S2        1.0  0.48556  0.29698  0.39596  1.0000 -0.5678746565
S   S3        1.0  0.42850  0.85404  0.95302  1.0000 -0.5678746565
S   S4        1.0  0.76444  0.95302  0.85404  1.0000 -0.5678746565
S   S5        1.0  0.85322  0.31300  0.47508  1.0000 -0.5475714667
S   S6        1.0  0.35870  0.47508  0.31300  1.0000 -0.5475714667
S   S7        1.0  0.39678  0.93700  0.77492  1.0000 -0.5475714667
S   S8        1.0  0.89130  0.77492  0.93700  1.0000 -0.5475714667
S   S9        1.0  0.93676  0.35214  0.38050  1.0000 -0.5393549702
S   S10       1.0  0.33060  0.38050  0.35214  1.0000 -0.5393549702
S   S11       1.0  0.31324  0.89786  0.86950  1.0000 -0.5393549702
S   S12       1.0  0.91940  0.86950  0.89786  1.0000 -0.5393549702
S   S13       1.0  0.39596  0.82150  0.48556  1.0000 -0.5678746565
S   S14       1.0  0.29698  0.48556  0.82150  1.0000 -0.5678746565
S   S15       1.0  0.85404  0.42850  0.76444  1.0000 -0.5678746565
S   S16       1.0  0.95302  0.76444  0.42850  1.0000 -0.5678746565
S   S17       1.0  0.31300  0.85322  0.35870  1.0000 -0.5475714667
S   S18       1.0  0.47508  0.35870  0.85322  1.0000 -0.5475714667
S   S19       1.0  0.93700  0.39678  0.89130  1.0000 -0.5475714667
S   S20       1.0  0.77492  0.89130  0.39678  1.0000 -0.5475714667
S   S21       1.0  0.35214  0.93676  0.33060  1.0000 -0.5393549702
S   S22       1.0  0.38050  0.33060  0.93676  1.0000 -0.5393549702
S   S23       1.0  0.89786  0.31324  0.91940  1.0000 -0.5393549702
S   S24       1.0  0.86950  0.91940  0.31324  1.0000 -0.5393549702
N   N1        1.0  0.81138  0.43898  0.55682  1.0000 -0.1780990655
N   N2        1.0  0.19282  0.55682  0.43898  1.0000 -0.1780990655
N   N3        1.0  0.43862  0.81102  0.69318  1.0000 -0.1780990655
N   N4        1.0  0.05718  0.69318  0.81102  1.0000 -0.1780990655
N   N5        1.0  0.97217  0.26737  0.54603  1.0000 -0.1674329301
N   N6        1.0  0.21443  0.54603  0.26737  1.0000 -0.1674329301
N   N7        1.0  0.27783  0.98263  0.70397  1.0000 -0.1674329301
N   N8        1.0  0.03557  0.70397  0.98263  1.0000 -0.1674329301
N   N9        1.0  0.68635  0.50215  0.46505  1.0000 -0.2265785462
N   N10       1.0  0.34645  0.46505  0.50215  1.0000 -0.2265785462
N   N11       1.0  0.56365  0.74785  0.78495  1.0000 -0.2265785462
N   N12       1.0  0.90355  0.78495  0.74785  1.0000 -0.2265785462
N   N13       1.0  0.70336  0.40356  0.41144  1.0000 -0.1674329301
N   N14       1.0  0.48164  0.41144  0.40356  1.0000 -0.1674329301
N   N15       1.0  0.54664  0.84644  0.83856  1.0000 -0.1640767022
N   N16       1.0  0.76836  0.83856  0.84644  1.0000 -0.1674329301
N   N17       1.0  0.43898  0.81138  0.19282  1.0000 -0.1780990655
N   N18       1.0  0.55682  0.19282  0.81138  1.0000 -0.1780990655
N   N19       1.0  0.81102  0.43862  0.05718  1.0000 -0.1780990655
N   N20       1.0  0.69318  0.05718  0.43862  1.0000 -0.1780990655
N   N21       1.0  0.26737  0.97217  0.21443  1.0000 -0.1674329301
N   N22       1.0  0.54603  0.21443  0.97217  1.0000 -0.1674329301
N   N23       1.0  0.98263  0.27783  0.03557  1.0000 -0.1674329301
N   N24       1.0  0.70397  0.03557  0.27783  1.0000 -0.1674329301
N   N25       1.0  0.50215  0.68635  0.34645  1.0000 -0.2265785462
N   N26       1.0  0.46505  0.34645  0.68635  1.0000 -0.2265785462
N   N27       1.0  0.74785  0.56365  0.90355  1.0000 -0.2265785462
N   N28       1.0  0.78495  0.90355  0.56365  1.0000 -0.2265785462
N   N29       1.0  0.40356  0.70336  0.48164  1.0000 -0.1640767022
N   N30       1.0  0.41144  0.48164  0.70336  1.0000 -0.1674329301
N   N31       1.0  0.84644  0.54664  0.76836  1.0000 -0.1674329301
N   N32       1.0  0.83856  0.76836  0.54664  1.0000 -0.1674329301
Cl  Cl1       1.0  0.79069  0.54603  0.29177  1.0000 -0.5393549702
Cl  Cl2       1.0  0.37151  0.29177  0.54603  1.0000 -0.5393549702
Cl  Cl3       1.0  0.45931  0.70397  0.95823  1.0000 -0.5393549702
Cl  Cl4       1.0  0.87849  0.95823  0.70397  1.0000 -0.5393549702
Cl  Cl5       1.0  0.54603  0.79069  0.37151  1.0000 -0.5393549702
Cl  Cl6       1.0  0.29177  0.37151  0.79069  1.0000 -0.5393549702
Cl  Cl7       1.0  0.70397  0.45931  0.87849  1.0000 -0.5393549702
Cl  Cl8       1.0  0.95823  0.87849  0.45931  1.0000 -0.5393549702
