# DDEC6 charges by PACMAN v1.1 (https://github.com/mtap-research/PACMAN-charge/)
data_2011[V][bpq]3[ASR]1
_chemical_formula_sum              "V4 H32 C40 O20"
_cell_length_a       6.7507
_cell_length_b       12.9232
_cell_length_c       16.9798
_cell_angle_alpha    90
_cell_angle_beta     90
_cell_angle_gamma    90

_symmetry_space_group_name_H-M    "P 1"
_symmetry_Int_Tables_number       1

loop_
  _symmetry_equiv_pos_as_xyz
  'x, y, z'

loop_
  _atom_site_type_symbol
  _atom_site_label
  _atom_site_symmetry_multiplicity
  _atom_site_fract_x
  _atom_site_fract_y
  _atom_site_fract_z
  _atom_site_occupancy
  _atom_site_charge
V   V1        1.0  0.70470  0.26655  0.25000  1.0000 1.7965338286
V   V2        1.0  0.79530  0.76655  0.75000  1.0000 1.7965338286
V   V3        1.0  0.29530  0.73345  0.75000  1.0000 1.7965338286
V   V4        1.0  0.20470  0.23345  0.25000  1.0000 1.7965338286
H   H1        1.0  0.24440  0.99410  0.08790  1.0000 0.1337184962
H   H2        1.0  0.25560  0.49410  0.91210  1.0000 0.1337184962
H   H3        1.0  0.75560  0.00590  0.58790  1.0000 0.1337184962
H   H4        1.0  0.74440  0.50590  0.41210  1.0000 0.1337184962
H   H5        1.0  0.75560  0.00590  0.91210  1.0000 0.1337184962
H   H6        1.0  0.74440  0.50590  0.08790  1.0000 0.1337184962
H   H7        1.0  0.24440  0.99410  0.41210  1.0000 0.1337184962
H   H8        1.0  0.25560  0.49410  0.58790  1.0000 0.1337184962
H   H9        1.0  0.81610  0.18640  0.06580  1.0000 0.1531002987
H   H10       1.0  0.68390  0.68640  0.93420  1.0000 0.1531002987
H   H11       1.0  0.18390  0.81360  0.56580  1.0000 0.1531002987
H   H12       1.0  0.31610  0.31360  0.43420  1.0000 0.1531002987
H   H13       1.0  0.18390  0.81360  0.93420  1.0000 0.1531002987
H   H14       1.0  0.31610  0.31360  0.06580  1.0000 0.1531002987
H   H15       1.0  0.81610  0.18640  0.43420  1.0000 0.1531002987
H   H16       1.0  0.68390  0.68640  0.56580  1.0000 0.1531002987
H   H17       1.0  0.95350  0.10890  0.02050  1.0000 0.1400033515
H   H18       1.0  0.54650  0.60890  0.97950  1.0000 0.1400033515
H   H19       1.0  0.04650  0.89110  0.52050  1.0000 0.1400033515
H   H20       1.0  0.45350  0.39110  0.47950  1.0000 0.1400033515
H   H21       1.0  0.04650  0.89110  0.97950  1.0000 0.1400033515
H   H22       1.0  0.45350  0.39110  0.02050  1.0000 0.1400033515
H   H23       1.0  0.95350  0.10890  0.47950  1.0000 0.1400033515
H   H24       1.0  0.54650  0.60890  0.52050  1.0000 0.1400033515
H   H25       1.0  0.83150  0.19190  0.97380  1.0000 0.1400033515
H   H26       1.0  0.66850  0.69190  0.02620  1.0000 0.1400033515
H   H27       1.0  0.16850  0.80810  0.47380  1.0000 0.1400033515
H   H28       1.0  0.33150  0.30810  0.52620  1.0000 0.1400033515
H   H29       1.0  0.16850  0.80810  0.02620  1.0000 0.1400033515
H   H30       1.0  0.33150  0.30810  0.97380  1.0000 0.1400033515
H   H31       1.0  0.83150  0.19190  0.52620  1.0000 0.1400033515
H   H32       1.0  0.66850  0.69190  0.47380  1.0000 0.1400033515
C   C1        1.0  0.50200  0.06370  0.06600  1.0000 -0.0767769292
C   C2        1.0  0.99800  0.56370  0.93400  1.0000 -0.0767769292
C   C3        1.0  0.49800  0.93630  0.56600  1.0000 -0.0767769292
C   C4        1.0  0.00200  0.43630  0.43400  1.0000 -0.0767769292
C   C5        1.0  0.49800  0.93630  0.93400  1.0000 -0.0767769292
C   C6        1.0  0.00200  0.43630  0.06600  1.0000 -0.0767769292
C   C7        1.0  0.50200  0.06370  0.43400  1.0000 -0.0767769292
C   C8        1.0  0.99800  0.56370  0.56600  1.0000 -0.0767769292
C   C9        1.0  0.65980  0.07090  0.01140  1.0000 0.1687042173
C   C10       1.0  0.84020  0.57090  0.98860  1.0000 0.1687042173
C   C11       1.0  0.34020  0.92910  0.51140  1.0000 0.1687042173
C   C12       1.0  0.15980  0.42910  0.48860  1.0000 0.1687042173
C   C13       1.0  0.34020  0.92910  0.98860  1.0000 0.1687042173
C   C14       1.0  0.15980  0.42910  0.01140  1.0000 0.1687042173
C   C15       1.0  0.65980  0.07090  0.48860  1.0000 0.1687042173
C   C16       1.0  0.84020  0.57090  0.51140  1.0000 0.1687042173
C   C17       1.0  0.34870  0.99550  0.05220  1.0000 -0.1805209331
C   C18       1.0  0.15130  0.49550  0.94780  1.0000 -0.1805209331
C   C19       1.0  0.65130  0.00450  0.55220  1.0000 -0.1805209331
C   C20       1.0  0.84870  0.50450  0.44780  1.0000 -0.1805209331
C   C21       1.0  0.65130  0.00450  0.94780  1.0000 -0.1805209331
C   C22       1.0  0.84870  0.50450  0.05220  1.0000 -0.1805209331
C   C23       1.0  0.34870  0.99550  0.44780  1.0000 -0.1805209331
C   C24       1.0  0.15130  0.49550  0.55220  1.0000 -0.1805209331
C   C25       1.0  0.49250  0.12890  0.13920  1.0000 0.6273165998
C   C26       1.0  0.00750  0.62890  0.86080  1.0000 0.6273165998
C   C27       1.0  0.50750  0.87110  0.63920  1.0000 0.6273165998
C   C28       1.0  0.99250  0.37110  0.36080  1.0000 0.6273165998
C   C29       1.0  0.50750  0.87110  0.86080  1.0000 0.6273165998
C   C30       1.0  0.99250  0.37110  0.13920  1.0000 0.6273165998
C   C31       1.0  0.49250  0.12890  0.36080  1.0000 0.6273165998
C   C32       1.0  0.00750  0.62890  0.63920  1.0000 0.6273165998
C   C33       1.0  0.83100  0.14650  0.01850  1.0000 -0.4630718883
C   C34       1.0  0.66900  0.64650  0.98150  1.0000 -0.4630718883
C   C35       1.0  0.16900  0.85350  0.51850  1.0000 -0.4630718883
C   C36       1.0  0.33100  0.35350  0.48150  1.0000 -0.4630718883
C   C37       1.0  0.16900  0.85350  0.98150  1.0000 -0.4630718883
C   C38       1.0  0.33100  0.35350  0.01850  1.0000 -0.4630718883
C   C39       1.0  0.83100  0.14650  0.48150  1.0000 -0.4630718883
C   C40       1.0  0.66900  0.64650  0.51850  1.0000 -0.4630718883
O   O1        1.0  0.65290  0.16430  0.16640  1.0000 -0.5557966176
O   O2        1.0  0.84710  0.66430  0.83360  1.0000 -0.5557966176
O   O3        1.0  0.34710  0.83570  0.66640  1.0000 -0.5557966176
O   O4        1.0  0.15290  0.33570  0.33360  1.0000 -0.5557966176
O   O5        1.0  0.34710  0.83570  0.83360  1.0000 -0.5557966176
O   O6        1.0  0.15290  0.33570  0.16640  1.0000 -0.5557966176
O   O7        1.0  0.65290  0.16430  0.33360  1.0000 -0.5557966176
O   O8        1.0  0.84710  0.66430  0.66640  1.0000 -0.5557966176
O   O9        1.0  0.32220  0.14650  0.16740  1.0000 -0.6053087357
O   O10       1.0  0.17780  0.64650  0.83260  1.0000 -0.6053087357
O   O11       1.0  0.67780  0.85350  0.66740  1.0000 -0.6053087357
O   O12       1.0  0.82220  0.35350  0.33260  1.0000 -0.6053087357
O   O13       1.0  0.67780  0.85350  0.83260  1.0000 -0.6045884136
O   O14       1.0  0.82220  0.35350  0.16740  1.0000 -0.6045884136
O   O15       1.0  0.32220  0.14650  0.33260  1.0000 -0.6053087357
O   O16       1.0  0.17780  0.64650  0.66740  1.0000 -0.6053087357
O   O17       1.0  0.48250  0.31340  0.25000  1.0000 -0.7596364115
O   O18       1.0  0.01750  0.81340  0.75000  1.0000 -0.7596364115
O   O19       1.0  0.51750  0.68660  0.75000  1.0000 -0.7596364115
O   O20       1.0  0.98250  0.18660  0.25000  1.0000 -0.7596364115
