# DDEC6 charges by PACMAN v1.1 (https://github.com/mtap-research/PACMAN-charge/)
data_2011[Cu][nan]3[ASR]3
_chemical_formula_sum              "Cu4 H68 C92 N24 O16"
_cell_length_a       15.4228
_cell_length_b       15.4228
_cell_length_c       17.686
_cell_angle_alpha    65.9054
_cell_angle_beta     114.095
_cell_angle_gamma    136.004

_symmetry_space_group_name_H-M    "P 1"
_symmetry_Int_Tables_number       1

loop_
  _symmetry_equiv_pos_as_xyz
  'x, y, z'

loop_
  _atom_site_type_symbol
  _atom_site_label
  _atom_site_symmetry_multiplicity
  _atom_site_fract_x
  _atom_site_fract_y
  _atom_site_fract_z
  _atom_site_occupancy
  _atom_site_charge
Cu  Cu1       1.0  0.76459  0.16277  0.77019  1.0000 0.7376437621
Cu  Cu2       1.0  0.16277  0.76459  0.72981  1.0000 0.7376437621
Cu  Cu3       1.0  0.23541  0.83723  0.22981  1.0000 0.7376437621
Cu  Cu4       1.0  0.83723  0.23541  0.27019  1.0000 0.7376437621
H   H1        1.0  0.64430  0.10650  0.57780  1.0000 0.1113751815
H   H2        1.0  0.10650  0.64430  0.92220  1.0000 0.1113751815
H   H3        1.0  0.35570  0.89350  0.42220  1.0000 0.1113751815
H   H4        1.0  0.89350  0.35570  0.07780  1.0000 0.1113751815
H   H5        1.0  0.52880  0.87820  0.78480  1.0000 0.1317531542
H   H6        1.0  0.87820  0.52880  0.71520  1.0000 0.1317531542
H   H7        1.0  0.47120  0.12180  0.21520  1.0000 0.1317531542
H   H8        1.0  0.12180  0.47120  0.28480  1.0000 0.1317531542
H   H9        1.0  0.33360  0.66960  0.72600  1.0000 0.1317531542
H   H10       1.0  0.66960  0.33360  0.77400  1.0000 0.1317531542
H   H11       1.0  0.66640  0.33040  0.27400  1.0000 0.1317531542
H   H12       1.0  0.33040  0.66640  0.22600  1.0000 0.1317531542
H   H13       1.0  0.28310  0.69270  0.62970  1.0000 0.139054754
H   H14       1.0  0.69270  0.28310  0.87030  1.0000 0.139054754
H   H15       1.0  0.71690  0.30730  0.37030  1.0000 0.139054754
H   H16       1.0  0.30730  0.71690  0.12970  1.0000 0.139054754
H   H17       1.0  0.57860  0.77580  0.68660  1.0000 0.1193919328
H   H18       1.0  0.77580  0.57860  0.81340  1.0000 0.1193919328
H   H19       1.0  0.42140  0.22420  0.31340  1.0000 0.1193919328
H   H20       1.0  0.22420  0.42140  0.18660  1.0000 0.1193919328
H   H21       1.0  0.61870  0.67030  0.66550  1.0000 0.1113751815
H   H22       1.0  0.67030  0.61870  0.83450  1.0000 0.1113751815
H   H23       1.0  0.38130  0.32970  0.33450  1.0000 0.1113751815
H   H24       1.0  0.32970  0.38130  0.16550  1.0000 0.1113751815
H   H25       1.0  0.24930  0.40190  0.58500  1.0000 0.1193919328
H   H26       1.0  0.40190  0.24930  0.91500  1.0000 0.1193919328
H   H27       1.0  0.75070  0.59810  0.41500  1.0000 0.1193919328
H   H28       1.0  0.59810  0.75070  0.08500  1.0000 0.1193919328
H   H29       1.0  0.20920  0.50640  0.60730  1.0000 0.1193919328
H   H30       1.0  0.50640  0.20920  0.89270  1.0000 0.1193919328
H   H31       1.0  0.79080  0.49360  0.39270  1.0000 0.1193919328
H   H32       1.0  0.49360  0.79080  0.10730  1.0000 0.1193919328
H   H33       1.0  0.64600  0.59280  0.60770  1.0000 0.1193919328
H   H34       1.0  0.59280  0.64600  0.89230  1.0000 0.1193919328
H   H35       1.0  0.35400  0.40720  0.39230  1.0000 0.1193919328
H   H36       1.0  0.40720  0.35400  0.10770  1.0000 0.1193919328
H   H37       1.0  0.67850  0.47850  0.58780  1.0000 0.1317531542
H   H38       1.0  0.47850  0.67850  0.91220  1.0000 0.1317531542
H   H39       1.0  0.32150  0.52150  0.41220  1.0000 0.1317531542
H   H40       1.0  0.52150  0.32150  0.08780  1.0000 0.1317531542
H   H41       1.0  0.31730  0.16710  0.59840  1.0000 0.1193919328
H   H42       1.0  0.16710  0.31730  0.90160  1.0000 0.1193919328
H   H43       1.0  0.68270  0.83290  0.40160  1.0000 0.1193919328
H   H44       1.0  0.83290  0.68270  0.09840  1.0000 0.1193919328
H   H45       1.0  0.28730  0.27810  0.62170  1.0000 0.1193919328
H   H46       1.0  0.27810  0.28730  0.87830  1.0000 0.1193919328
H   H47       1.0  0.71270  0.72190  0.37830  1.0000 0.1193919328
H   H48       1.0  0.72190  0.71270  0.12170  1.0000 0.1193919328
H   H49       1.0  0.60340  0.26100  0.61340  1.0000 0.139054754
H   H50       1.0  0.26100  0.60340  0.88660  1.0000 0.139054754
H   H51       1.0  0.39660  0.73900  0.38660  1.0000 0.139054754
H   H52       1.0  0.73900  0.39660  0.11340  1.0000 0.139054754
H   H53       1.0  0.54110  0.27210  0.51840  1.0000 0.1317531542
H   H54       1.0  0.27210  0.54110  0.98160  1.0000 0.1317531542
H   H55       1.0  0.45890  0.72790  0.48160  1.0000 0.1317531542
H   H56       1.0  0.72790  0.45890  0.01840  1.0000 0.1317531542
H   H57       1.0  0.42640  0.04580  0.71300  1.0000 0.1317531542
H   H58       1.0  0.04580  0.42640  0.78700  1.0000 0.1317531542
H   H59       1.0  0.57360  0.95420  0.28700  1.0000 0.1317531542
H   H60       1.0  0.95420  0.57360  0.21300  1.0000 0.1317531542
H   H61       1.0  0.17790  0.85230  0.53460  1.0000 0.1113751815
H   H62       1.0  0.85230  0.17790  0.96540  1.0000 0.1113751815
H   H63       1.0  0.82210  0.14770  0.46540  1.0000 0.1113751815
H   H64       1.0  0.14770  0.82210  0.03460  1.0000 0.1113751815
H   H65       1.0  0.90230  0.28870  0.54030  1.0000 0.1193919328
H   H66       1.0  0.28870  0.90230  0.95970  1.0000 0.1193919328
H   H67       1.0  0.09770  0.71130  0.45970  1.0000 0.1193919328
H   H68       1.0  0.71130  0.09770  0.04030  1.0000 0.1193919328
C   C1        1.0  0.59740  0.03240  0.61600  1.0000 0.1573341661
C   C2        1.0  0.03240  0.59740  0.88400  1.0000 0.1573341661
C   C3        1.0  0.40260  0.96760  0.38400  1.0000 0.1573341661
C   C4        1.0  0.96760  0.40260  0.11600  1.0000 0.1573341661
C   C5        1.0  0.53710  0.91170  0.72850  1.0000 0.1033394398
C   C6        1.0  0.91170  0.53710  0.77150  1.0000 0.1033394398
C   C7        1.0  0.46290  0.08830  0.27150  1.0000 0.1033394398
C   C8        1.0  0.08830  0.46290  0.22850  1.0000 0.1033394398
C   C9        1.0  0.35640  0.70840  0.67060  1.0000 -0.1989855295
C   C10       1.0  0.70840  0.35640  0.82940  1.0000 -0.1989855295
C   C11       1.0  0.64360  0.29160  0.32940  1.0000 -0.1989855295
C   C12       1.0  0.29160  0.64360  0.17060  1.0000 -0.1989855295
C   C13       1.0  0.38750  0.64810  0.65390  1.0000 0.0896329829
C   C14       1.0  0.64810  0.38750  0.84610  1.0000 0.0896329829
C   C15       1.0  0.61250  0.35190  0.34610  1.0000 0.0896329829
C   C16       1.0  0.35190  0.61250  0.15390  1.0000 0.0896329829
C   C17       1.0  0.51130  0.69850  0.66820  1.0000 -0.1528545781
C   C18       1.0  0.69850  0.51130  0.83180  1.0000 -0.1528545781
C   C19       1.0  0.48870  0.30150  0.33180  1.0000 -0.1528545781
C   C20       1.0  0.30150  0.48870  0.16820  1.0000 -0.1528545781
C   C21       1.0  0.53530  0.63510  0.65540  1.0000 -0.1411588653
C   C22       1.0  0.63510  0.53530  0.84460  1.0000 -0.1411588653
C   C23       1.0  0.46470  0.36490  0.34460  1.0000 -0.1411588653
C   C24       1.0  0.36490  0.46470  0.15540  1.0000 -0.1411588653
C   C25       1.0  0.43690  0.51930  0.62760  1.0000 0.0603760616
C   C26       1.0  0.51930  0.43690  0.87240  1.0000 0.0603760616
C   C27       1.0  0.56310  0.48070  0.37240  1.0000 0.0603760616
C   C28       1.0  0.48070  0.56310  0.12760  1.0000 0.0603760616
C   C29       1.0  0.31610  0.47550  0.60780  1.0000 -0.1347960098
C   C30       1.0  0.47550  0.31610  0.89220  1.0000 -0.1347960098
C   C31       1.0  0.68390  0.52450  0.39220  1.0000 -0.1347960098
C   C32       1.0  0.52450  0.68390  0.10780  1.0000 -0.1347960098
C   C33       1.0  0.29200  0.53880  0.62100  1.0000 -0.1411588653
C   C34       1.0  0.53880  0.29200  0.87900  1.0000 -0.1411588653
C   C35       1.0  0.70800  0.46120  0.37900  1.0000 -0.1411588653
C   C36       1.0  0.46120  0.70800  0.12100  1.0000 -0.1411588653
C   C37       1.0  0.46180  0.44880  0.61550  1.0000 0.0603760616
C   C38       1.0  0.44880  0.46180  0.88450  1.0000 0.0603760616
C   C39       1.0  0.53820  0.55120  0.38450  1.0000 0.0603760616
C   C40       1.0  0.55120  0.53820  0.11550  1.0000 0.0603760616
C   C41       1.0  0.57890  0.50670  0.60610  1.0000 -0.1411588653
C   C42       1.0  0.50670  0.57890  0.89390  1.0000 -0.1411588653
C   C43       1.0  0.42110  0.49330  0.39390  1.0000 -0.1411588653
C   C44       1.0  0.49330  0.42110  0.10610  1.0000 -0.1411588653
C   C45       1.0  0.59850  0.43750  0.59400  1.0000 -0.1411588653
C   C46       1.0  0.43750  0.59850  0.90600  1.0000 -0.1411588653
C   C47       1.0  0.40150  0.56250  0.40600  1.0000 -0.1411588653
C   C48       1.0  0.56250  0.40150  0.09400  1.0000 -0.1411588653
C   C49       1.0  0.50320  0.31240  0.59140  1.0000 0.0896329829
C   C50       1.0  0.31240  0.50320  0.90860  1.0000 0.0896329829
C   C51       1.0  0.49680  0.68760  0.40860  1.0000 0.0896329829
C   C52       1.0  0.68760  0.49680  0.09140  1.0000 0.0896329829
C   C53       1.0  0.38470  0.25290  0.60090  1.0000 -0.1528545781
C   C54       1.0  0.25290  0.38470  0.89910  1.0000 -0.1528545781
C   C55       1.0  0.61530  0.74710  0.39910  1.0000 -0.1528545781
C   C56       1.0  0.74710  0.61530  0.10090  1.0000 -0.1528545781
C   C57       1.0  0.36690  0.32050  0.61370  1.0000 -0.1411588653
C   C58       1.0  0.32050  0.36690  0.88630  1.0000 -0.1411588653
C   C59       1.0  0.63310  0.67950  0.38630  1.0000 -0.1411588653
C   C60       1.0  0.67950  0.63310  0.11370  1.0000 -0.1411588653
C   C61       1.0  0.52700  0.24220  0.57580  1.0000 -0.1989855295
C   C62       1.0  0.24220  0.52700  0.92420  1.0000 -0.1989855295
C   C63       1.0  0.47300  0.75780  0.42420  1.0000 -0.1989855295
C   C64       1.0  0.75780  0.47300  0.07580  1.0000 -0.1989855295
C   C65       1.0  0.38170  0.02410  0.65990  1.0000 0.1113751815
C   C66       1.0  0.02410  0.38170  0.84010  1.0000 0.1113751815
C   C67       1.0  0.61830  0.97590  0.34010  1.0000 0.1113751815
C   C68       1.0  0.97590  0.61830  0.15990  1.0000 0.1113751815
C   C69       1.0  0.24590  0.91990  0.56310  1.0000 0.139054754
C   C70       1.0  0.91990  0.24590  0.93690  1.0000 0.139054754
C   C71       1.0  0.75410  0.08010  0.43690  1.0000 0.139054754
C   C72       1.0  0.08010  0.75410  0.06310  1.0000 0.139054754
C   C73       1.0  0.87500  0.34860  0.64400  1.0000 0.5308661298
C   C74       1.0  0.34860  0.87500  0.85600  1.0000 0.5308661298
C   C75       1.0  0.12500  0.65140  0.35600  1.0000 0.5308661298
C   C76       1.0  0.65140  0.12500  0.14400  1.0000 0.5308661298
C   C77       1.0  0.94140  0.42780  0.57110  1.0000 -0.0415975056
C   C78       1.0  0.42780  0.94140  0.92890  1.0000 -0.0415975056
C   C79       1.0  0.05860  0.57220  0.42890  1.0000 -0.0415975056
C   C80       1.0  0.57220  0.05860  0.07110  1.0000 -0.0415975056
C   C81       1.0  0.00220  0.55600  0.54660  1.0000 -0.0163967595
C   C82       1.0  0.55600  0.00220  0.95340  1.0000 -0.0163967595
C   C83       1.0  0.99780  0.44400  0.45340  1.0000 -0.0163967595
C   C84       1.0  0.44400  0.99780  0.04660  1.0000 -0.0163967595
C   C85       1.0  0.94140  0.37380  0.52390  1.0000 -0.1575235366
C   C86       1.0  0.37380  0.94140  0.97610  1.0000 -0.1575235366
C   C87       1.0  0.05860  0.62620  0.47610  1.0000 -0.1575235366
C   C88       1.0  0.62620  0.05860  0.02390  1.0000 -0.1575235366
C   C89       1.0  0.01560  0.62580  0.59680  1.0000 0.542307003
C   C90       1.0  0.62580  0.01560  0.90320  1.0000 0.542307003
C   C91       1.0  0.98440  0.37420  0.40320  1.0000 0.542307003
C   C92       1.0  0.37420  0.98440  0.09680  1.0000 0.542307003
N   N1        1.0  0.62559  0.03081  0.69930  1.0000 -0.3391450806
N   N2        1.0  0.03081  0.62559  0.80070  1.0000 -0.3391450806
N   N3        1.0  0.37441  0.96919  0.30070  1.0000 -0.3391450806
N   N4        1.0  0.96919  0.37441  0.19930  1.0000 -0.3391450806
N   N5        1.0  0.50010  0.92330  0.59340  1.0000 -0.2518787845
N   N6        1.0  0.92330  0.50010  0.90660  1.0000 -0.2518787845
N   N7        1.0  0.49990  0.07670  0.40660  1.0000 -0.2518787845
N   N8        1.0  0.07670  0.49990  0.09340  1.0000 -0.2518787845
N   N9        1.0  0.46061  0.84479  0.66690  1.0000 0.1573341661
N   N10       1.0  0.84479  0.46061  0.83310  1.0000 0.1573341661
N   N11       1.0  0.53939  0.15521  0.33310  1.0000 0.1573341661
N   N12       1.0  0.15521  0.53939  0.16690  1.0000 0.1573341661
N   N13       1.0  0.27559  0.91321  0.64760  1.0000 -0.3207529499
N   N14       1.0  0.91321  0.27559  0.85240  1.0000 -0.3207529499
N   N15       1.0  0.72441  0.08679  0.35240  1.0000 -0.3207529499
N   N16       1.0  0.08679  0.72441  0.14760  1.0000 -0.3207529499
N   N17       1.0  0.32970  0.03750  0.52890  1.0000 -0.2172873928
N   N18       1.0  0.03750  0.32970  0.97110  1.0000 -0.2172873928
N   N19       1.0  0.67030  0.96250  0.47110  1.0000 -0.2172873928
N   N20       1.0  0.96250  0.67030  0.02890  1.0000 -0.2172873928
N   N21       1.0  0.42107  0.10473  0.58860  1.0000 0.1681331196
N   N22       1.0  0.10473  0.42107  0.91140  1.0000 0.1681331196
N   N23       1.0  0.57893  0.89527  0.41140  1.0000 0.1681331196
N   N24       1.0  0.89527  0.57893  0.08860  1.0000 0.1681331196
O   O1        1.0  0.87405  0.25715  0.68640  1.0000 -0.5300360485
O   O2        1.0  0.25715  0.87405  0.81360  1.0000 -0.5300360485
O   O3        1.0  0.12595  0.74285  0.31360  1.0000 -0.5300360485
O   O4        1.0  0.74285  0.12595  0.18640  1.0000 -0.5300360485
O   O5        1.0  0.82009  0.36711  0.66080  1.0000 -0.5403532251
O   O6        1.0  0.36711  0.82009  0.83920  1.0000 -0.5403532251
O   O7        1.0  0.17991  0.63289  0.33920  1.0000 -0.5403532251
O   O8        1.0  0.63289  0.17991  0.16080  1.0000 -0.5403532251
O   O9        1.0  0.09446  0.64294  0.66610  1.0000 -0.5545551046
O   O10       1.0  0.64294  0.09446  0.83390  1.0000 -0.5545551046
O   O11       1.0  0.90554  0.35706  0.33390  1.0000 -0.5545551046
O   O12       1.0  0.35706  0.90554  0.16610  1.0000 -0.5545551046
O   O13       1.0  0.95747  0.66173  0.57010  1.0000 -0.5403532251
O   O14       1.0  0.66173  0.95747  0.92990  1.0000 -0.5403532251
O   O15       1.0  0.04253  0.33827  0.42990  1.0000 -0.5403532251
O   O16       1.0  0.33827  0.04253  0.07010  1.0000 -0.5403532251
