# DDEC6 charges by PACMAN v1.1 (https://github.com/mtap-research/PACMAN-charge/)
data_2011[Ni][nan]3[ASR]6
_chemical_formula_sum              "Ni4 H56 C80 N8 O16"
_cell_length_a       14.0435
_cell_length_b       14.0435
_cell_length_c       17.9763
_cell_angle_alpha    103.733
_cell_angle_beta     103.733
_cell_angle_gamma    113.094

_symmetry_space_group_name_H-M    "P 1"
_symmetry_Int_Tables_number       1

loop_
  _symmetry_equiv_pos_as_xyz
  'x, y, z'

loop_
  _atom_site_type_symbol
  _atom_site_label
  _atom_site_symmetry_multiplicity
  _atom_site_fract_x
  _atom_site_fract_y
  _atom_site_fract_z
  _atom_site_occupancy
  _atom_site_charge
Ni  Ni1       1.0  0.94718  0.46428  0.71212  1.0000 0.7439095591
Ni  Ni2       1.0  0.76495  0.24784  0.71212  1.0000 0.7439095591
Ni  Ni3       1.0  0.71428  0.69718  0.21212  1.0000 0.7439095591
Ni  Ni4       1.0  0.49784  0.51495  0.21212  1.0000 0.7439095591
H   H1        1.0  0.16624  0.53162  0.66561  1.0000 0.0992186525
H   H2        1.0  0.49937  0.13399  0.66561  1.0000 0.0992186525
H   H3        1.0  0.78162  0.91624  0.16561  1.0000 0.0992186525
H   H4        1.0  0.38399  0.24937  0.16561  1.0000 0.0992186525
H   H5        1.0  0.26716  0.63276  0.58853  1.0000 0.1084413276
H   H6        1.0  0.32137  0.95577  0.58853  1.0000 0.1084413276
H   H7        1.0  0.88276  0.01716  0.08853  1.0000 0.1084413276
H   H8        1.0  0.20577  0.07137  0.08853  1.0000 0.1084413276
H   H9        1.0  0.99632  0.71215  0.51522  1.0000 0.1272581408
H   H10       1.0  0.51889  0.80307  0.51522  1.0000 0.1272581408
H   H11       1.0  0.96215  0.74632  0.01522  1.0000 0.1272581408
H   H12       1.0  0.05307  0.26889  0.01522  1.0000 0.1272581408
H   H13       1.0  0.90995  0.60769  0.59650  1.0000 0.0992186525
H   H14       1.0  0.68655  0.98881  0.59650  1.0000 0.0992186525
H   H15       1.0  0.85769  0.65995  0.09650  1.0000 0.0992186525
H   H16       1.0  0.23881  0.43655  0.09650  1.0000 0.0992186525
H   H17       1.0  0.18153  0.81326  0.49858  1.0000 0.0823686131
H   H18       1.0  0.31705  0.68532  0.49858  1.0000 0.0823686131
H   H19       1.0  0.06326  0.93153  0.99858  1.0000 0.0823686131
H   H20       1.0  0.93532  0.06705  0.99858  1.0000 0.0823686131
H   H21       1.0  0.11301  0.57759  0.38400  1.0000 0.0823686131
H   H22       1.0  0.27099  0.80641  0.38400  1.0000 0.0823686131
H   H23       1.0  0.82759  0.86301  0.88400  1.0000 0.0823686131
H   H24       1.0  0.05641  0.02099  0.88400  1.0000 0.0823686131
H   H25       1.0  0.11942  0.85146  0.36813  1.0000 0.1194233996
H   H26       1.0  0.24871  0.51666  0.36813  1.0000 0.1194233996
H   H27       1.0  0.10146  0.86942  0.86813  1.0000 0.1194233996
H   H28       1.0  0.76666  0.99871  0.86813  1.0000 0.1194233996
H   H29       1.0  0.94380  0.85282  0.30258  1.0000 0.0992186525
H   H30       1.0  0.35878  0.44977  0.30258  1.0000 0.0992186525
H   H31       1.0  0.10282  0.69380  0.80258  1.0000 0.0992186525
H   H32       1.0  0.69977  0.10878  0.80258  1.0000 0.0992186525
H   H33       1.0  0.75329  0.51426  0.24794  1.0000 0.1084413276
H   H34       1.0  0.49465  0.73368  0.24794  1.0000 0.1084413276
H   H35       1.0  0.76426  0.50329  0.74794  1.0000 0.1084413276
H   H36       1.0  0.98368  0.24465  0.74794  1.0000 0.1084413276
H   H37       1.0  0.92086  0.49645  0.30760  1.0000 0.1272581408
H   H38       1.0  0.38674  0.81114  0.30760  1.0000 0.1272581408
H   H39       1.0  0.74645  0.67086  0.80760  1.0000 0.1272581408
H   H40       1.0  0.06114  0.13674  0.80760  1.0000 0.1272581408
H   H41       1.0  0.05590  0.32496  0.54891  1.0000 0.0992186525
H   H42       1.0  0.49302  0.22395  0.54891  1.0000 0.0992186525
H   H43       1.0  0.57496  0.80590  0.04891  1.0000 0.0992186525
H   H44       1.0  0.47395  0.24302  0.04891  1.0000 0.0992186525
H   H45       1.0  0.08909  0.22564  0.42988  1.0000 0.0910770203
H   H46       1.0  0.34078  0.20424  0.42988  1.0000 0.0910770203
H   H47       1.0  0.47564  0.83909  0.92988  1.0000 0.0910770203
H   H48       1.0  0.45424  0.09078  0.92988  1.0000 0.0910770203
H   H49       1.0  0.94856  0.03024  0.33655  1.0000 0.0910770203
H   H50       1.0  0.38799  0.30631  0.33655  1.0000 0.0910770203
H   H51       1.0  0.28024  0.69856  0.83655  1.0000 0.0910770203
H   H52       1.0  0.55631  0.13799  0.83655  1.0000 0.0910770203
H   H53       1.0  0.75472  0.02022  0.49161  1.0000 0.1084413276
H   H54       1.0  0.73689  0.47138  0.49161  1.0000 0.1084413276
H   H55       1.0  0.27022  0.50472  0.99161  1.0000 0.1084413276
H   H56       1.0  0.72138  0.48689  0.99161  1.0000 0.1084413276
C   C1        1.0  0.13261  0.57351  0.63107  1.0000 0.0992186525
C   C2        1.0  0.49846  0.05756  0.63107  1.0000 0.0992186525
C   C3        1.0  0.82351  0.88261  0.13107  1.0000 0.0992186525
C   C4        1.0  0.30756  0.24846  0.13107  1.0000 0.0992186525
C   C5        1.0  0.18713  0.62940  0.58659  1.0000 -0.1963165115
C   C6        1.0  0.39946  0.95718  0.58659  1.0000 -0.1963165115
C   C7        1.0  0.87940  0.93713  0.08659  1.0000 -0.1963165115
C   C8        1.0  0.20718  0.14946  0.08659  1.0000 -0.1963165115
C   C9        1.0  0.13899  0.68019  0.54260  1.0000 0.1194233996
C   C10       1.0  0.40360  0.86241  0.54260  1.0000 0.1194233996
C   C11       1.0  0.93019  0.88899  0.04260  1.0000 0.1194233996
C   C12       1.0  0.11241  0.15360  0.04260  1.0000 0.1194233996
C   C13       1.0  0.03821  0.67374  0.54721  1.0000 -0.1820838909
C   C14       1.0  0.50899  0.87346  0.54721  1.0000 -0.1820838909
C   C15       1.0  0.92374  0.78821  0.04721  1.0000 -0.1820838909
C   C16       1.0  0.12346  0.25899  0.04721  1.0000 -0.1820838909
C   C17       1.0  0.98951  0.61631  0.59298  1.0000 0.0992186525
C   C18       1.0  0.60347  0.97667  0.59298  1.0000 0.0992186525
C   C19       1.0  0.86631  0.73951  0.09298  1.0000 0.0992186525
C   C20       1.0  0.22667  0.35347  0.09298  1.0000 0.0992186525
C   C21       1.0  0.18714  0.73499  0.48929  1.0000 -0.0709594992
C   C22       1.0  0.30215  0.75430  0.48929  1.0000 -0.0709594992
C   C23       1.0  0.98499  0.93714  0.98929  1.0000 -0.0709594992
C   C24       1.0  0.00430  0.05215  0.98929  1.0000 -0.0709594992
C   C25       1.0  0.13673  0.66610  0.39389  1.0000 -0.0709594992
C   C26       1.0  0.25716  0.72779  0.39389  1.0000 -0.0709594992
C   C27       1.0  0.91610  0.88673  0.89389  1.0000 -0.0709594992
C   C28       1.0  0.97779  0.00716  0.89389  1.0000 -0.0709594992
C   C29       1.0  0.03776  0.67227  0.34523  1.0000 0.1272581408
C   C30       1.0  0.30746  0.67295  0.34523  1.0000 0.1272581408
C   C31       1.0  0.92227  0.78776  0.84523  1.0000 0.1272581408
C   C32       1.0  0.92295  0.05746  0.84523  1.0000 0.1272581408
C   C33       1.0  0.04128  0.77291  0.34184  1.0000 -0.1963165115
C   C34       1.0  0.30055  0.56892  0.34184  1.0000 -0.1963165115
C   C35       1.0  0.02291  0.79128  0.84184  1.0000 -0.1963165115
C   C36       1.0  0.81892  0.05055  0.84184  1.0000 -0.1963165115
C   C37       1.0  0.94390  0.77607  0.30521  1.0000 0.0992186525
C   C38       1.0  0.36132  0.52914  0.30521  1.0000 0.0992186525
C   C39       1.0  0.02607  0.69390  0.80521  1.0000 0.0992186525
C   C40       1.0  0.77914  0.11132  0.80521  1.0000 0.0992186525
C   C41       1.0  0.83614  0.58610  0.27285  1.0000 0.1194233996
C   C42       1.0  0.43671  0.68675  0.27285  1.0000 0.1194233996
C   C43       1.0  0.83610  0.58614  0.77285  1.0000 0.1194233996
C   C44       1.0  0.93675  0.18671  0.77285  1.0000 0.1194233996
C   C45       1.0  0.93160  0.57809  0.30798  1.0000 -0.1820838909
C   C46       1.0  0.37638  0.72989  0.30798  1.0000 -0.1820838909
C   C47       1.0  0.82809  0.68160  0.80798  1.0000 -0.1820838909
C   C48       1.0  0.97989  0.12638  0.80798  1.0000 -0.1820838909
C   C49       1.0  0.90402  0.18084  0.52902  1.0000 -0.0369273639
C   C50       1.0  0.62500  0.34818  0.52902  1.0000 -0.0369273639
C   C51       1.0  0.43084  0.65402  0.02902  1.0000 -0.0369273639
C   C52       1.0  0.59818  0.37500  0.02902  1.0000 -0.0369273639
C   C53       1.0  0.99732  0.23747  0.50984  1.0000 -0.0988751418
C   C54       1.0  0.51253  0.27237  0.50984  1.0000 -0.0988751418
C   C55       1.0  0.48747  0.74732  0.00984  1.0000 -0.0988751418
C   C56       1.0  0.52237  0.26253  0.00984  1.0000 -0.0988751418
C   C57       1.0  0.01341  0.18234  0.44205  1.0000 -0.0988751418
C   C58       1.0  0.42864  0.25971  0.44205  1.0000 -0.0988751418
C   C59       1.0  0.43234  0.76341  0.94205  1.0000 -0.0988751418
C   C60       1.0  0.50971  0.17864  0.94205  1.0000 -0.0988751418
C   C61       1.0  0.93615  0.07177  0.39082  1.0000 -0.0988751418
C   C62       1.0  0.45467  0.31905  0.39082  1.0000 -0.0988751418
C   C63       1.0  0.32177  0.68615  0.89082  1.0000 -0.0988751418
C   C64       1.0  0.56905  0.20467  0.89082  1.0000 -0.0988751418
C   C65       1.0  0.84218  0.01322  0.40854  1.0000 -0.0369273639
C   C66       1.0  0.56636  0.39532  0.40854  1.0000 -0.0369273639
C   C67       1.0  0.26322  0.59218  0.90854  1.0000 -0.0369273639
C   C68       1.0  0.64532  0.31636  0.90854  1.0000 -0.0369273639
C   C69       1.0  0.82785  0.06822  0.47852  1.0000 -0.1068525399
C   C70       1.0  0.65067  0.41030  0.47852  1.0000 -0.1068525399
C   C71       1.0  0.31822  0.57785  0.97852  1.0000 -0.1068525399
C   C72       1.0  0.66030  0.40067  0.97852  1.0000 -0.1068525399
C   C73       1.0  0.88924  0.24431  0.60255  1.0000 0.5765518759
C   C74       1.0  0.71330  0.35824  0.60255  1.0000 0.5765518759
C   C75       1.0  0.49431  0.63924  0.10255  1.0000 0.5765518759
C   C76       1.0  0.60824  0.46330  0.10255  1.0000 0.5765518759
C   C77       1.0  0.75598  0.89122  0.35521  1.0000 0.5658125644
C   C78       1.0  0.59922  0.46399  0.35521  1.0000 0.5658125644
C   C79       1.0  0.14122  0.50598  0.85521  1.0000 0.5658125644
C   C80       1.0  0.71399  0.34922  0.85521  1.0000 0.5658125644
N   N1        1.0  0.03528  0.56672  0.63455  1.0000 -0.2206447805
N   N2        1.0  0.59926  0.06783  0.63455  1.0000 -0.2206447805
N   N3        1.0  0.81672  0.78528  0.13455  1.0000 -0.2206447805
N   N4        1.0  0.31783  0.34926  0.13455  1.0000 -0.2206447805
N   N5        1.0  0.84117  0.68448  0.27133  1.0000 -0.2096184428
N   N6        1.0  0.43016  0.58685  0.27133  1.0000 -0.2096184428
N   N7        1.0  0.93448  0.59117  0.77133  1.0000 -0.2096184428
N   N8        1.0  0.83685  0.18016  0.77133  1.0000 -0.2096184428
O   O1        1.0  0.96616  0.34561  0.64553  1.0000 -0.5344347443
O   O2        1.0  0.67937  0.29992  0.64553  1.0000 -0.5344347443
O   O3        1.0  0.59561  0.71616  0.14553  1.0000 -0.5344347443
O   O4        1.0  0.54992  0.42937  0.14553  1.0000 -0.5344347443
O   O5        1.0  0.80179  0.19290  0.61751  1.0000 -0.5461564
O   O6        1.0  0.81572  0.42461  0.61751  1.0000 -0.5461564
O   O7        1.0  0.44290  0.55179  0.11751  1.0000 -0.5461564
O   O8        1.0  0.67461  0.56572  0.11751  1.0000 -0.5461564
O   O9        1.0  0.78164  0.84775  0.29407  1.0000 -0.5600011732
O   O10       1.0  0.51243  0.44631  0.29407  1.0000 -0.5600011732
O   O11       1.0  0.09775  0.53164  0.79407  1.0000 -0.5600011732
O   O12       1.0  0.69631  0.26243  0.79407  1.0000 -0.5600011732
O   O13       1.0  0.67303  0.84434  0.37212  1.0000 -0.5461564
O   O14       1.0  0.69909  0.52778  0.37212  1.0000 -0.5461564
O   O15       1.0  0.09434  0.42303  0.87212  1.0000 -0.5461564
O   O16       1.0  0.77778  0.44909  0.87212  1.0000 -0.5461564
