# DDEC6 charges by PACMAN v1.1 (https://github.com/mtap-research/PACMAN-charge/)
data_2011[PrCo][nan]3[ASR]1
_chemical_formula_sum              "Pr4 Co6 H36 C84 N12 O48"
_cell_length_a       15.493
_cell_length_b       15.493
_cell_length_c       15.199
_cell_angle_alpha    90
_cell_angle_beta     90
_cell_angle_gamma    120

_symmetry_space_group_name_H-M    "P 1"
_symmetry_Int_Tables_number       1

loop_
  _symmetry_equiv_pos_as_xyz
  'x, y, z'

loop_
  _atom_site_type_symbol
  _atom_site_label
  _atom_site_symmetry_multiplicity
  _atom_site_fract_x
  _atom_site_fract_y
  _atom_site_fract_z
  _atom_site_occupancy
  _atom_site_charge
Pr  Pr1       1.0  0.66667  0.33333  0.00251  1.0000 1.8460384008
Pr  Pr2       1.0  0.33333  0.66667  0.00251  1.0000 1.8460384008
Pr  Pr3       1.0  0.66667  0.33333  0.50251  1.0000 1.8460384008
Pr  Pr4       1.0  0.33333  0.66667  0.50251  1.0000 1.8460384008
Co  Co1       1.0  0.50000  0.50000  0.25280  1.0000 1.0603651997
Co  Co2       1.0  0.50000  0.00000  0.25280  1.0000 1.0603651997
Co  Co3       1.0  0.00000  0.50000  0.25280  1.0000 1.0603651997
Co  Co4       1.0  0.50000  0.50000  0.75280  1.0000 1.0603651997
Co  Co5       1.0  0.00000  0.50000  0.75280  1.0000 1.0603651997
Co  Co6       1.0  0.50000  0.00000  0.75280  1.0000 1.0603651997
H   H1        1.0  0.28750  0.05170  0.91230  1.0000 0.1366154746
H   H2        1.0  0.94830  0.23580  0.91230  1.0000 0.1366154746
H   H3        1.0  0.76420  0.71250  0.91230  1.0000 0.1366154746
H   H4        1.0  0.71250  0.94830  0.91230  1.0000 0.1366154746
H   H5        1.0  0.05170  0.76420  0.91230  1.0000 0.1366154746
H   H6        1.0  0.23580  0.28750  0.91230  1.0000 0.1366154746
H   H7        1.0  0.94830  0.71250  0.41230  1.0000 0.1366154746
H   H8        1.0  0.76420  0.05170  0.41230  1.0000 0.1366154746
H   H9        1.0  0.28750  0.23580  0.41230  1.0000 0.1366154746
H   H10       1.0  0.05170  0.28750  0.41230  1.0000 0.1366154746
H   H11       1.0  0.23580  0.94830  0.41230  1.0000 0.1366154746
H   H12       1.0  0.71250  0.76420  0.41230  1.0000 0.1366154746
H   H13       1.0  0.20160  0.10010  0.99050  1.0000 0.1109415382
H   H14       1.0  0.89990  0.10150  0.99050  1.0000 0.1109415382
H   H15       1.0  0.89850  0.79840  0.99050  1.0000 0.1109415382
H   H16       1.0  0.79840  0.89990  0.99050  1.0000 0.1109415382
H   H17       1.0  0.10010  0.89850  0.99050  1.0000 0.1109415382
H   H18       1.0  0.10150  0.20160  0.99050  1.0000 0.1109415382
H   H19       1.0  0.89990  0.79840  0.49050  1.0000 0.1109415382
H   H20       1.0  0.89850  0.10010  0.49050  1.0000 0.1109415382
H   H21       1.0  0.20160  0.10150  0.49050  1.0000 0.1109415382
H   H22       1.0  0.10010  0.20160  0.49050  1.0000 0.1109415382
H   H23       1.0  0.10150  0.89990  0.49050  1.0000 0.1109415382
H   H24       1.0  0.79840  0.89850  0.49050  1.0000 0.1109415382
H   H25       1.0  0.28810  0.23520  0.09890  1.0000 0.1366154746
H   H26       1.0  0.76480  0.05290  0.09890  1.0000 0.1366154746
H   H27       1.0  0.94710  0.71190  0.09890  1.0000 0.1366154746
H   H28       1.0  0.71190  0.76480  0.09890  1.0000 0.1366154746
H   H29       1.0  0.23520  0.94710  0.09890  1.0000 0.1366154746
H   H30       1.0  0.05290  0.28810  0.09890  1.0000 0.1366154746
H   H31       1.0  0.76480  0.71190  0.59890  1.0000 0.1366154746
H   H32       1.0  0.94710  0.23520  0.59890  1.0000 0.1366154746
H   H33       1.0  0.28810  0.05290  0.59890  1.0000 0.1366154746
H   H34       1.0  0.23520  0.28810  0.59890  1.0000 0.1366154746
H   H35       1.0  0.05290  0.76480  0.59890  1.0000 0.1366154746
H   H36       1.0  0.71190  0.94710  0.59890  1.0000 0.1366154746
C   C1        1.0  0.42380  0.15690  0.94750  1.0000 0.0864087302
C   C2        1.0  0.84310  0.26690  0.94750  1.0000 0.0864087302
C   C3        1.0  0.73310  0.57620  0.94750  1.0000 0.0864087302
C   C4        1.0  0.57620  0.84310  0.94750  1.0000 0.0864087302
C   C5        1.0  0.15690  0.73310  0.94750  1.0000 0.0864087302
C   C6        1.0  0.26690  0.42380  0.94750  1.0000 0.0864087302
C   C7        1.0  0.84310  0.57620  0.44750  1.0000 0.0864087302
C   C8        1.0  0.73310  0.15690  0.44750  1.0000 0.0864087302
C   C9        1.0  0.42380  0.26690  0.44750  1.0000 0.0864087302
C   C10       1.0  0.15690  0.42380  0.44750  1.0000 0.0864087302
C   C11       1.0  0.26690  0.84310  0.44750  1.0000 0.0864087302
C   C12       1.0  0.57620  0.73310  0.44750  1.0000 0.0864087302
C   C13       1.0  0.32140  0.10720  0.94840  1.0000 -0.109361105
C   C14       1.0  0.89280  0.21420  0.94840  1.0000 -0.109361105
C   C15       1.0  0.78580  0.67860  0.94840  1.0000 -0.109361105
C   C16       1.0  0.67860  0.89280  0.94840  1.0000 -0.109361105
C   C17       1.0  0.10720  0.78580  0.94840  1.0000 -0.109361105
C   C18       1.0  0.21420  0.32140  0.94840  1.0000 -0.109361105
C   C19       1.0  0.89280  0.67860  0.44840  1.0000 -0.109361105
C   C20       1.0  0.78580  0.10720  0.44840  1.0000 -0.109361105
C   C21       1.0  0.32140  0.21420  0.44840  1.0000 -0.109361105
C   C22       1.0  0.10720  0.32140  0.44840  1.0000 -0.109361105
C   C23       1.0  0.21420  0.89280  0.44840  1.0000 -0.109361105
C   C24       1.0  0.67860  0.78580  0.44840  1.0000 -0.109361105
C   C25       1.0  0.27060  0.13320  0.99580  1.0000 -0.0580187105
C   C26       1.0  0.86680  0.13740  0.99580  1.0000 -0.0580187105
C   C27       1.0  0.86260  0.72940  0.99580  1.0000 -0.0580187105
C   C28       1.0  0.72940  0.86680  0.99580  1.0000 -0.0580187105
C   C29       1.0  0.13320  0.86260  0.99580  1.0000 -0.0580187105
C   C30       1.0  0.13740  0.27060  0.99580  1.0000 -0.0580187105
C   C31       1.0  0.86680  0.72940  0.49580  1.0000 -0.0580187105
C   C32       1.0  0.86260  0.13320  0.49580  1.0000 -0.0580187105
C   C33       1.0  0.27060  0.13740  0.49580  1.0000 -0.0580187105
C   C34       1.0  0.13320  0.27060  0.49580  1.0000 -0.0580187105
C   C35       1.0  0.13740  0.86680  0.49580  1.0000 -0.0580187105
C   C36       1.0  0.72940  0.86260  0.49580  1.0000 -0.0580187105
C   C37       1.0  0.32160  0.21630  0.05960  1.0000 -0.1445980399
C   C38       1.0  0.78370  0.10530  0.05960  1.0000 -0.1445980399
C   C39       1.0  0.89470  0.67840  0.05960  1.0000 -0.1445980399
C   C40       1.0  0.67840  0.78370  0.05960  1.0000 -0.1445980399
C   C41       1.0  0.21630  0.89470  0.05960  1.0000 -0.1455348436
C   C42       1.0  0.10530  0.32160  0.05960  1.0000 -0.1445980399
C   C43       1.0  0.78370  0.67840  0.55960  1.0000 -0.1445980399
C   C44       1.0  0.89470  0.21630  0.55960  1.0000 -0.1455348436
C   C45       1.0  0.32160  0.10530  0.55960  1.0000 -0.1455348436
C   C46       1.0  0.21630  0.32160  0.55960  1.0000 -0.1455348436
C   C47       1.0  0.10530  0.78370  0.55960  1.0000 -0.1455348436
C   C48       1.0  0.67840  0.89470  0.55960  1.0000 -0.1455348436
C   C49       1.0  0.48650  0.35380  0.11420  1.0000 0.5593912598
C   C50       1.0  0.64620  0.13270  0.11420  1.0000 0.5593912598
C   C51       1.0  0.86730  0.51350  0.11420  1.0000 0.5593912598
C   C52       1.0  0.51350  0.64620  0.11420  1.0000 0.5593912598
C   C53       1.0  0.35380  0.86730  0.11420  1.0000 0.5593912598
C   C54       1.0  0.13270  0.48650  0.11420  1.0000 0.5593912598
C   C55       1.0  0.64620  0.51350  0.61420  1.0000 0.5593912598
C   C56       1.0  0.86730  0.35380  0.61420  1.0000 0.5593912598
C   C57       1.0  0.48650  0.13270  0.61420  1.0000 0.5593912598
C   C58       1.0  0.35380  0.48650  0.61420  1.0000 0.5593912598
C   C59       1.0  0.13270  0.64620  0.61420  1.0000 0.5593912598
C   C60       1.0  0.51350  0.86730  0.61420  1.0000 0.5593912598
C   C61       1.0  0.49000  0.13620  0.89220  1.0000 0.5840693708
C   C62       1.0  0.86380  0.35380  0.89220  1.0000 0.5840693708
C   C63       1.0  0.64620  0.51000  0.89220  1.0000 0.5840693708
C   C64       1.0  0.51000  0.86380  0.89220  1.0000 0.5840693708
C   C65       1.0  0.13620  0.64620  0.89220  1.0000 0.5840693708
C   C66       1.0  0.35380  0.49000  0.89220  1.0000 0.5840693708
C   C67       1.0  0.86380  0.51000  0.39220  1.0000 0.5840693708
C   C68       1.0  0.64620  0.13620  0.39220  1.0000 0.5840693708
C   C69       1.0  0.49000  0.35380  0.39220  1.0000 0.5840693708
C   C70       1.0  0.13620  0.49000  0.39220  1.0000 0.5840693708
C   C71       1.0  0.35380  0.86380  0.39220  1.0000 0.5840693708
C   C72       1.0  0.51000  0.64620  0.39220  1.0000 0.5840693708
C   C73       1.0  0.42490  0.26290  0.05410  1.0000 0.1622863483
C   C74       1.0  0.73710  0.16200  0.05410  1.0000 0.1622863483
C   C75       1.0  0.83800  0.57510  0.05410  1.0000 0.1622863483
C   C76       1.0  0.57510  0.73710  0.05410  1.0000 0.1622863483
C   C77       1.0  0.26290  0.83800  0.05410  1.0000 0.1622863483
C   C78       1.0  0.16200  0.42490  0.05410  1.0000 0.1622863483
C   C79       1.0  0.73710  0.57510  0.55410  1.0000 0.1622863483
C   C80       1.0  0.83800  0.26290  0.55410  1.0000 0.1622863483
C   C81       1.0  0.42490  0.16200  0.55410  1.0000 0.1622863483
C   C82       1.0  0.26290  0.42490  0.55410  1.0000 0.1622863483
C   C83       1.0  0.16200  0.73710  0.55410  1.0000 0.1622863483
C   C84       1.0  0.57510  0.83800  0.55410  1.0000 0.1622863483
N   N1        1.0  0.47460  0.23840  0.00240  1.0000 -0.3273356188
N   N2        1.0  0.76160  0.23620  0.00240  1.0000 -0.3273356188
N   N3        1.0  0.76380  0.52540  0.00240  1.0000 -0.3273356188
N   N4        1.0  0.52540  0.76160  0.00240  1.0000 -0.3273356188
N   N5        1.0  0.23840  0.76380  0.00240  1.0000 -0.3273356188
N   N6        1.0  0.23620  0.47460  0.00240  1.0000 -0.3273356188
N   N7        1.0  0.76160  0.52540  0.50240  1.0000 -0.3273356188
N   N8        1.0  0.76380  0.23840  0.50240  1.0000 -0.3273356188
N   N9        1.0  0.47460  0.23620  0.50240  1.0000 -0.3273356188
N   N10       1.0  0.23840  0.47460  0.50240  1.0000 -0.3273356188
N   N11       1.0  0.23620  0.76160  0.50240  1.0000 -0.3273356188
N   N12       1.0  0.52540  0.76380  0.50240  1.0000 -0.3273356188
O   O1        1.0  0.58350  0.19750  0.89300  1.0000 -0.6025240425
O   O2        1.0  0.80250  0.38600  0.89300  1.0000 -0.6025240425
O   O3        1.0  0.61400  0.41650  0.89300  1.0000 -0.6025240425
O   O4        1.0  0.41650  0.80250  0.89300  1.0000 -0.6025240425
O   O5        1.0  0.19750  0.61400  0.89300  1.0000 -0.6025240425
O   O6        1.0  0.38600  0.58350  0.89300  1.0000 -0.6025240425
O   O7        1.0  0.80250  0.41650  0.39300  1.0000 -0.6025240425
O   O8        1.0  0.61400  0.19750  0.39300  1.0000 -0.6025240425
O   O9        1.0  0.58350  0.38600  0.39300  1.0000 -0.6025240425
O   O10       1.0  0.19750  0.58350  0.39300  1.0000 -0.6025240425
O   O11       1.0  0.38600  0.80250  0.39300  1.0000 -0.6025240425
O   O12       1.0  0.41650  0.61400  0.39300  1.0000 -0.6025240425
O   O13       1.0  0.57860  0.38500  0.11090  1.0000 -0.5860763047
O   O14       1.0  0.61500  0.19360  0.11090  1.0000 -0.5860763047
O   O15       1.0  0.80640  0.42140  0.11090  1.0000 -0.5860763047
O   O16       1.0  0.42140  0.61500  0.11090  1.0000 -0.5860763047
O   O17       1.0  0.38500  0.80640  0.11090  1.0000 -0.5860763047
O   O18       1.0  0.19360  0.57860  0.11090  1.0000 -0.5860763047
O   O19       1.0  0.61500  0.42140  0.61090  1.0000 -0.5860763047
O   O20       1.0  0.80640  0.38500  0.61090  1.0000 -0.5860763047
O   O21       1.0  0.57860  0.19360  0.61090  1.0000 -0.5860763047
O   O22       1.0  0.38500  0.57860  0.61090  1.0000 -0.5860763047
O   O23       1.0  0.19360  0.61500  0.61090  1.0000 -0.5860763047
O   O24       1.0  0.42140  0.80640  0.61090  1.0000 -0.5860763047
O   O25       1.0  0.44390  0.38500  0.15690  1.0000 -0.5116553062
O   O26       1.0  0.61500  0.05890  0.15690  1.0000 -0.5116553062
O   O27       1.0  0.94110  0.55610  0.15690  1.0000 -0.5116553062
O   O28       1.0  0.55610  0.61500  0.15690  1.0000 -0.5116553062
O   O29       1.0  0.38500  0.94110  0.15690  1.0000 -0.5116553062
O   O30       1.0  0.05890  0.44390  0.15690  1.0000 -0.5116553062
O   O31       1.0  0.61500  0.55610  0.65690  1.0000 -0.5116553062
O   O32       1.0  0.94110  0.38500  0.65690  1.0000 -0.5116553062
O   O33       1.0  0.44390  0.05890  0.65690  1.0000 -0.5116553062
O   O34       1.0  0.38500  0.44390  0.65690  1.0000 -0.5116553062
O   O35       1.0  0.05890  0.61500  0.65690  1.0000 -0.5116553062
O   O36       1.0  0.55610  0.94110  0.65690  1.0000 -0.5116553062
O   O37       1.0  0.44660  0.05580  0.84520  1.0000 -0.5818194006
O   O38       1.0  0.94420  0.39080  0.84520  1.0000 -0.5818194006
O   O39       1.0  0.60920  0.55340  0.84520  1.0000 -0.5818194006
O   O40       1.0  0.55340  0.94420  0.84520  1.0000 -0.5818194006
O   O41       1.0  0.05580  0.60920  0.84520  1.0000 -0.5818194006
O   O42       1.0  0.39080  0.44660  0.84520  1.0000 -0.5818194006
O   O43       1.0  0.94420  0.55340  0.34520  1.0000 -0.5818194006
O   O44       1.0  0.60920  0.05580  0.34520  1.0000 -0.5818194006
O   O45       1.0  0.44660  0.39080  0.34520  1.0000 -0.5818194006
O   O46       1.0  0.05580  0.44660  0.34520  1.0000 -0.5818194006
O   O47       1.0  0.39080  0.94420  0.34520  1.0000 -0.5818194006
O   O48       1.0  0.55340  0.60920  0.34520  1.0000 -0.5818194006
