# DDEC6 charges by PACMAN v1.1 (https://github.com/mtap-research/PACMAN-charge/)
data_2011[Tb][nan]3[ASR]1
_chemical_formula_sum              "Tb4 H28 C68 O24"
_cell_length_a       16.313
_cell_length_b       16.313
_cell_length_c       14.082
_cell_angle_alpha    81.2763
_cell_angle_beta     98.7237
_cell_angle_gamma    130.76

_symmetry_space_group_name_H-M    "P 1"
_symmetry_Int_Tables_number       1

loop_
  _symmetry_equiv_pos_as_xyz
  'x, y, z'

loop_
  _atom_site_type_symbol
  _atom_site_label
  _atom_site_symmetry_multiplicity
  _atom_site_fract_x
  _atom_site_fract_y
  _atom_site_fract_z
  _atom_site_occupancy
  _atom_site_charge
Tb  Tb1       1.0  0.98007  0.60865  0.95851  1.0000 2.0333266237
Tb  Tb2       1.0  0.60865  0.98007  0.54149  1.0000 2.0373625734
Tb  Tb3       1.0  0.01993  0.39135  0.04149  1.0000 2.0333266237
Tb  Tb4       1.0  0.39135  0.01993  0.45851  1.0000 2.0333266237
H   H1        1.0  0.18710  0.71950  0.70620  1.0000 0.1312657387
H   H2        1.0  0.71950  0.18710  0.79380  1.0000 0.1312657387
H   H3        1.0  0.81290  0.28050  0.29380  1.0000 0.1312657387
H   H4        1.0  0.28050  0.81290  0.20620  1.0000 0.1312657387
H   H5        1.0  0.36920  0.68980  0.57770  1.0000 0.1312657387
H   H6        1.0  0.68980  0.36920  0.92230  1.0000 0.1312657387
H   H7        1.0  0.63080  0.31020  0.42230  1.0000 0.1312657387
H   H8        1.0  0.31020  0.63080  0.07770  1.0000 0.1312657387
H   H9        1.0  0.17250  0.46510  0.78300  1.0000 0.1213771257
H   H10       1.0  0.46510  0.17250  0.71700  1.0000 0.1213771257
H   H11       1.0  0.82750  0.53490  0.21700  1.0000 0.1213771257
H   H12       1.0  0.53490  0.82750  0.28300  1.0000 0.1213771257
H   H13       1.0  0.47770  0.47290  0.59460  1.0000 0.1213771257
H   H14       1.0  0.47290  0.47770  0.90540  1.0000 0.1213771257
H   H15       1.0  0.52230  0.52710  0.40540  1.0000 0.1213771257
H   H16       1.0  0.52710  0.52230  0.09460  1.0000 0.1213771257
H   H17       1.0  0.18000  0.22960  0.64170  1.0000 0.1312657387
H   H18       1.0  0.22960  0.18000  0.85830  1.0000 0.1312657387
H   H19       1.0  0.82000  0.77040  0.35830  1.0000 0.1312657387
H   H20       1.0  0.77040  0.82000  0.14170  1.0000 0.1312657387
H   H21       1.0  0.20310  0.11470  0.60440  1.0000 0.1312657387
H   H22       1.0  0.11470  0.20310  0.89560  1.0000 0.1312657387
H   H23       1.0  0.79690  0.88530  0.39560  1.0000 0.1312657387
H   H24       1.0  0.88530  0.79690  0.10440  1.0000 0.1312657387
H   H25       1.0  0.49950  0.36250  0.54180  1.0000 0.1213771257
H   H26       1.0  0.36250  0.49950  0.95820  1.0000 0.1213771257
H   H27       1.0  0.50050  0.63750  0.45820  1.0000 0.1213771257
H   H28       1.0  0.63750  0.50050  0.04180  1.0000 0.1213771257
C   C1        1.0  0.34930  0.22970  0.55670  1.0000 -0.004356701
C   C2        1.0  0.22970  0.34930  0.94330  1.0000 -0.004356701
C   C3        1.0  0.65070  0.77030  0.44330  1.0000 -0.004356701
C   C4        1.0  0.77030  0.65070  0.05670  1.0000 -0.004356701
C   C5        1.0  0.17080  0.58820  0.75730  1.0000 -0.018357528
C   C6        1.0  0.58820  0.17080  0.74270  1.0000 -0.018357528
C   C7        1.0  0.82920  0.41180  0.24270  1.0000 -0.018357528
C   C8        1.0  0.41180  0.82920  0.25730  1.0000 -0.018357528
C   C9        1.0  0.28700  0.72240  0.63440  1.0000 -0.018357528
C   C10       1.0  0.72240  0.28700  0.86560  1.0000 -0.018357528
C   C11       1.0  0.71300  0.27760  0.36560  1.0000 -0.018357528
C   C12       1.0  0.27760  0.71300  0.13440  1.0000 -0.018357528
C   C13       1.0  0.09230  0.54810  0.83400  1.0000 0.6438817509
C   C14       1.0  0.54810  0.09230  0.66600  1.0000 0.6438817509
C   C15       1.0  0.90770  0.45190  0.16600  1.0000 0.6438817509
C   C16       1.0  0.45190  0.90770  0.33400  1.0000 0.6438817509
C   C17       1.0  0.36150  0.15550  0.51790  1.0000 0.5764433124
C   C18       1.0  0.15550  0.36150  0.98210  1.0000 0.5764433124
C   C19       1.0  0.63850  0.84450  0.48210  1.0000 0.5748210528
C   C20       1.0  0.84450  0.63850  0.01790  1.0000 0.5748210528
C   C21       1.0  0.31110  0.43790  0.64240  1.0000 -0.0998732568
C   C22       1.0  0.43790  0.31110  0.85760  1.0000 -0.0998732568
C   C23       1.0  0.68890  0.56210  0.35760  1.0000 -0.0998732568
C   C24       1.0  0.56210  0.68890  0.14240  1.0000 -0.0998732568
C   C25       1.0  0.21110  0.68230  0.70040  1.0000 -0.0937706552
C   C26       1.0  0.68230  0.21110  0.79960  1.0000 -0.0937706552
C   C27       1.0  0.78890  0.31770  0.29960  1.0000 -0.0937706552
C   C28       1.0  0.31770  0.78890  0.20040  1.0000 -0.0937706552
C   C29       1.0  0.31810  0.66330  0.62120  1.0000 -0.1471580959
C   C30       1.0  0.66330  0.31810  0.87880  1.0000 -0.1471580959
C   C31       1.0  0.68190  0.33670  0.37880  1.0000 -0.1471580959
C   C32       1.0  0.33670  0.68190  0.12120  1.0000 -0.1471580959
C   C33       1.0  0.27090  0.56230  0.67490  1.0000 0.1312657387
C   C34       1.0  0.56230  0.27090  0.82510  1.0000 0.1312657387
C   C35       1.0  0.72910  0.43770  0.32510  1.0000 0.1312657387
C   C36       1.0  0.43770  0.72910  0.17490  1.0000 0.1312657387
C   C37       1.0  0.20010  0.52870  0.74460  1.0000 -0.1445524044
C   C38       1.0  0.52870  0.20010  0.75540  1.0000 -0.1445524044
C   C39       1.0  0.79990  0.47130  0.25540  1.0000 -0.1445524044
C   C40       1.0  0.47130  0.79990  0.24460  1.0000 -0.1445524044
C   C41       1.0  0.29600  0.49640  0.65860  1.0000 -0.0998732568
C   C42       1.0  0.49640  0.29600  0.84140  1.0000 -0.0998732568
C   C43       1.0  0.70400  0.50360  0.34140  1.0000 -0.0998732568
C   C44       1.0  0.50360  0.70400  0.15860  1.0000 -0.0998732568
C   C45       1.0  0.41790  0.39950  0.59120  1.0000 -0.1763333588
C   C46       1.0  0.39950  0.41790  0.90880  1.0000 -0.1763333588
C   C47       1.0  0.58210  0.60050  0.40880  1.0000 -0.1763333588
C   C48       1.0  0.60050  0.58210  0.09120  1.0000 -0.1763333588
C   C49       1.0  0.32360  0.36460  0.61670  1.0000 0.1123331205
C   C50       1.0  0.36460  0.32360  0.88330  1.0000 0.1123331205
C   C51       1.0  0.67640  0.63540  0.38330  1.0000 0.1123331205
C   C52       1.0  0.63540  0.67640  0.11670  1.0000 0.1123331205
C   C53       1.0  0.24620  0.25880  0.62060  1.0000 -0.1733072757
C   C54       1.0  0.25880  0.24620  0.87940  1.0000 -0.1733072757
C   C55       1.0  0.75380  0.74120  0.37940  1.0000 -0.1733072757
C   C56       1.0  0.74120  0.75380  0.12060  1.0000 -0.1733072757
C   C57       1.0  0.25790  0.18930  0.59510  1.0000 -0.0998732568
C   C58       1.0  0.18930  0.25790  0.90490  1.0000 -0.0998732568
C   C59       1.0  0.74210  0.81070  0.40490  1.0000 -0.0998732568
C   C60       1.0  0.81070  0.74210  0.09510  1.0000 -0.0998732568
C   C61       1.0  0.43230  0.33370  0.56010  1.0000 -0.0937706552
C   C62       1.0  0.33370  0.43230  0.93990  1.0000 -0.0937706552
C   C63       1.0  0.56770  0.66630  0.43990  1.0000 -0.0937706552
C   C64       1.0  0.66630  0.56770  0.06010  1.0000 -0.0937706552
C   C65       1.0  0.33150  0.82690  0.57130  1.0000 0.6163288929
C   C66       1.0  0.82690  0.33150  0.92870  1.0000 0.6163288929
C   C67       1.0  0.66850  0.17310  0.42870  1.0000 0.6163288929
C   C68       1.0  0.17310  0.66850  0.07130  1.0000 0.6163288929
O   O1        1.0  0.42210  0.88070  0.54360  1.0000 -0.6986452661
O   O2        1.0  0.88070  0.42210  0.95640  1.0000 -0.6986452661
O   O3        1.0  0.57790  0.11930  0.45640  1.0000 -0.6986452661
O   O4        1.0  0.11930  0.57790  0.04360  1.0000 -0.6986452661
O   O5        1.0  0.07300  0.60840  0.84490  1.0000 -0.6711186788
O   O6        1.0  0.60840  0.07300  0.65510  1.0000 -0.6711186788
O   O7        1.0  0.92700  0.39160  0.15510  1.0000 -0.6711186788
O   O8        1.0  0.39160  0.92700  0.34490  1.0000 -0.6711186788
O   O9        1.0  0.27220  0.85200  0.55260  1.0000 -0.6084020159
O   O10       1.0  0.85200  0.27220  0.94740  1.0000 -0.6084020159
O   O11       1.0  0.72780  0.14800  0.44740  1.0000 -0.6084020159
O   O12       1.0  0.14800  0.72780  0.05260  1.0000 -0.6084020159
O   O13       1.0  0.28630  0.05670  0.52020  1.0000 -0.5937700492
O   O14       1.0  0.05670  0.28630  0.97980  1.0000 -0.5937700492
O   O15       1.0  0.71370  0.94330  0.47980  1.0000 -0.5959021471
O   O16       1.0  0.94330  0.71370  0.02020  1.0000 -0.5937700492
O   O17       1.0  0.05850  0.46150  0.88110  1.0000 -0.6304593108
O   O18       1.0  0.46150  0.05850  0.61890  1.0000 -0.6304593108
O   O19       1.0  0.94150  0.53850  0.11890  1.0000 -0.6304593108
O   O20       1.0  0.53850  0.94150  0.38110  1.0000 -0.6304593108
O   O21       1.0  0.45070  0.19830  0.48660  1.0000 -0.6304593108
O   O22       1.0  0.19830  0.45070  0.01340  1.0000 -0.6304593108
O   O23       1.0  0.54930  0.80170  0.51340  1.0000 -0.6304593108
O   O24       1.0  0.80170  0.54930  0.98660  1.0000 -0.6304593108
