# DDEC6 charges by PACMAN v1.1 (https://github.com/mtap-research/PACMAN-charge/)
data_2011[Gd][sra]3[ASR]1
_chemical_formula_sum              "Gd4 P8 H20 C8 O28"
_cell_length_a       8.313
_cell_length_b       10.324
_cell_length_c       10.534
_cell_angle_alpha    90
_cell_angle_beta     90
_cell_angle_gamma    90

_symmetry_space_group_name_H-M    "P 1"
_symmetry_Int_Tables_number       1

loop_
  _symmetry_equiv_pos_as_xyz
  'x, y, z'

loop_
  _atom_site_type_symbol
  _atom_site_label
  _atom_site_symmetry_multiplicity
  _atom_site_fract_x
  _atom_site_fract_y
  _atom_site_fract_z
  _atom_site_occupancy
  _atom_site_charge
Gd  Gd1       1.0  0.25000  0.63974  0.12052  1.0000 2.0625332634
Gd  Gd2       1.0  0.75000  0.86026  0.62052  1.0000 2.0625332634
Gd  Gd3       1.0  0.75000  0.36026  0.87948  1.0000 2.0625332634
Gd  Gd4       1.0  0.25000  0.13974  0.37948  1.0000 2.0625332634
P   P1        1.0  0.06720  0.83240  0.37360  1.0000 1.2993504146
P   P2        1.0  0.93280  0.66760  0.87360  1.0000 1.2993504146
P   P3        1.0  0.56720  0.16760  0.62640  1.0000 1.2993504146
P   P4        1.0  0.43280  0.33240  0.12640  1.0000 1.2993504146
P   P5        1.0  0.93280  0.16760  0.62640  1.0000 1.2993504146
P   P6        1.0  0.06720  0.33240  0.12640  1.0000 1.2993504146
P   P7        1.0  0.43280  0.83240  0.37360  1.0000 1.2993504146
P   P8        1.0  0.56720  0.66760  0.87360  1.0000 1.2993504146
H   H1        1.0  0.25000  0.62710  0.49750  1.0000 0.1715088526
H   H2        1.0  0.75000  0.87290  0.99750  1.0000 0.1715088526
H   H3        1.0  0.75000  0.37290  0.50250  1.0000 0.1715088526
H   H4        1.0  0.25000  0.12710  0.00250  1.0000 0.1715088526
H   H5        1.0  0.34230  0.70090  0.60700  1.0000 0.1778695176
H   H6        1.0  0.65770  0.79910  0.10700  1.0000 0.1778695176
H   H7        1.0  0.84230  0.29910  0.39300  1.0000 0.1778695176
H   H8        1.0  0.15770  0.20090  0.89300  1.0000 0.1778695176
H   H9        1.0  0.65770  0.29910  0.39300  1.0000 0.1778695176
H   H10       1.0  0.34230  0.20090  0.89300  1.0000 0.1778695176
H   H11       1.0  0.15770  0.70090  0.60700  1.0000 0.1778695176
H   H12       1.0  0.84230  0.79910  0.10700  1.0000 0.1778695176
H   H13       1.0  0.31800  0.49200  0.98490  1.0000 0.2307285035
H   H14       1.0  0.68200  0.00800  0.48490  1.0000 0.2307285035
H   H15       1.0  0.81800  0.50800  0.01510  1.0000 0.2307285035
H   H16       1.0  0.18200  0.99200  0.51510  1.0000 0.2307285035
H   H17       1.0  0.68200  0.50800  0.01510  1.0000 0.2307285035
H   H18       1.0  0.31800  0.99200  0.51510  1.0000 0.2307285035
H   H19       1.0  0.18200  0.49200  0.98490  1.0000 0.2307285035
H   H20       1.0  0.81800  0.00800  0.48490  1.0000 0.2307285035
C   C1        1.0  0.25000  0.82480  0.47010  1.0000 -0.1259584238
C   C2        1.0  0.75000  0.67520  0.97010  1.0000 -0.1259584238
C   C3        1.0  0.75000  0.17520  0.52990  1.0000 -0.1259584238
C   C4        1.0  0.25000  0.32480  0.02990  1.0000 -0.1259584238
C   C5        1.0  0.25000  0.70100  0.55200  1.0000 -0.3892082532
C   C6        1.0  0.75000  0.79900  0.05200  1.0000 -0.3892082532
C   C7        1.0  0.75000  0.29900  0.44800  1.0000 -0.3892082532
C   C8        1.0  0.25000  0.20100  0.94800  1.0000 -0.3892082532
O   O1        1.0  0.07390  0.72970  0.27130  1.0000 -0.7803700937
O   O2        1.0  0.92610  0.77030  0.77130  1.0000 -0.7803700937
O   O3        1.0  0.57390  0.27030  0.72870  1.0000 -0.7803700937
O   O4        1.0  0.42610  0.22970  0.22870  1.0000 -0.7803700937
O   O5        1.0  0.92610  0.27030  0.72870  1.0000 -0.7803700937
O   O6        1.0  0.07390  0.22970  0.22870  1.0000 -0.7803700937
O   O7        1.0  0.42610  0.72970  0.27130  1.0000 -0.7803700937
O   O8        1.0  0.57390  0.77030  0.77130  1.0000 -0.7803700937
O   O9        1.0  0.93010  0.81160  0.46270  1.0000 -0.7996181434
O   O10       1.0  0.06990  0.68840  0.96270  1.0000 -0.7996181434
O   O11       1.0  0.43010  0.18840  0.53730  1.0000 -0.7996181434
O   O12       1.0  0.56990  0.31160  0.03730  1.0000 -0.7996181434
O   O13       1.0  0.06990  0.18840  0.53730  1.0000 -0.7996181434
O   O14       1.0  0.93010  0.31160  0.03730  1.0000 -0.7996181434
O   O15       1.0  0.56990  0.81160  0.46270  1.0000 -0.7996181434
O   O16       1.0  0.43010  0.68840  0.96270  1.0000 -0.7996181434
O   O17       1.0  0.06920  0.96900  0.31780  1.0000 -0.7803700937
O   O18       1.0  0.93080  0.53100  0.81780  1.0000 -0.7803700937
O   O19       1.0  0.56920  0.03100  0.68220  1.0000 -0.7803700937
O   O20       1.0  0.43080  0.46900  0.18220  1.0000 -0.7803700937
O   O21       1.0  0.93080  0.03100  0.68220  1.0000 -0.7803700937
O   O22       1.0  0.06920  0.46900  0.18220  1.0000 -0.7803700937
O   O23       1.0  0.43080  0.96900  0.31780  1.0000 -0.7803700937
O   O24       1.0  0.56920  0.53100  0.81780  1.0000 -0.7803700937
O   O25       1.0  0.25000  0.94220  0.54360  1.0000 -0.414055649
O   O26       1.0  0.75000  0.55780  0.04360  1.0000 -0.414055649
O   O27       1.0  0.75000  0.05780  0.45640  1.0000 -0.414055649
O   O28       1.0  0.25000  0.44220  0.95640  1.0000 -0.414055649
