# DDEC6 charges by PACMAN v1.1 (https://github.com/mtap-research/PACMAN-charge/)
data_2011[Co][bbf]3[ASR]1
_chemical_formula_sum              "Co4 H76 C76 N16 O20"
_cell_length_a       7.2765
_cell_length_b       16.9791
_cell_length_c       17.7748
_cell_angle_alpha    90
_cell_angle_beta     107.46
_cell_angle_gamma    90

_symmetry_space_group_name_H-M    "P 1"
_symmetry_Int_Tables_number       1

loop_
  _symmetry_equiv_pos_as_xyz
  'x, y, z'

loop_
  _atom_site_type_symbol
  _atom_site_label
  _atom_site_symmetry_multiplicity
  _atom_site_fract_x
  _atom_site_fract_y
  _atom_site_fract_z
  _atom_site_occupancy
  _atom_site_charge
Co  Co1       1.0  0.62808  0.20130  0.19338  1.0000 0.7875171909
Co  Co2       1.0  0.37192  0.70130  0.30662  1.0000 0.7875171909
Co  Co3       1.0  0.37192  0.79870  0.80662  1.0000 0.7875171909
Co  Co4       1.0  0.62808  0.29870  0.69338  1.0000 0.7875171909
H   H1        1.0  0.36060  0.51950  0.53830  1.0000 0.1022120662
H   H2        1.0  0.63940  0.01950  0.96170  1.0000 0.1022120662
H   H3        1.0  0.63940  0.48050  0.46170  1.0000 0.1022120662
H   H4        1.0  0.36060  0.98050  0.03830  1.0000 0.1022120662
H   H5        1.0  0.48160  0.44110  0.55390  1.0000 0.1022120662
H   H6        1.0  0.51840  0.94110  0.94610  1.0000 0.1022120662
H   H7        1.0  0.51840  0.55890  0.44610  1.0000 0.1022120662
H   H8        1.0  0.48160  0.05890  0.05390  1.0000 0.1022120662
H   H9        1.0  0.06240  0.36770  0.34740  1.0000 0.1389973583
H   H10       1.0  0.93760  0.86770  0.15260  1.0000 0.1389973583
H   H11       1.0  0.93760  0.63230  0.65260  1.0000 0.1389973583
H   H12       1.0  0.06240  0.13230  0.84740  1.0000 0.1389973583
H   H13       1.0  0.69920  0.29790  0.46370  1.0000 0.1214567369
H   H14       1.0  0.30080  0.79790  0.03630  1.0000 0.1214567369
H   H15       1.0  0.30080  0.70210  0.53630  1.0000 0.1214567369
H   H16       1.0  0.69920  0.20210  0.96370  1.0000 0.1214567369
H   H17       1.0  0.16440  0.42630  0.57310  1.0000 0.1214567369
H   H18       1.0  0.83560  0.92630  0.92690  1.0000 0.1214567369
H   H19       1.0  0.83560  0.57370  0.42690  1.0000 0.1214567369
H   H20       1.0  0.16440  0.07370  0.07310  1.0000 0.1214567369
H   H21       1.0  0.97320  0.96730  0.36830  1.0000 0.1022120662
H   H22       1.0  0.02680  0.46730  0.13170  1.0000 0.1022120662
H   H23       1.0  0.02680  0.03270  0.63170  1.0000 0.1022120662
H   H24       1.0  0.97320  0.53270  0.86830  1.0000 0.1022120662
H   H25       1.0  0.09820  0.95750  0.45650  1.0000 0.1022120662
H   H26       1.0  0.90180  0.45750  0.04350  1.0000 0.1022120662
H   H27       1.0  0.90180  0.04250  0.54350  1.0000 0.1022120662
H   H28       1.0  0.09820  0.54250  0.95650  1.0000 0.1022120662
H   H29       1.0  0.11390  0.99990  0.26800  1.0000 0.1214567369
H   H30       1.0  0.88610  0.49990  0.23200  1.0000 0.1214567369
H   H31       1.0  0.88610  0.00010  0.73200  1.0000 0.1214567369
H   H32       1.0  0.11390  0.50010  0.76800  1.0000 0.1214567369
H   H33       1.0  0.21700  0.91790  0.27760  1.0000 0.1086000958
H   H34       1.0  0.78300  0.41790  0.22240  1.0000 0.1086000958
H   H35       1.0  0.78300  0.08210  0.72240  1.0000 0.1086000958
H   H36       1.0  0.21700  0.58210  0.77760  1.0000 0.1086000958
H   H37       1.0  0.88480  0.84880  0.51190  1.0000 0.1284218673
H   H38       1.0  0.11520  0.34880  0.98810  1.0000 0.1284218673
H   H39       1.0  0.11520  0.15120  0.48810  1.0000 0.1284218673
H   H40       1.0  0.88480  0.65120  0.01190  1.0000 0.1284218673
H   H41       1.0  0.73200  0.01310  0.20140  1.0000 0.1284218673
H   H42       1.0  0.26800  0.51310  0.29860  1.0000 0.1284218673
H   H43       1.0  0.26800  0.98690  0.79860  1.0000 0.1284218673
H   H44       1.0  0.73200  0.48690  0.70140  1.0000 0.1284218673
H   H45       1.0  0.57850  0.77970  0.47540  1.0000 0.1284218673
H   H46       1.0  0.42150  0.27970  0.02460  1.0000 0.1284218673
H   H47       1.0  0.42150  0.22030  0.52460  1.0000 0.1284218673
H   H48       1.0  0.57850  0.72030  0.97540  1.0000 0.1284218673
H   H49       1.0  0.37980  0.94560  0.40890  1.0000 0.1022120662
H   H50       1.0  0.62020  0.44560  0.09110  1.0000 0.1022120662
H   H51       1.0  0.62020  0.05440  0.59110  1.0000 0.1022120662
H   H52       1.0  0.37980  0.55440  0.90890  1.0000 0.1022120662
H   H53       1.0  0.28910  0.03030  0.39990  1.0000 0.1022120662
H   H54       1.0  0.71090  0.53030  0.10010  1.0000 0.1022120662
H   H55       1.0  0.71090  0.96970  0.60010  1.0000 0.1022120662
H   H56       1.0  0.28910  0.46970  0.89990  1.0000 0.1022120662
H   H57       1.0  0.17860  0.83190  0.43470  1.0000 0.1214567369
H   H58       1.0  0.82140  0.33190  0.06530  1.0000 0.1214567369
H   H59       1.0  0.82140  0.16810  0.56530  1.0000 0.1214567369
H   H60       1.0  0.17860  0.66810  0.93470  1.0000 0.1214567369
H   H61       1.0  0.08800  0.84130  0.34340  1.0000 0.1214567369
H   H62       1.0  0.91200  0.34130  0.15660  1.0000 0.1214567369
H   H63       1.0  0.91200  0.15870  0.65660  1.0000 0.1214567369
H   H64       1.0  0.08800  0.65870  0.84340  1.0000 0.1214567369
H   H65       1.0  0.54400  0.91360  0.24510  1.0000 0.1284218673
H   H66       1.0  0.45600  0.41360  0.25490  1.0000 0.1284218673
H   H67       1.0  0.45600  0.08640  0.75490  1.0000 0.1284218673
H   H68       1.0  0.54400  0.58640  0.74510  1.0000 0.1284218673
H   H69       1.0  0.76810  0.77720  0.29270  1.0000 0.1214567369
H   H70       1.0  0.23190  0.27720  0.20730  1.0000 0.1214567369
H   H71       1.0  0.23190  0.22280  0.70730  1.0000 0.1214567369
H   H72       1.0  0.76810  0.72280  0.79270  1.0000 0.1214567369
H   H73       1.0  0.33510  0.12290  0.26500  1.0000 0.1214567369
H   H74       1.0  0.66490  0.62290  0.23500  1.0000 0.1214567369
H   H75       1.0  0.66490  0.87710  0.73500  1.0000 0.1214567369
H   H76       1.0  0.33510  0.37710  0.76500  1.0000 0.1214567369
C   C1        1.0  0.13720  0.40590  0.45920  1.0000 0.2460718462
C   C2        1.0  0.86280  0.90590  0.04080  1.0000 0.2460718462
C   C3        1.0  0.86280  0.59410  0.54080  1.0000 0.2460718462
C   C4        1.0  0.13720  0.09410  0.95920  1.0000 0.2460718462
C   C5        1.0  0.42410  0.48070  0.51460  1.0000 -0.0426994919
C   C6        1.0  0.57590  0.98070  0.98540  1.0000 -0.0426994919
C   C7        1.0  0.57590  0.51930  0.48540  1.0000 -0.0426994919
C   C8        1.0  0.42410  0.01930  0.01460  1.0000 -0.0426994919
C   C9        1.0  0.02670  0.36670  0.39350  1.0000 -0.2390592089
C   C10       1.0  0.97330  0.86670  0.10650  1.0000 -0.2390592089
C   C11       1.0  0.97330  0.63330  0.60650  1.0000 -0.2390592089
C   C12       1.0  0.02670  0.13330  0.89350  1.0000 -0.2390592089
C   C13       1.0  0.81100  0.32392  0.46290  1.0000 -0.1673571607
C   C14       1.0  0.18900  0.82392  0.03710  1.0000 -0.1673571607
C   C15       1.0  0.18900  0.67608  0.53710  1.0000 -0.1673571607
C   C16       1.0  0.81100  0.17608  0.96290  1.0000 -0.1673571607
C   C17       1.0  0.92480  0.36080  0.53060  1.0000 -0.0113374039
C   C18       1.0  0.07520  0.86080  0.96940  1.0000 -0.0113374039
C   C19       1.0  0.07520  0.63920  0.46940  1.0000 -0.0113374039
C   C20       1.0  0.92480  0.13920  0.03060  1.0000 -0.0113374039
C   C21       1.0  0.87060  0.35600  0.60580  1.0000 0.5389207015
C   C22       1.0  0.12940  0.85600  0.89420  1.0000 0.5389207015
C   C23       1.0  0.12940  0.64400  0.39420  1.0000 0.5389207015
C   C24       1.0  0.87060  0.14400  0.10580  1.0000 0.5389207015
C   C25       1.0  0.08770  0.40160  0.52790  1.0000 -0.2390592089
C   C26       1.0  0.91230  0.90160  0.97210  1.0000 -0.2390592089
C   C27       1.0  0.91230  0.59840  0.47210  1.0000 -0.2390592089
C   C28       1.0  0.08770  0.09840  0.02790  1.0000 -0.2390592089
C   C29       1.0  0.86310  0.32570  0.39470  1.0000 -0.003831043
C   C30       1.0  0.13690  0.82570  0.10530  1.0000 -0.003831043
C   C31       1.0  0.13690  0.67430  0.60530  1.0000 -0.003831043
C   C32       1.0  0.86310  0.17430  0.89470  1.0000 -0.003831043
C   C33       1.0  0.74620  0.28200  0.32230  1.0000 0.5332146296
C   C34       1.0  0.25380  0.78200  0.17770  1.0000 0.5332146296
C   C35       1.0  0.25380  0.71800  0.67770  1.0000 0.5332146296
C   C36       1.0  0.74620  0.21800  0.82230  1.0000 0.5332146296
C   C37       1.0  0.08900  0.94330  0.40260  1.0000 -0.1911619222
C   C38       1.0  0.91100  0.44330  0.09740  1.0000 -0.1911619222
C   C39       1.0  0.91100  0.05670  0.59740  1.0000 -0.1911619222
C   C40       1.0  0.08900  0.55670  0.90260  1.0000 -0.1911619222
C   C41       1.0  0.23280  0.97250  0.29430  1.0000 -0.1200932236
C   C42       1.0  0.76720  0.47250  0.20570  1.0000 -0.1200932236
C   C43       1.0  0.76720  0.02750  0.70570  1.0000 -0.1200932236
C   C44       1.0  0.23280  0.52750  0.79430  1.0000 -0.1200932236
C   C45       1.0  0.82470  0.82570  0.46330  1.0000 -0.1094568772
C   C46       1.0  0.17530  0.32570  0.03670  1.0000 -0.1094568772
C   C47       1.0  0.17530  0.17430  0.53670  1.0000 -0.1094568772
C   C48       1.0  0.82470  0.67430  0.96330  1.0000 -0.1094568772
C   C49       1.0  0.62920  0.02320  0.22090  1.0000 -0.0426994919
C   C50       1.0  0.37080  0.52320  0.27910  1.0000 -0.0426994919
C   C51       1.0  0.37080  0.97680  0.77910  1.0000 -0.0426994919
C   C52       1.0  0.62920  0.47680  0.72090  1.0000 -0.0426994919
C   C53       1.0  0.65510  0.78780  0.44260  1.0000 -0.0426994919
C   C54       1.0  0.34490  0.28780  0.05740  1.0000 -0.0426994919
C   C55       1.0  0.34490  0.21220  0.55740  1.0000 -0.0426994919
C   C56       1.0  0.65510  0.71220  0.94260  1.0000 -0.0426994919
C   C57       1.0  0.26650  0.97620  0.38210  1.0000 -0.1841482325
C   C58       1.0  0.73350  0.47620  0.11790  1.0000 -0.1841482325
C   C59       1.0  0.73350  0.02380  0.61790  1.0000 -0.1841482325
C   C60       1.0  0.26650  0.52380  0.88210  1.0000 -0.1841482325
C   C61       1.0  0.07340  0.85590  0.39400  1.0000 -0.1200932236
C   C62       1.0  0.92660  0.35590  0.10600  1.0000 -0.1200932236
C   C63       1.0  0.92660  0.14410  0.60600  1.0000 -0.1200932236
C   C64       1.0  0.07340  0.64410  0.89400  1.0000 -0.1200932236
C   C65       1.0  0.52630  0.96780  0.24500  1.0000 -0.1094568772
C   C66       1.0  0.47370  0.46780  0.25500  1.0000 -0.1094568772
C   C67       1.0  0.47370  0.03220  0.75500  1.0000 -0.1094568772
C   C68       1.0  0.52630  0.53220  0.74500  1.0000 -0.1094568772
C   C69       1.0  0.75820  0.78610  0.34290  1.0000 0.1022120662
C   C70       1.0  0.24180  0.28610  0.15710  1.0000 0.1022120662
C   C71       1.0  0.24180  0.21390  0.65710  1.0000 0.1022120662
C   C72       1.0  0.75820  0.71390  0.84290  1.0000 0.1022120662
C   C73       1.0  0.41450  0.08330  0.25610  1.0000 0.1214567369
C   C74       1.0  0.58550  0.58330  0.24390  1.0000 0.1214567369
C   C75       1.0  0.58550  0.91670  0.74390  1.0000 0.1214567369
C   C76       1.0  0.41450  0.41670  0.75610  1.0000 0.1214567369
N   N1        1.0  0.61170  0.76275  0.36580  1.0000 -0.3100333652
N   N2        1.0  0.38830  0.26275  0.13420  1.0000 -0.3100333652
N   N3        1.0  0.38830  0.23725  0.63420  1.0000 -0.3100333652
N   N4        1.0  0.61170  0.73725  0.86580  1.0000 -0.3100333652
N   N5        1.0  0.55981  0.09649  0.22971  1.0000 -0.3100333652
N   N6        1.0  0.44019  0.59649  0.27029  1.0000 -0.3100333652
N   N7        1.0  0.44019  0.90351  0.77029  1.0000 -0.3100333652
N   N8        1.0  0.55981  0.40351  0.72971  1.0000 -0.3100333652
N   N9        1.0  0.39080  0.00752  0.26900  1.0000 0.0472202832
N   N10       1.0  0.60920  0.50752  0.23100  1.0000 0.0472202832
N   N11       1.0  0.60920  0.99248  0.73100  1.0000 0.0472202832
N   N12       1.0  0.39080  0.49248  0.76900  1.0000 0.0472202832
N   N13       1.0  0.89200  0.82411  0.39960  1.0000 0.0434123138
N   N14       1.0  0.10800  0.32411  0.10040  1.0000 0.0434123138
N   N15       1.0  0.10800  0.17589  0.60040  1.0000 0.0434123138
N   N16       1.0  0.89200  0.67589  0.89960  1.0000 0.0434123138
O   O1        1.0  0.29133  0.44591  0.44883  1.0000 -0.1673571607
O   O2        1.0  0.70867  0.94591  0.05117  1.0000 -0.1673571607
O   O3        1.0  0.70867  0.55409  0.55117  1.0000 -0.1673571607
O   O4        1.0  0.29133  0.05409  0.94883  1.0000 -0.1673571607
O   O5        1.0  0.71708  0.31702  0.60128  1.0000 -0.5677602878
O   O6        1.0  0.28292  0.81702  0.89872  1.0000 -0.5677602878
O   O7        1.0  0.28292  0.68298  0.39872  1.0000 -0.5677602878
O   O8        1.0  0.71708  0.18298  0.10128  1.0000 -0.5677602878
O   O9        1.0  0.58437  0.25602  0.31747  1.0000 -0.5527812755
O   O10       1.0  0.41563  0.75602  0.18253  1.0000 -0.5527812755
O   O11       1.0  0.41563  0.74398  0.68253  1.0000 -0.5527812755
O   O12       1.0  0.58437  0.24398  0.81747  1.0000 -0.5527812755
O   O13       1.0  0.97167  0.38680  0.66667  1.0000 -0.5527812755
O   O14       1.0  0.02833  0.88680  0.83333  1.0000 -0.5527812755
O   O15       1.0  0.02833  0.61320  0.33333  1.0000 -0.5527812755
O   O16       1.0  0.97167  0.11320  0.16667  1.0000 -0.5527812755
O   O17       1.0  0.82286  0.27094  0.26686  1.0000 -0.5608806601
O   O18       1.0  0.17714  0.77094  0.23314  1.0000 -0.5608806601
O   O19       1.0  0.17714  0.72906  0.73314  1.0000 -0.5608806601
O   O20       1.0  0.82286  0.22906  0.76686  1.0000 -0.5608806601
