# DDEC6 charges by PACMAN v1.1 (https://github.com/mtap-research/PACMAN-charge/)
data_2011[Zn][nan]3[ASR]9
_chemical_formula_sum              "Zn8 H92 C148 N28 O32"
_cell_length_a       17.797
_cell_length_b       7.73
_cell_length_c       26.675
_cell_angle_alpha    90
_cell_angle_beta     93.466
_cell_angle_gamma    90

_symmetry_space_group_name_H-M    "P 1"
_symmetry_Int_Tables_number       1

loop_
  _symmetry_equiv_pos_as_xyz
  'x, y, z'

loop_
  _atom_site_type_symbol
  _atom_site_label
  _atom_site_symmetry_multiplicity
  _atom_site_fract_x
  _atom_site_fract_y
  _atom_site_fract_z
  _atom_site_occupancy
  _atom_site_charge
Zn  Zn1       1.0  0.19657  0.43200  0.02400  1.0000 0.8588789057
Zn  Zn2       1.0  0.80343  0.93200  0.47600  1.0000 0.8588789057
Zn  Zn3       1.0  0.80343  0.56800  0.97600  1.0000 0.8588789057
Zn  Zn4       1.0  0.19657  0.06800  0.52400  1.0000 0.8588789057
Zn  Zn5       1.0  0.30341  0.97647  0.96333  1.0000 0.8017337273
Zn  Zn6       1.0  0.69659  0.47647  0.53667  1.0000 0.8017337273
Zn  Zn7       1.0  0.69659  0.02353  0.03667  1.0000 0.8017337273
Zn  Zn8       1.0  0.30341  0.52353  0.46333  1.0000 0.8017337273
H   H1        1.0  0.04260  0.27740  0.98980  1.0000 0.1203686607
H   H2        1.0  0.95740  0.77740  0.51020  1.0000 0.1203686607
H   H3        1.0  0.95740  0.72260  0.01020  1.0000 0.1203686607
H   H4        1.0  0.04260  0.22260  0.48980  1.0000 0.1203686607
H   H5        1.0  0.45280  0.64420  0.06640  1.0000 0.1203686607
H   H6        1.0  0.54720  0.14420  0.43360  1.0000 0.1203686607
H   H7        1.0  0.54720  0.35580  0.93360  1.0000 0.1203686607
H   H8        1.0  0.45280  0.85580  0.56640  1.0000 0.1203686607
H   H9        1.0  0.76800  0.32870  0.09340  1.0000 0.1203686607
H   H10       1.0  0.23200  0.82870  0.40660  1.0000 0.1203686607
H   H11       1.0  0.23200  0.67130  0.90660  1.0000 0.1203686607
H   H12       1.0  0.76800  0.17130  0.59340  1.0000 0.1203686607
H   H13       1.0  0.56640  0.14540  0.11120  1.0000 0.1294649695
H   H14       1.0  0.43360  0.64540  0.38880  1.0000 0.1294649695
H   H15       1.0  0.43360  0.85460  0.88880  1.0000 0.1294649695
H   H16       1.0  0.56640  0.35460  0.61120  1.0000 0.1294649695
H   H17       1.0  0.58180  0.39990  0.16390  1.0000 0.1294649695
H   H18       1.0  0.41820  0.89990  0.33610  1.0000 0.1294649695
H   H19       1.0  0.41820  0.60010  0.83610  1.0000 0.1294649695
H   H20       1.0  0.58180  0.10010  0.66390  1.0000 0.1294649695
H   H21       1.0  0.77640  0.64200  0.09970  1.0000 0.1406702244
H   H22       1.0  0.22360  0.14200  0.40030  1.0000 0.1406702244
H   H23       1.0  0.22360  0.35800  0.90030  1.0000 0.1406702244
H   H24       1.0  0.77640  0.85800  0.59970  1.0000 0.1406702244
H   H25       1.0  0.83020  0.88730  0.13470  1.0000 0.1294649695
H   H26       1.0  0.16980  0.38730  0.36530  1.0000 0.1294649695
H   H27       1.0  0.16980  0.11270  0.86530  1.0000 0.1294649695
H   H28       1.0  0.83020  0.61270  0.63470  1.0000 0.1294649695
H   H29       1.0  0.72680  0.79720  0.26110  1.0000 0.1203686607
H   H30       1.0  0.27320  0.29720  0.23890  1.0000 0.1203686607
H   H31       1.0  0.27320  0.20280  0.73890  1.0000 0.1203686607
H   H32       1.0  0.72680  0.70280  0.76110  1.0000 0.1203686607
H   H33       1.0  0.67370  0.54990  0.22570  1.0000 0.1203686607
H   H34       1.0  0.32630  0.04990  0.27430  1.0000 0.1203686607
H   H35       1.0  0.32630  0.45010  0.77430  1.0000 0.1203686607
H   H36       1.0  0.67370  0.95010  0.72570  1.0000 0.1203686607
H   H37       1.0  0.68420  0.12950  0.23120  1.0000 0.1294649695
H   H38       1.0  0.31580  0.62950  0.26880  1.0000 0.1294649695
H   H39       1.0  0.31580  0.87050  0.76880  1.0000 0.1294649695
H   H40       1.0  0.68420  0.37050  0.73120  1.0000 0.1294649695
H   H41       1.0  0.63090  0.26440  0.29800  1.0000 0.1294649695
H   H42       1.0  0.36910  0.76440  0.20200  1.0000 0.1294649695
H   H43       1.0  0.36910  0.73560  0.70200  1.0000 0.1294649695
H   H44       1.0  0.63090  0.23560  0.79800  1.0000 0.1294649695
H   H45       1.0  0.83010  0.25320  0.37530  1.0000 0.1294649695
H   H46       1.0  0.16990  0.75320  0.12470  1.0000 0.1294649695
H   H47       1.0  0.16990  0.74680  0.62470  1.0000 0.1294649695
H   H48       1.0  0.83010  0.24680  0.87530  1.0000 0.1294649695
H   H49       1.0  0.88240  0.11420  0.30890  1.0000 0.1203686607
H   H50       1.0  0.11760  0.61420  0.19110  1.0000 0.1203686607
H   H51       1.0  0.11760  0.88580  0.69110  1.0000 0.1203686607
H   H52       1.0  0.88240  0.38580  0.80890  1.0000 0.1203686607
H   H53       1.0  0.76390  0.28930  0.44440  1.0000 0.1120359264
H   H54       1.0  0.23610  0.78930  0.05560  1.0000 0.1120359264
H   H55       1.0  0.23610  0.71070  0.55560  1.0000 0.1120359264
H   H56       1.0  0.76390  0.21070  0.94440  1.0000 0.1203686607
H   H57       1.0  0.59500  0.46870  0.35630  1.0000 0.1294649695
H   H58       1.0  0.40500  0.96870  0.14370  1.0000 0.1294649695
H   H59       1.0  0.40500  0.53130  0.64370  1.0000 0.1294649695
H   H60       1.0  0.59500  0.03130  0.85630  1.0000 0.1294649695
H   H61       1.0  0.57790  0.56100  0.44200  1.0000 0.1294649695
H   H62       1.0  0.42210  0.06100  0.05800  1.0000 0.1294649695
H   H63       1.0  0.42210  0.43900  0.55800  1.0000 0.1294649695
H   H64       1.0  0.57790  0.93900  0.94200  1.0000 0.1294649695
H   H65       1.0  0.94560  0.84730  0.21620  1.0000 0.1294649695
H   H66       1.0  0.05440  0.34730  0.28380  1.0000 0.1294649695
H   H67       1.0  0.05440  0.15270  0.78380  1.0000 0.1294649695
H   H68       1.0  0.94560  0.65270  0.71620  1.0000 0.1294649695
H   H69       1.0  0.05550  0.93400  0.18230  1.0000 0.1294649695
H   H70       1.0  0.94450  0.43400  0.31770  1.0000 0.1294649695
H   H71       1.0  0.94450  0.06600  0.81770  1.0000 0.1294649695
H   H72       1.0  0.05550  0.56600  0.68230  1.0000 0.1294649695
H   H73       1.0  0.97280  0.40920  0.16270  1.0000 0.1294649695
H   H74       1.0  0.02720  0.90920  0.33730  1.0000 0.1294649695
H   H75       1.0  0.02720  0.59080  0.83730  1.0000 0.1294649695
H   H76       1.0  0.97280  0.09080  0.66270  1.0000 0.1294649695
H   H77       1.0  0.86010  0.32110  0.19430  1.0000 0.1294649695
H   H78       1.0  0.13990  0.82110  0.30570  1.0000 0.1294649695
H   H79       1.0  0.13990  0.67890  0.80570  1.0000 0.1294649695
H   H80       1.0  0.86010  0.17890  0.69430  1.0000 0.1294649695
H   H81       1.0  0.17630  0.10150  0.18510  1.0000 0.1203686607
H   H82       1.0  0.82370  0.60150  0.31490  1.0000 0.1203686607
H   H83       1.0  0.82370  0.89850  0.81490  1.0000 0.1203686607
H   H84       1.0  0.17630  0.39850  0.68510  1.0000 0.1203686607
H   H85       1.0  0.05310  0.37770  0.08660  1.0000 0.1203686607
H   H86       1.0  0.94690  0.87770  0.41340  1.0000 0.1203686607
H   H87       1.0  0.94690  0.62230  0.91340  1.0000 0.1203686607
H   H88       1.0  0.05310  0.12230  0.58660  1.0000 0.1203686607
H   H89       1.0  0.25850  0.21820  0.12340  1.0000 0.1294649695
H   H90       1.0  0.74150  0.71820  0.37660  1.0000 0.1294649695
H   H91       1.0  0.74150  0.78180  0.87660  1.0000 0.1294649695
H   H92       1.0  0.25850  0.28180  0.62340  1.0000 0.1294649695
C   C1        1.0  0.07431  0.02880  0.98808  1.0000 -0.0556871567
C   C2        1.0  0.92569  0.52880  0.51192  1.0000 -0.0556871567
C   C3        1.0  0.92569  0.97120  0.01192  1.0000 -0.0556871567
C   C4        1.0  0.07431  0.47120  0.48808  1.0000 -0.0556871567
C   C5        1.0  0.02515  0.16530  0.99415  1.0000 -0.147039992
C   C6        1.0  0.97485  0.66530  0.50585  1.0000 -0.147039992
C   C7        1.0  0.97485  0.83470  0.00585  1.0000 -0.147039992
C   C8        1.0  0.02515  0.33470  0.49415  1.0000 -0.147039992
C   C9        1.0  0.04880  0.85760  0.99364  1.0000 -0.0115049165
C   C10       1.0  0.95120  0.35760  0.50636  1.0000 -0.0115049165
C   C11       1.0  0.95120  0.14240  0.00636  1.0000 -0.0115049165
C   C12       1.0  0.04880  0.64240  0.49364  1.0000 -0.0115049165
C   C13       1.0  0.15339  0.07010  0.97607  1.0000 0.5783370536
C   C14       1.0  0.84661  0.57010  0.52393  1.0000 0.5783370536
C   C15       1.0  0.84661  0.92990  0.02393  1.0000 0.5783370536
C   C16       1.0  0.15339  0.42990  0.47607  1.0000 0.5783370536
C   C17       1.0  0.09406  0.69240  0.98686  1.0000 0.5741288613
C   C18       1.0  0.90594  0.19240  0.51314  1.0000 0.5741288613
C   C19       1.0  0.90594  0.30760  0.01314  1.0000 0.5741288613
C   C20       1.0  0.09406  0.80760  0.48686  1.0000 0.5741288613
C   C21       1.0  0.34411  0.45850  0.02638  1.0000 0.5614091109
C   C22       1.0  0.65589  0.95850  0.47362  1.0000 0.5614091109
C   C23       1.0  0.65589  0.54150  0.97362  1.0000 0.5614091109
C   C24       1.0  0.34411  0.04150  0.52638  1.0000 0.5614091109
C   C25       1.0  0.42454  0.47630  0.01138  1.0000 -0.0166511445
C   C26       1.0  0.57546  0.97630  0.48862  1.0000 -0.0166511445
C   C27       1.0  0.57546  0.52370  0.98862  1.0000 -0.0166511445
C   C28       1.0  0.42454  0.02370  0.51138  1.0000 -0.0166511445
C   C29       1.0  0.40934  0.25110  0.94217  1.0000 0.5614091109
C   C30       1.0  0.59066  0.75110  0.55783  1.0000 0.5614091109
C   C31       1.0  0.59066  0.74890  0.05783  1.0000 0.5614091109
C   C32       1.0  0.40934  0.24890  0.44217  1.0000 0.5614091109
C   C33       1.0  0.45367  0.38830  0.97101  1.0000 -0.0479677964
C   C34       1.0  0.54633  0.88830  0.52899  1.0000 -0.0479677964
C   C35       1.0  0.54633  0.61170  0.02899  1.0000 -0.0479677964
C   C36       1.0  0.45367  0.11170  0.47101  1.0000 -0.0479677964
C   C37       1.0  0.47169  0.58570  0.03946  1.0000 -0.1328514267
C   C38       1.0  0.52831  0.08570  0.46054  1.0000 -0.1328514267
C   C39       1.0  0.52831  0.41430  0.96054  1.0000 -0.1328514267
C   C40       1.0  0.47169  0.91430  0.53946  1.0000 -0.1328514267
C   C41       1.0  0.71980  0.31430  0.10431  1.0000 0.1203686607
C   C42       1.0  0.28020  0.81430  0.39569  1.0000 0.1203686607
C   C43       1.0  0.28020  0.68570  0.89569  1.0000 0.1203686607
C   C44       1.0  0.71980  0.18570  0.60431  1.0000 0.1203686607
C   C45       1.0  0.60920  0.21470  0.11426  1.0000 -0.0287370847
C   C46       1.0  0.39080  0.71470  0.38574  1.0000 -0.0287370847
C   C47       1.0  0.39080  0.78530  0.88574  1.0000 -0.0287370847
C   C48       1.0  0.60920  0.28530  0.61426  1.0000 -0.0287370847
C   C49       1.0  0.61730  0.35460  0.14338  1.0000 -0.099022587
C   C50       1.0  0.38270  0.85460  0.35662  1.0000 -0.099022587
C   C51       1.0  0.38270  0.64540  0.85662  1.0000 -0.099022587
C   C52       1.0  0.61730  0.14540  0.64338  1.0000 -0.099022587
C   C53       1.0  0.72069  0.57110  0.15951  1.0000 0.1499108717
C   C54       1.0  0.27931  0.07110  0.34049  1.0000 0.1499108717
C   C55       1.0  0.27931  0.42890  0.84049  1.0000 0.1499108717
C   C56       1.0  0.72069  0.92890  0.65951  1.0000 0.1499108717
C   C57       1.0  0.76690  0.67270  0.13241  1.0000 -0.1384275157
C   C58       1.0  0.23310  0.17270  0.36759  1.0000 -0.1384275157
C   C59       1.0  0.23310  0.32730  0.86759  1.0000 -0.1384275157
C   C60       1.0  0.76690  0.82730  0.63241  1.0000 -0.1384275157
C   C61       1.0  0.79900  0.81950  0.15336  1.0000 -0.1619362358
C   C62       1.0  0.20100  0.31950  0.34664  1.0000 -0.1619362358
C   C63       1.0  0.20100  0.18050  0.84664  1.0000 -0.1619362358
C   C64       1.0  0.79900  0.68050  0.65336  1.0000 -0.1619362358
C   C65       1.0  0.78540  0.86760  0.20223  1.0000 0.1784180577
C   C66       1.0  0.21460  0.36760  0.29777  1.0000 0.1784180577
C   C67       1.0  0.21460  0.13240  0.79777  1.0000 0.1784180577
C   C68       1.0  0.78540  0.63240  0.70223  1.0000 0.1784180577
C   C69       1.0  0.73750  0.76570  0.22862  1.0000 -0.1808757067
C   C70       1.0  0.26250  0.26570  0.27138  1.0000 -0.1808757067
C   C71       1.0  0.26250  0.23430  0.77138  1.0000 -0.1808757067
C   C72       1.0  0.73750  0.73430  0.72862  1.0000 -0.1808757067
C   C73       1.0  0.70550  0.61770  0.20747  1.0000 -0.1619362358
C   C74       1.0  0.29450  0.11770  0.29253  1.0000 -0.1619362358
C   C75       1.0  0.29450  0.38230  0.79253  1.0000 -0.1619362358
C   C76       1.0  0.70550  0.88230  0.70747  1.0000 -0.1619362358
C   C77       1.0  0.78740  0.10650  0.26346  1.0000 0.1693795536
C   C78       1.0  0.21260  0.60650  0.23654  1.0000 0.1693795536
C   C79       1.0  0.21260  0.89350  0.73654  1.0000 0.1693795536
C   C80       1.0  0.78740  0.39350  0.76346  1.0000 0.1693795536
C   C81       1.0  0.71370  0.15270  0.26042  1.0000 -0.1685641494
C   C82       1.0  0.28630  0.65270  0.23958  1.0000 -0.1685641494
C   C83       1.0  0.28630  0.84730  0.73958  1.0000 -0.1685641494
C   C84       1.0  0.71370  0.34730  0.76042  1.0000 -0.1685641494
C   C85       1.0  0.68150  0.23400  0.30026  1.0000 -0.1685641494
C   C86       1.0  0.31850  0.73400  0.19974  1.0000 -0.1685641494
C   C87       1.0  0.31850  0.76600  0.69974  1.0000 -0.1685641494
C   C88       1.0  0.68150  0.26600  0.80026  1.0000 -0.1685641494
C   C89       1.0  0.72560  0.26900  0.34323  1.0000 0.1499108717
C   C90       1.0  0.27440  0.76900  0.15677  1.0000 0.1499108717
C   C91       1.0  0.27440  0.73100  0.65677  1.0000 0.1499108717
C   C92       1.0  0.72560  0.23100  0.84323  1.0000 0.1499108717
C   C93       1.0  0.80040  0.22670  0.34646  1.0000 -0.1619362358
C   C94       1.0  0.19960  0.72670  0.15354  1.0000 -0.1619362358
C   C95       1.0  0.19960  0.77330  0.65354  1.0000 -0.1619362358
C   C96       1.0  0.80040  0.27330  0.84646  1.0000 -0.1619362358
C   C97       1.0  0.83170  0.14430  0.30671  1.0000 -0.1808757067
C   C98       1.0  0.16830  0.64430  0.19329  1.0000 -0.1808757067
C   C99       1.0  0.16830  0.85570  0.69329  1.0000 -0.1808757067
C   C100      1.0  0.83170  0.35570  0.80671  1.0000 -0.1808757067
C   C101      1.0  0.71960  0.34490  0.43335  1.0000 0.1120359264
C   C102      1.0  0.28040  0.84490  0.06665  1.0000 0.1120359264
C   C103      1.0  0.28040  0.65510  0.56665  1.0000 0.1120359264
C   C104      1.0  0.71960  0.15510  0.93335  1.0000 0.1120359264
C   C105      1.0  0.62680  0.44390  0.38435  1.0000 -0.0946354729
C   C106      1.0  0.37320  0.94390  0.11565  1.0000 -0.0946354729
C   C107      1.0  0.37320  0.55610  0.61565  1.0000 -0.0946354729
C   C108      1.0  0.62680  0.05610  0.88435  1.0000 -0.0946354729
C   C109      1.0  0.61740  0.49360  0.43173  1.0000 -0.0115049165
C   C110      1.0  0.38260  0.99360  0.06827  1.0000 -0.0115049165
C   C111      1.0  0.38260  0.50640  0.56827  1.0000 -0.0115049165
C   C112      1.0  0.61740  0.00640  0.93173  1.0000 -0.0115049165
C   C113      1.0  0.89020  0.07300  0.20714  1.0000 0.1784180577
C   C114      1.0  0.10980  0.57300  0.29286  1.0000 0.1784180577
C   C115      1.0  0.10980  0.92700  0.79286  1.0000 0.1784180577
C   C116      1.0  0.89020  0.42700  0.70714  1.0000 0.1784180577
C   C117      1.0  0.95000  0.95990  0.20448  1.0000 -0.1685641494
C   C118      1.0  0.05000  0.45990  0.29552  1.0000 -0.1685641494
C   C119      1.0  0.05000  0.04010  0.79552  1.0000 -0.1685641494
C   C120      1.0  0.95000  0.54010  0.70448  1.0000 -0.1685641494
C   C121      1.0  0.01610  0.01190  0.18464  1.0000 -0.1685641494
C   C122      1.0  0.98390  0.51190  0.31536  1.0000 -0.1685641494
C   C123      1.0  0.98390  0.98810  0.81536  1.0000 -0.1685641494
C   C124      1.0  0.01610  0.48810  0.68464  1.0000 -0.1685641494
C   C125      1.0  0.02340  0.17930  0.16837  1.0000 0.1406702244
C   C126      1.0  0.97660  0.67930  0.33163  1.0000 0.1294649695
C   C127      1.0  0.97660  0.82070  0.83163  1.0000 0.1406702244
C   C128      1.0  0.02340  0.32070  0.66837  1.0000 0.1406702244
C   C129      1.0  0.96670  0.29490  0.17259  1.0000 -0.147039992
C   C130      1.0  0.03330  0.79490  0.32741  1.0000 -0.147039992
C   C131      1.0  0.03330  0.70510  0.82741  1.0000 -0.147039992
C   C132      1.0  0.96670  0.20510  0.67259  1.0000 -0.147039992
C   C133      1.0  0.89920  0.24230  0.19178  1.0000 -0.1685641494
C   C134      1.0  0.10080  0.74230  0.30822  1.0000 -0.1685641494
C   C135      1.0  0.10080  0.75770  0.80822  1.0000 -0.1685641494
C   C136      1.0  0.89920  0.25770  0.69178  1.0000 -0.1685641494
C   C137      1.0  0.16170  0.17140  0.15786  1.0000 -0.1073779773
C   C138      1.0  0.83830  0.67140  0.34214  1.0000 -0.1073779773
C   C139      1.0  0.83830  0.82860  0.84214  1.0000 -0.1073779773
C   C140      1.0  0.16170  0.32860  0.65786  1.0000 -0.1073779773
C   C141      1.0  0.09420  0.32400  0.10327  1.0000 0.103895108
C   C142      1.0  0.90580  0.82400  0.39673  1.0000 0.103895108
C   C143      1.0  0.90580  0.67600  0.89673  1.0000 0.103895108
C   C144      1.0  0.09420  0.17600  0.60327  1.0000 0.103895108
C   C145      1.0  0.20680  0.23590  0.12362  1.0000 -0.0287370847
C   C146      1.0  0.79320  0.73590  0.37638  1.0000 -0.0287370847
C   C147      1.0  0.79320  0.76410  0.87638  1.0000 -0.0287370847
C   C148      1.0  0.20680  0.26410  0.62362  1.0000 -0.0287370847
N   N1        1.0  0.82064  0.01520  0.22384  1.0000 -0.194523538
N   N2        1.0  0.17936  0.51520  0.27616  1.0000 -0.194523538
N   N3        1.0  0.17936  0.98480  0.77616  1.0000 -0.1962937612
N   N4        1.0  0.82064  0.48480  0.72384  1.0000 -0.194523538
N   N5        1.0  0.67376  0.18880  0.08954  1.0000 -0.2896750767
N   N6        1.0  0.32624  0.68880  0.41046  1.0000 -0.2896750767
N   N7        1.0  0.32624  0.81120  0.91046  1.0000 -0.2896750767
N   N8        1.0  0.67376  0.31120  0.58954  1.0000 -0.2896750767
N   N9        1.0  0.68787  0.41910  0.13725  1.0000 0.0067937189
N   N10       1.0  0.31213  0.91910  0.36275  1.0000 0.0067937189
N   N11       1.0  0.31213  0.58090  0.86275  1.0000 0.0067937189
N   N12       1.0  0.68787  0.08090  0.63725  1.0000 0.0067937189
N   N13       1.0  0.69207  0.34990  0.38508  1.0000 0.0012853443
N   N14       1.0  0.30793  0.84990  0.11492  1.0000 0.0012853443
N   N15       1.0  0.30793  0.65010  0.61492  1.0000 0.0012853443
N   N16       1.0  0.69207  0.15010  0.88508  1.0000 0.0012853443
N   N17       1.0  0.67529  0.42940  0.46263  1.0000 -0.2833829645
N   N18       1.0  0.32471  0.92940  0.03737  1.0000 -0.2833829645
N   N19       1.0  0.32471  0.57060  0.53737  1.0000 -0.2833829645
N   N20       1.0  0.67529  0.07060  0.96263  1.0000 -0.2833829645
N   N21       1.0  0.09078  0.22790  0.14493  1.0000 0.0067937189
N   N22       1.0  0.90922  0.72790  0.35507  1.0000 0.0067937189
N   N23       1.0  0.90922  0.77210  0.85507  1.0000 0.0067937189
N   N24       1.0  0.09078  0.27210  0.64493  1.0000 0.0067937189
N   N25       1.0  0.16448  0.33200  0.08901  1.0000 -0.2896750767
N   N26       1.0  0.83552  0.83200  0.41099  1.0000 -0.2896750767
N   N27       1.0  0.83552  0.66800  0.91099  1.0000 -0.2896750767
N   N28       1.0  0.16448  0.16800  0.58901  1.0000 -0.2896750767
O   O1        1.0  0.17766  0.22060  0.98041  1.0000 -0.5419109587
O   O2        1.0  0.82234  0.72060  0.51959  1.0000 -0.5419109587
O   O3        1.0  0.82234  0.77940  0.01959  1.0000 -0.5419109587
O   O4        1.0  0.17766  0.27940  0.48041  1.0000 -0.5419109587
O   O5        1.0  0.19270  0.94610  0.96102  1.0000 -0.5207240034
O   O6        1.0  0.80730  0.44610  0.53898  1.0000 -0.5207240034
O   O7        1.0  0.80730  0.05390  0.03898  1.0000 -0.5207240034
O   O8        1.0  0.19270  0.55390  0.46102  1.0000 -0.5207240034
O   O9        1.0  0.08465  0.61180  0.94794  1.0000 -0.5300973479
O   O10       1.0  0.91535  0.11180  0.55206  1.0000 -0.5300973479
O   O11       1.0  0.91535  0.38820  0.05206  1.0000 -0.5300973479
O   O12       1.0  0.08465  0.88820  0.44794  1.0000 -0.5300973479
O   O13       1.0  0.13469  0.64400  0.02509  1.0000 -0.5730539609
O   O14       1.0  0.86531  0.14400  0.47491  1.0000 -0.5730539609
O   O15       1.0  0.86531  0.35600  0.97491  1.0000 -0.5730539609
O   O16       1.0  0.13469  0.85600  0.52509  1.0000 -0.5730539609
O   O17       1.0  0.29090  0.50110  0.99501  1.0000 -0.5419109587
O   O18       1.0  0.70910  0.00110  0.50499  1.0000 -0.5419109587
O   O19       1.0  0.70910  0.49890  0.00499  1.0000 -0.5419109587
O   O20       1.0  0.29090  0.99890  0.49501  1.0000 -0.5419109587
O   O21       1.0  0.33290  0.41270  0.06924  1.0000 -0.5493495364
O   O22       1.0  0.66710  0.91270  0.43076  1.0000 -0.5493495364
O   O23       1.0  0.66710  0.58730  0.93076  1.0000 -0.5493495364
O   O24       1.0  0.33290  0.08730  0.56924  1.0000 -0.5493495364
O   O25       1.0  0.35719  0.18730  0.96564  1.0000 -0.5300973479
O   O26       1.0  0.64281  0.68730  0.53436  1.0000 -0.5300973479
O   O27       1.0  0.64281  0.81270  0.03436  1.0000 -0.5300973479
O   O28       1.0  0.35719  0.31270  0.46564  1.0000 -0.5300973479
O   O29       1.0  0.42652  0.20580  0.90054  1.0000 -0.5493495364
O   O30       1.0  0.57348  0.70580  0.59946  1.0000 -0.5493495364
O   O31       1.0  0.57348  0.79420  0.09946  1.0000 -0.5493495364
O   O32       1.0  0.42652  0.29420  0.40054  1.0000 -0.5493495364
