# DDEC6 charges by PACMAN v1.1 (https://github.com/mtap-research/PACMAN-charge/)
data_2011[Mn][nan]3[ASR]1
_chemical_formula_sum              "Mn8 H72 C120 O40"
_cell_length_a       8.6801
_cell_length_b       28.708
_cell_length_c       13.9279
_cell_angle_alpha    90
_cell_angle_beta     90.91
_cell_angle_gamma    90

_symmetry_space_group_name_H-M    "P 1"
_symmetry_Int_Tables_number       1

loop_
  _symmetry_equiv_pos_as_xyz
  'x, y, z'

loop_
  _atom_site_type_symbol
  _atom_site_label
  _atom_site_symmetry_multiplicity
  _atom_site_fract_x
  _atom_site_fract_y
  _atom_site_fract_z
  _atom_site_occupancy
  _atom_site_charge
Mn  Mn1       1.0  0.02907  0.12671  0.94851  1.0000 0.9976578999
Mn  Mn2       1.0  0.97093  0.62671  0.55149  1.0000 0.9976578999
Mn  Mn3       1.0  0.97093  0.87329  0.05149  1.0000 0.9976578999
Mn  Mn4       1.0  0.02907  0.37329  0.44851  1.0000 0.9976578999
Mn  Mn5       1.0  0.42118  0.16490  0.93774  1.0000 1.0463931608
Mn  Mn6       1.0  0.57882  0.66490  0.56226  1.0000 1.0463931608
Mn  Mn7       1.0  0.57882  0.83510  0.06226  1.0000 1.0463931608
Mn  Mn8       1.0  0.42118  0.33510  0.43774  1.0000 1.0463931608
H   H1        1.0  0.96520  0.13240  0.70380  1.0000 0.1387051019
H   H2        1.0  0.03480  0.63240  0.79620  1.0000 0.1387051019
H   H3        1.0  0.03480  0.86760  0.29620  1.0000 0.1387051019
H   H4        1.0  0.96520  0.36760  0.20380  1.0000 0.1387051019
H   H5        1.0  0.88680  0.22290  0.48780  1.0000 0.1387051019
H   H6        1.0  0.11320  0.72290  0.01220  1.0000 0.1387051019
H   H7        1.0  0.11320  0.77710  0.51220  1.0000 0.1387051019
H   H8        1.0  0.88680  0.27710  0.98780  1.0000 0.1387051019
H   H9        1.0  0.26470  0.23660  0.65460  1.0000 0.1387051019
H   H10       1.0  0.73530  0.73660  0.84540  1.0000 0.1387051019
H   H11       1.0  0.73530  0.76340  0.34540  1.0000 0.1387051019
H   H12       1.0  0.26470  0.26340  0.15460  1.0000 0.1387051019
H   H13       1.0  0.88190  0.10680  0.48050  1.0000 0.1124687588
H   H14       1.0  0.11810  0.60680  0.01950  1.0000 0.1124687588
H   H15       1.0  0.11810  0.89320  0.51950  1.0000 0.1124687588
H   H16       1.0  0.88190  0.39320  0.98050  1.0000 0.1124687588
H   H17       1.0  0.82440  0.08400  0.57560  1.0000 0.130364326
H   H18       1.0  0.17560  0.58400  0.92440  1.0000 0.130364326
H   H19       1.0  0.17560  0.91600  0.42440  1.0000 0.130364326
H   H20       1.0  0.82440  0.41600  0.07560  1.0000 0.130364326
H   H21       1.0  0.75950  0.04550  0.37720  1.0000 0.1191636372
H   H22       1.0  0.24050  0.54550  0.12280  1.0000 0.1191636372
H   H23       1.0  0.24050  0.95450  0.62280  1.0000 0.1191636372
H   H24       1.0  0.75950  0.45450  0.87720  1.0000 0.1191636372
H   H25       1.0  0.54790  0.02570  0.28640  1.0000 0.130364326
H   H26       1.0  0.45210  0.52570  0.21360  1.0000 0.130364326
H   H27       1.0  0.45210  0.97430  0.71360  1.0000 0.130364326
H   H28       1.0  0.54790  0.47430  0.78640  1.0000 0.130364326
H   H29       1.0  0.28840  0.09310  0.47830  1.0000 0.1191636372
H   H30       1.0  0.71160  0.59310  0.02170  1.0000 0.1191636372
H   H31       1.0  0.71160  0.90690  0.52170  1.0000 0.1191636372
H   H32       1.0  0.28840  0.40690  0.97830  1.0000 0.1191636372
H   H33       1.0  0.50870  0.11870  0.55710  1.0000 0.1387051019
H   H34       1.0  0.49130  0.61870  0.94290  1.0000 0.1387051019
H   H35       1.0  0.49130  0.88130  0.44290  1.0000 0.1387051019
H   H36       1.0  0.50870  0.38130  0.05710  1.0000 0.1387051019
H   H37       1.0  0.13750  0.95710  0.19000  1.0000 0.1191636372
H   H38       1.0  0.86250  0.45710  0.31000  1.0000 0.1191636372
H   H39       1.0  0.86250  0.04290  0.81000  1.0000 0.1191636372
H   H40       1.0  0.13750  0.54290  0.69000  1.0000 0.1191636372
H   H41       1.0  0.35710  0.98450  0.26760  1.0000 0.0981892171
H   H42       1.0  0.64290  0.48450  0.23240  1.0000 0.0981892171
H   H43       1.0  0.64290  0.01550  0.73240  1.0000 0.0981892171
H   H44       1.0  0.35710  0.51550  0.76760  1.0000 0.0981892171
H   H45       1.0  0.12000  0.09520  0.36340  1.0000 0.1124687588
H   H46       1.0  0.88000  0.59520  0.13660  1.0000 0.1124687588
H   H47       1.0  0.88000  0.90480  0.63660  1.0000 0.1124687588
H   H48       1.0  0.12000  0.40480  0.86340  1.0000 0.1124687588
H   H49       1.0  0.91060  0.07170  0.26920  1.0000 0.1124687588
H   H50       1.0  0.08940  0.57170  0.23080  1.0000 0.1124687588
H   H51       1.0  0.08940  0.92830  0.73080  1.0000 0.1191636372
H   H52       1.0  0.91060  0.42830  0.76920  1.0000 0.1124687588
H   H53       1.0  0.56890  0.93540  0.19300  1.0000 0.1480431381
H   H54       1.0  0.43110  0.43540  0.30700  1.0000 0.1480431381
H   H55       1.0  0.43110  0.06460  0.80700  1.0000 0.1480431381
H   H56       1.0  0.56890  0.56460  0.69300  1.0000 0.1480431381
H   H57       1.0  0.19540  0.98150  0.04900  1.0000 0.1191636372
H   H58       1.0  0.80460  0.48150  0.45100  1.0000 0.1191636372
H   H59       1.0  0.80460  0.01850  0.95100  1.0000 0.1191636372
H   H60       1.0  0.19540  0.51850  0.54900  1.0000 0.1191636372
H   H61       1.0  0.53520  0.07100  0.12010  1.0000 0.1480431381
H   H62       1.0  0.46480  0.57100  0.37990  1.0000 0.1480431381
H   H63       1.0  0.46480  0.92900  0.87990  1.0000 0.1480431381
H   H64       1.0  0.53520  0.42900  0.62010  1.0000 0.1480431381
H   H65       1.0  0.87330  0.99960  0.11010  1.0000 0.1191636372
H   H66       1.0  0.12670  0.49960  0.38990  1.0000 0.1191636372
H   H67       1.0  0.12670  0.00040  0.88990  1.0000 0.1191636372
H   H68       1.0  0.87330  0.50040  0.61010  1.0000 0.1191636372
H   H69       1.0  0.85850  0.95980  0.18590  1.0000 0.1191636372
H   H70       1.0  0.14150  0.45980  0.31410  1.0000 0.1191636372
H   H71       1.0  0.14150  0.04020  0.81410  1.0000 0.1191636372
H   H72       1.0  0.85850  0.54020  0.68590  1.0000 0.1191636372
C   C1        1.0  0.12800  0.18294  0.69250  1.0000 -0.0105891646
C   C2        1.0  0.87200  0.68294  0.80750  1.0000 -0.0105891646
C   C3        1.0  0.87200  0.81706  0.30750  1.0000 -0.0105891646
C   C4        1.0  0.12800  0.31706  0.19250  1.0000 -0.0105891646
C   C5        1.0  0.99390  0.15854  0.66900  1.0000 -0.2267486679
C   C6        1.0  0.00610  0.65854  0.83100  1.0000 -0.2267486679
C   C7        1.0  0.00610  0.84146  0.33100  1.0000 -0.2267486679
C   C8        1.0  0.99390  0.34146  0.16900  1.0000 -0.2267486679
C   C9        1.0  0.90350  0.17460  0.59140  1.0000 0.249469516
C   C10       1.0  0.09650  0.67460  0.90860  1.0000 0.249469516
C   C11       1.0  0.09650  0.82540  0.40860  1.0000 0.249469516
C   C12       1.0  0.90350  0.32540  0.09140  1.0000 0.249469516
C   C13       1.0  0.94790  0.21281  0.53910  1.0000 -0.2102804161
C   C14       1.0  0.05210  0.71281  0.96090  1.0000 -0.2158895385
C   C15       1.0  0.05210  0.78719  0.46090  1.0000 -0.2158895385
C   C16       1.0  0.94790  0.28719  0.03910  1.0000 -0.2102804161
C   C17       1.0  0.08390  0.23655  0.56220  1.0000 -0.0105891646
C   C18       1.0  0.91610  0.73655  0.93780  1.0000 -0.0105891646
C   C19       1.0  0.91610  0.76345  0.43780  1.0000 -0.0105891646
C   C20       1.0  0.08390  0.26345  0.06220  1.0000 -0.0105891646
C   C21       1.0  0.17350  0.22119  0.63890  1.0000 -0.1167472926
C   C22       1.0  0.82650  0.72119  0.86110  1.0000 -0.1167472926
C   C23       1.0  0.82650  0.77881  0.36110  1.0000 -0.1167472926
C   C24       1.0  0.17350  0.27881  0.13890  1.0000 -0.1167472926
C   C25       1.0  0.21940  0.16730  0.77806  1.0000 0.580668484
C   C26       1.0  0.78060  0.66730  0.72194  1.0000 0.580668484
C   C27       1.0  0.78060  0.83270  0.22194  1.0000 0.580668484
C   C28       1.0  0.21940  0.33270  0.27806  1.0000 0.580668484
C   C29       1.0  0.11710  0.28010  0.50840  1.0000 0.580668484
C   C30       1.0  0.88290  0.78010  0.99160  1.0000 0.580668484
C   C31       1.0  0.88290  0.71990  0.49160  1.0000 0.580668484
C   C32       1.0  0.11710  0.21990  0.00840  1.0000 0.580668484
C   C33       1.0  0.79630  0.10541  0.52440  1.0000 -0.0833915052
C   C34       1.0  0.20370  0.60541  0.97560  1.0000 -0.0833915052
C   C35       1.0  0.20370  0.89459  0.47560  1.0000 -0.0833915052
C   C36       1.0  0.79630  0.39459  0.02440  1.0000 -0.0833915052
C   C37       1.0  0.66050  0.08683  0.47240  1.0000 0.0702345326
C   C38       1.0  0.33950  0.58683  0.02760  1.0000 0.0702345326
C   C39       1.0  0.33950  0.91317  0.52760  1.0000 0.0702345326
C   C40       1.0  0.66050  0.41317  0.97240  1.0000 0.0702345326
C   C41       1.0  0.66410  0.05707  0.39490  1.0000 -0.1506146122
C   C42       1.0  0.33590  0.55707  0.10510  1.0000 -0.1506146122
C   C43       1.0  0.33590  0.94293  0.60510  1.0000 -0.1506146122
C   C44       1.0  0.66410  0.44293  0.89490  1.0000 -0.1506146122
C   C45       1.0  0.53820  0.04329  0.34210  1.0000 -0.1506146122
C   C46       1.0  0.46180  0.54329  0.15790  1.0000 -0.1506146122
C   C47       1.0  0.46180  0.95671  0.65790  1.0000 -0.1506146122
C   C48       1.0  0.53820  0.45671  0.84210  1.0000 -0.1506146122
C   C49       1.0  0.39590  0.05674  0.37530  1.0000 0.0637413684
C   C50       1.0  0.60410  0.55674  0.12470  1.0000 0.0637413684
C   C51       1.0  0.60410  0.94326  0.62470  1.0000 0.0637413684
C   C52       1.0  0.39590  0.44326  0.87530  1.0000 0.0637413684
C   C53       1.0  0.38480  0.08456  0.45600  1.0000 -0.1286999759
C   C54       1.0  0.61520  0.58456  0.04400  1.0000 -0.1286999759
C   C55       1.0  0.61520  0.91544  0.54400  1.0000 -0.1286999759
C   C56       1.0  0.38480  0.41544  0.95600  1.0000 -0.1286999759
C   C57       1.0  0.51700  0.09965  0.50350  1.0000 -0.1399864022
C   C58       1.0  0.48300  0.59965  0.99650  1.0000 -0.1399864022
C   C59       1.0  0.48300  0.90035  0.49650  1.0000 -0.1399864022
C   C60       1.0  0.51700  0.40035  0.00350  1.0000 -0.1399864022
C   C61       1.0  0.13410  0.98502  0.22380  1.0000 -0.1506146122
C   C62       1.0  0.86590  0.48502  0.27620  1.0000 -0.1506146122
C   C63       1.0  0.86590  0.01498  0.77620  1.0000 -0.1506146122
C   C64       1.0  0.13410  0.51498  0.72380  1.0000 -0.1506146122
C   C65       1.0  0.26560  0.00128  0.27070  1.0000 -0.1506146122
C   C66       1.0  0.73440  0.50128  0.22930  1.0000 -0.1506146122
C   C67       1.0  0.73440  0.99872  0.72930  1.0000 -0.1506146122
C   C68       1.0  0.26560  0.49872  0.77070  1.0000 -0.1506146122
C   C69       1.0  0.26060  0.04291  0.32270  1.0000 0.0702345326
C   C70       1.0  0.73940  0.54291  0.17730  1.0000 0.0702345326
C   C71       1.0  0.73940  0.95709  0.67730  1.0000 0.0702345326
C   C72       1.0  0.26060  0.45709  0.82270  1.0000 0.0702345326
C   C73       1.0  0.12550  0.06834  0.32640  1.0000 -0.1506146122
C   C74       1.0  0.87450  0.56834  0.17360  1.0000 -0.1506146122
C   C75       1.0  0.87450  0.93166  0.67360  1.0000 -0.1506146122
C   C76       1.0  0.12550  0.43166  0.82640  1.0000 -0.1506146122
C   C77       1.0  0.99760  0.05285  0.27340  1.0000 -0.1286999759
C   C78       1.0  0.00240  0.55285  0.22660  1.0000 -0.1286999759
C   C79       1.0  0.00240  0.94715  0.72660  1.0000 -0.1286999759
C   C80       1.0  0.99760  0.44715  0.77340  1.0000 -0.1286999759
C   C81       1.0  0.99650  0.01023  0.22700  1.0000 0.0820957693
C   C82       1.0  0.00350  0.51023  0.27300  1.0000 0.0820957693
C   C83       1.0  0.00350  0.98977  0.77300  1.0000 0.0820957693
C   C84       1.0  0.99650  0.48977  0.72700  1.0000 0.0820957693
C   C85       1.0  0.57710  0.00433  0.16250  1.0000 0.249469516
C   C86       1.0  0.42290  0.50433  0.33750  1.0000 0.249469516
C   C87       1.0  0.42290  0.99567  0.83750  1.0000 0.249469516
C   C88       1.0  0.57710  0.49567  0.66250  1.0000 0.249469516
C   C89       1.0  0.51490  0.95962  0.16350  1.0000 -0.2267486679
C   C90       1.0  0.48510  0.45962  0.33650  1.0000 -0.2267486679
C   C91       1.0  0.48510  0.04038  0.83650  1.0000 -0.2267486679
C   C92       1.0  0.51490  0.54038  0.66350  1.0000 -0.2267486679
C   C93       1.0  0.37120  0.95109  0.12030  1.0000 -0.0607639727
C   C94       1.0  0.62880  0.45109  0.37970  1.0000 -0.0607639727
C   C95       1.0  0.62880  0.04891  0.87970  1.0000 -0.0607639727
C   C96       1.0  0.37120  0.54891  0.62030  1.0000 -0.0607639727
C   C97       1.0  0.29150  0.98712  0.07700  1.0000 -0.1399864022
C   C98       1.0  0.70850  0.48712  0.42300  1.0000 -0.1399864022
C   C99       1.0  0.70850  0.01288  0.92300  1.0000 -0.1399864022
C   C100      1.0  0.29150  0.51288  0.57700  1.0000 -0.1399864022
C   C101      1.0  0.35350  0.03181  0.07490  1.0000 0.0012760312
C   C102      1.0  0.64650  0.53181  0.42510  1.0000 0.0012760312
C   C103      1.0  0.64650  0.96819  0.92510  1.0000 0.0012760312
C   C104      1.0  0.35350  0.46819  0.57490  1.0000 0.0012760312
C   C105      1.0  0.49540  0.04097  0.11930  1.0000 -0.2267486679
C   C106      1.0  0.50460  0.54097  0.38070  1.0000 -0.2267486679
C   C107      1.0  0.50460  0.95903  0.88070  1.0000 -0.2267486679
C   C108      1.0  0.49540  0.45903  0.61930  1.0000 -0.2267486679
C   C109      1.0  0.30930  0.90416  0.12140  1.0000 0.5876441646
C   C110      1.0  0.69070  0.40416  0.37860  1.0000 0.5876441646
C   C111      1.0  0.69070  0.09584  0.87860  1.0000 0.5876441646
C   C112      1.0  0.30930  0.59584  0.62140  1.0000 0.5876441646
C   C113      1.0  0.27410  0.07218  0.02680  1.0000 0.5729626465
C   C114      1.0  0.72590  0.57218  0.47320  1.0000 0.5729626465
C   C115      1.0  0.72590  0.92782  0.97320  1.0000 0.5729626465
C   C116      1.0  0.27410  0.42782  0.52680  1.0000 0.5729626465
C   C117      1.0  0.86230  0.99337  0.17810  1.0000 -0.0537385334
C   C118      1.0  0.13770  0.49337  0.32190  1.0000 -0.0537385334
C   C119      1.0  0.13770  0.00663  0.82190  1.0000 -0.0537385334
C   C120      1.0  0.86230  0.50663  0.67810  1.0000 -0.0537385334
O   O1        1.0  0.17050  0.13331  0.82810  1.0000 -0.6113971722
O   O2        1.0  0.82950  0.63331  0.67190  1.0000 -0.6113971722
O   O3        1.0  0.82950  0.86669  0.17190  1.0000 -0.6113971722
O   O4        1.0  0.17050  0.36669  0.32810  1.0000 -0.6113971722
O   O5        1.0  0.34240  0.18834  0.79897  1.0000 -0.5076767159
O   O6        1.0  0.65760  0.68834  0.70103  1.0000 -0.5076767159
O   O7        1.0  0.65760  0.81166  0.20103  1.0000 -0.5076767159
O   O8        1.0  0.34240  0.31166  0.29897  1.0000 -0.5076767159
O   O9        1.0  0.26200  0.28819  0.51154  1.0000 -0.575129385
O   O10       1.0  0.73800  0.78819  0.98846  1.0000 -0.575129385
O   O11       1.0  0.73800  0.71181  0.48846  1.0000 -0.575129385
O   O12       1.0  0.26200  0.21181  0.01154  1.0000 -0.575129385
O   O13       1.0  0.02410  0.30016  0.45552  1.0000 -0.536221261
O   O14       1.0  0.97590  0.80016  0.04448  1.0000 -0.536221261
O   O15       1.0  0.97590  0.69984  0.54448  1.0000 -0.536221261
O   O16       1.0  0.02410  0.19984  0.95552  1.0000 -0.536221261
O   O17       1.0  0.77360  0.15109  0.56525  1.0000 -0.1701109809
O   O18       1.0  0.22640  0.65109  0.93475  1.0000 -0.1701109809
O   O19       1.0  0.22640  0.84891  0.43475  1.0000 -0.1701109809
O   O20       1.0  0.77360  0.34891  0.06525  1.0000 -0.1701109809
O   O21       1.0  0.71460  0.01277  0.20856  1.0000 -0.2102804161
O   O22       1.0  0.28540  0.51277  0.29144  1.0000 -0.2102804161
O   O23       1.0  0.28540  0.98723  0.79144  1.0000 -0.2102804161
O   O24       1.0  0.71460  0.48723  0.70856  1.0000 -0.2102804161
O   O25       1.0  0.39520  0.86850  0.12884  1.0000 -0.5689179924
O   O26       1.0  0.60480  0.36850  0.37116  1.0000 -0.5689179924
O   O27       1.0  0.60480  0.13150  0.87116  1.0000 -0.5689179924
O   O28       1.0  0.39520  0.63150  0.62884  1.0000 -0.5689179924
O   O29       1.0  0.16240  0.90120  0.11860  1.0000 -0.5689179924
O   O30       1.0  0.83760  0.40120  0.38140  1.0000 -0.5689179924
O   O31       1.0  0.83760  0.09880  0.88140  1.0000 -0.5689179924
O   O32       1.0  0.16240  0.59880  0.61860  1.0000 -0.5689179924
O   O33       1.0  0.14200  0.06379  0.99436  1.0000 -0.549029882
O   O34       1.0  0.85800  0.56379  0.50564  1.0000 -0.549029882
O   O35       1.0  0.85800  0.93621  0.00564  1.0000 -0.549029882
O   O36       1.0  0.14200  0.43621  0.49436  1.0000 -0.549029882
O   O37       1.0  0.34880  0.11017  0.02258  1.0000 -0.599124248
O   O38       1.0  0.65120  0.61017  0.47742  1.0000 -0.599124248
O   O39       1.0  0.65120  0.88983  0.97742  1.0000 -0.599124248
O   O40       1.0  0.34880  0.38983  0.52258  1.0000 -0.599124248
