# DDEC6 charges by PACMAN v1.1 (https://github.com/mtap-research/PACMAN-charge/)
data_2011[Zn][sod]3[ASR]2
_chemical_formula_sum              "Zn6 H60 C48 N24"
_cell_length_a       14.7533
_cell_length_b       14.7533
_cell_length_c       14.7533
_cell_angle_alpha    109.471
_cell_angle_beta     109.471
_cell_angle_gamma    109.471

_symmetry_space_group_name_H-M    "P 1"
_symmetry_Int_Tables_number       1

loop_
  _symmetry_equiv_pos_as_xyz
  'x, y, z'

loop_
  _atom_site_type_symbol
  _atom_site_label
  _atom_site_symmetry_multiplicity
  _atom_site_fract_x
  _atom_site_fract_y
  _atom_site_fract_z
  _atom_site_occupancy
  _atom_site_charge
Zn  Zn1       1.0  0.75000  0.25000  0.50000  1.0000 0.6590948786
Zn  Zn2       1.0  0.25000  0.75000  0.50000  1.0000 0.6590948786
Zn  Zn3       1.0  0.50000  0.25000  0.75000  1.0000 0.6590948786
Zn  Zn4       1.0  0.50000  0.75000  0.25000  1.0000 0.6590948786
Zn  Zn5       1.0  0.25000  0.50000  0.75000  1.0000 0.6590948786
Zn  Zn6       1.0  0.75000  0.50000  0.25000  1.0000 0.6590948786
H   H1        1.0  0.63921  0.11884  0.22257  1.0000 0.0791463192
H   H2        1.0  0.89626  0.41664  0.77743  1.0000 0.0791463192
H   H3        1.0  0.36079  0.58336  0.47962  1.0000 0.0791463192
H   H4        1.0  0.52038  0.10374  0.88116  1.0000 0.0791463192
H   H5        1.0  0.47962  0.36079  0.58336  1.0000 0.0791463192
H   H6        1.0  0.22257  0.63921  0.11884  1.0000 0.0791463192
H   H7        1.0  0.77743  0.89626  0.41664  1.0000 0.0791463192
H   H8        1.0  0.41664  0.77743  0.89626  1.0000 0.0791463192
H   H9        1.0  0.11884  0.22257  0.63921  1.0000 0.0791463192
H   H10       1.0  0.58336  0.47962  0.36079  1.0000 0.0791463192
H   H11       1.0  0.88116  0.52038  0.10374  1.0000 0.0791463192
H   H12       1.0  0.11884  0.63921  0.22257  1.0000 0.0791463192
H   H13       1.0  0.58336  0.36079  0.47962  1.0000 0.0791463192
H   H14       1.0  0.88116  0.10374  0.52038  1.0000 0.0791463192
H   H15       1.0  0.63921  0.22257  0.11884  1.0000 0.0791463192
H   H16       1.0  0.89626  0.77743  0.41664  1.0000 0.0791463192
H   H17       1.0  0.10374  0.52038  0.88116  1.0000 0.0791463192
H   H18       1.0  0.36079  0.47962  0.58336  1.0000 0.0791463192
H   H19       1.0  0.52038  0.88116  0.10374  1.0000 0.0791463192
H   H20       1.0  0.47962  0.58336  0.36079  1.0000 0.0791463192
H   H21       1.0  0.22257  0.11884  0.63921  1.0000 0.0791463192
H   H22       1.0  0.77743  0.41664  0.89626  1.0000 0.0791463192
H   H23       1.0  0.86204  0.56511  0.48454  1.0000 0.1331377891
H   H24       1.0  0.87290  0.48949  0.56298  1.0000 0.1331377891
H   H25       1.0  0.74925  0.50662  0.51369  1.0000 0.119081584
H   H26       1.0  0.05180  0.38955  0.49712  1.0000 0.1331377891
H   H27       1.0  0.91119  0.26983  0.43420  1.0000 0.1331377891
H   H28       1.0  0.03701  0.26358  0.50746  1.0000 0.119081584
H   H29       1.0  0.02348  0.50126  0.25304  1.0000 0.119081584
H   H30       1.0  0.91371  0.43383  0.28202  1.0000 0.1331377891
H   H31       1.0  0.06281  0.50369  0.38791  1.0000 0.1331377891
H   H32       1.0  0.12710  0.61660  0.69009  1.0000 0.1331377891
H   H33       1.0  0.13796  0.70307  0.62251  1.0000 0.1331377891
H   H34       1.0  0.25075  0.75736  0.76444  1.0000 0.119081584
H   H35       1.0  0.30238  0.92218  0.43565  1.0000 0.1331377891
H   H36       1.0  0.38114  0.07670  0.51269  1.0000 0.1331377891
H   H37       1.0  0.23945  0.00112  0.49044  1.0000 0.119081584
H   H38       1.0  0.73752  0.17259  0.64830  1.0000 0.1331377891
H   H39       1.0  0.61052  0.10315  0.65449  1.0000 0.1331377891
H   H40       1.0  0.72900  0.24008  0.77424  1.0000 0.119081584
H   H41       1.0  0.56233  0.87528  0.49077  1.0000 0.1331377891
H   H42       1.0  0.51538  0.74954  0.50500  1.0000 0.119081584
H   H43       1.0  0.48351  0.85936  0.56545  1.0000 0.1331377891
H   H44       1.0  0.43392  0.91462  0.28492  1.0000 0.1331377891
H   H45       1.0  0.49975  0.02027  0.25081  1.0000 0.119081584
H   H46       1.0  0.50512  0.06512  0.38723  1.0000 0.1331377891
H   H47       1.0  0.38948  0.49263  0.04398  1.0000 0.1331377891
H   H48       1.0  0.26248  0.43507  0.91078  1.0000 0.1331377891
H   H49       1.0  0.27100  0.51108  0.04524  1.0000 0.119081584
H   H50       1.0  0.50026  0.52052  0.75107  1.0000 0.119081584
H   H51       1.0  0.56608  0.48070  0.85101  1.0000 0.1331377891
H   H52       1.0  0.49488  0.56000  0.88211  1.0000 0.1331377891
H   H53       1.0  0.61886  0.69557  0.13155  1.0000 0.1331377891
H   H54       1.0  0.69762  0.61980  0.13327  1.0000 0.1331377891
H   H55       1.0  0.76055  0.76167  0.25099  1.0000 0.119081584
H   H56       1.0  0.48462  0.23416  0.98963  1.0000 0.119081584
H   H57       1.0  0.43767  0.31295  0.92844  1.0000 0.1331377891
H   H58       1.0  0.51649  0.37585  0.08193  1.0000 0.1331377891
H   H59       1.0  0.41664  0.89626  0.77743  1.0000 0.0791463192
H   H60       1.0  0.10374  0.88116  0.52038  1.0000 0.0791463192
C   C1        1.0  0.67720  0.21284  0.26926  1.0000 -0.0465181316
C   C2        1.0  0.94358  0.40794  0.73074  1.0000 -0.0465181316
C   C3        1.0  0.05642  0.78716  0.46436  1.0000 -0.0465181316
C   C4        1.0  0.32280  0.59206  0.53564  1.0000 -0.0465181316
C   C5        1.0  0.46436  0.05642  0.78716  1.0000 -0.0465181316
C   C6        1.0  0.53564  0.32280  0.59206  1.0000 -0.0465181316
C   C7        1.0  0.26926  0.67720  0.21284  1.0000 -0.0465181316
C   C8        1.0  0.73074  0.94358  0.40794  1.0000 -0.0465181316
C   C9        1.0  0.40794  0.73074  0.94358  1.0000 -0.0465181316
C   C10       1.0  0.21284  0.26926  0.67720  1.0000 -0.0465181316
C   C11       1.0  0.59206  0.53564  0.32280  1.0000 -0.0465181316
C   C12       1.0  0.78716  0.46436  0.05642  1.0000 -0.0465181316
C   C13       1.0  0.40794  0.94358  0.73074  1.0000 -0.0465181316
C   C14       1.0  0.21284  0.67720  0.26926  1.0000 -0.0465181316
C   C15       1.0  0.59206  0.32280  0.53564  1.0000 -0.0465181316
C   C16       1.0  0.78716  0.05642  0.46436  1.0000 -0.0465181316
C   C17       1.0  0.67720  0.26926  0.21284  1.0000 -0.0465181316
C   C18       1.0  0.94358  0.73074  0.40794  1.0000 -0.0465181316
C   C19       1.0  0.05642  0.46436  0.78716  1.0000 -0.0465181316
C   C20       1.0  0.32280  0.53564  0.59206  1.0000 -0.0465181316
C   C21       1.0  0.46436  0.78716  0.05642  1.0000 -0.0465181316
C   C22       1.0  0.53564  0.59206  0.32280  1.0000 -0.0465181316
C   C23       1.0  0.26926  0.21284  0.67720  1.0000 -0.0465181316
C   C24       1.0  0.73074  0.40794  0.94358  1.0000 -0.0465181316
C   C25       1.0  0.81344  0.49333  0.49333  1.0000 -0.4180789107
C   C26       1.0  0.75596  0.38689  0.38689  1.0000 0.3558735982
C   C27       1.0  0.00000  0.32011  0.50667  1.0000 -0.4180789107
C   C28       1.0  0.00000  0.36907  0.61311  1.0000 0.3536370942
C   C29       1.0  0.00000  0.50667  0.32011  1.0000 -0.4180789107
C   C30       1.0  0.00000  0.61311  0.36907  1.0000 0.3536370942
C   C31       1.0  0.18656  0.67989  0.67989  1.0000 -0.4180789107
C   C32       1.0  0.24404  0.63093  0.63093  1.0000 0.3536370942
C   C33       1.0  0.32011  0.00000  0.50667  1.0000 -0.4180789107
C   C34       1.0  0.36907  0.00000  0.61311  1.0000 0.3536370942
C   C35       1.0  0.67989  0.18656  0.67989  1.0000 -0.4180789107
C   C36       1.0  0.63093  0.24404  0.63093  1.0000 0.3536370942
C   C37       1.0  0.49333  0.81344  0.49333  1.0000 -0.4180789107
C   C38       1.0  0.38689  0.75596  0.38689  1.0000 0.3558735982
C   C39       1.0  0.50667  0.00000  0.32011  1.0000 -0.4180789107
C   C40       1.0  0.61311  0.00000  0.36907  1.0000 0.3558735982
C   C41       1.0  0.32011  0.50667  0.00000  1.0000 -0.4180789107
C   C42       1.0  0.36907  0.61311  0.00000  1.0000 0.3536370942
C   C43       1.0  0.49333  0.49333  0.81344  1.0000 -0.4180789107
C   C44       1.0  0.38689  0.38689  0.75596  1.0000 0.3558735982
C   C45       1.0  0.67989  0.67989  0.18656  1.0000 -0.4180789107
C   C46       1.0  0.63093  0.63093  0.24404  1.0000 0.3536370942
C   C47       1.0  0.50667  0.32011  0.00000  1.0000 -0.4180789107
C   C48       1.0  0.61311  0.36907  0.00000  1.0000 0.3536370942
N   N1        1.0  0.72717  0.28738  0.37979  1.0000 -0.3582323307
N   N2        1.0  0.90759  0.34738  0.62021  1.0000 -0.3582323307
N   N3        1.0  0.09241  0.71262  0.43979  1.0000 -0.3582323307
N   N4        1.0  0.27283  0.65262  0.56021  1.0000 -0.3582323307
N   N5        1.0  0.43979  0.09241  0.71262  1.0000 -0.3582323307
N   N6        1.0  0.56021  0.27283  0.65262  1.0000 -0.3582323307
N   N7        1.0  0.37979  0.72717  0.28738  1.0000 -0.3582323307
N   N8        1.0  0.62021  0.90759  0.34738  1.0000 -0.3582323307
N   N9        1.0  0.34738  0.62021  0.90759  1.0000 -0.3582323307
N   N10       1.0  0.28738  0.37979  0.72717  1.0000 -0.3582323307
N   N11       1.0  0.65262  0.56021  0.27283  1.0000 -0.3582323307
N   N12       1.0  0.71262  0.43979  0.09241  1.0000 -0.3582323307
N   N13       1.0  0.34738  0.90759  0.62021  1.0000 -0.3582323307
N   N14       1.0  0.28738  0.72717  0.37979  1.0000 -0.3582323307
N   N15       1.0  0.65262  0.27283  0.56021  1.0000 -0.3582323307
N   N16       1.0  0.71262  0.09241  0.43979  1.0000 -0.3582323307
N   N17       1.0  0.72717  0.37979  0.28738  1.0000 -0.3582323307
N   N18       1.0  0.90759  0.62021  0.34738  1.0000 -0.3582323307
N   N19       1.0  0.09241  0.43979  0.71262  1.0000 -0.3582323307
N   N20       1.0  0.27283  0.56021  0.65262  1.0000 -0.3582323307
N   N21       1.0  0.43979  0.71262  0.09241  1.0000 -0.3582323307
N   N22       1.0  0.56021  0.65262  0.27283  1.0000 -0.3582323307
N   N23       1.0  0.37979  0.28738  0.72717  1.0000 -0.3582323307
N   N24       1.0  0.62021  0.34738  0.90759  1.0000 -0.3582323307
