# DDEC6 charges by PACMAN v1.1 (https://github.com/mtap-research/PACMAN-charge/)
data_2011[Y][deh]3[ASR]1
_chemical_formula_sum              "Y8 H24 C56 N8 O32"
_cell_length_a       17.4224
_cell_length_b       17.4224
_cell_length_c       17.4224
_cell_angle_alpha    102.478
_cell_angle_beta     102.478
_cell_angle_gamma    124.602

_symmetry_space_group_name_H-M    "P 1"
_symmetry_Int_Tables_number       1

loop_
  _symmetry_equiv_pos_as_xyz
  'x, y, z'

loop_
  _atom_site_type_symbol
  _atom_site_label
  _atom_site_symmetry_multiplicity
  _atom_site_fract_x
  _atom_site_fract_y
  _atom_site_fract_z
  _atom_site_occupancy
  _atom_site_charge
Y   Y1        1.0  0.83379  0.11636  0.95261  1.0000 1.6732303864
Y   Y2        1.0  0.16375  0.88118  0.04739  1.0000 1.6732303864
Y   Y3        1.0  0.13118  0.58379  0.21743  1.0000 1.6732303864
Y   Y4        1.0  0.36636  0.91375  0.78257  1.0000 1.6732303864
Y   Y5        1.0  0.41621  0.63364  0.54739  1.0000 1.6732303864
Y   Y6        1.0  0.08625  0.86882  0.45261  1.0000 1.6732303864
Y   Y7        1.0  0.11882  0.16621  0.28257  1.0000 1.6732303864
Y   Y8        1.0  0.88364  0.83625  0.71743  1.0000 1.6732303864
H   H1        1.0  0.78130  0.02030  0.21980  1.0000 0.1217404065
H   H2        1.0  0.80050  0.56150  0.78020  1.0000 0.1217404065
H   H3        1.0  0.81150  0.53130  0.26100  1.0000 0.1217404065
H   H4        1.0  0.27030  0.55050  0.73900  1.0000 0.1217404065
H   H5        1.0  0.46870  0.72970  0.28020  1.0000 0.1217404065
H   H6        1.0  0.44950  0.18850  0.71980  1.0000 0.1217404065
H   H7        1.0  0.43850  0.21870  0.23900  1.0000 0.1217404065
H   H8        1.0  0.97970  0.19950  0.76100  1.0000 0.1217404065
H   H9        1.0  0.61240  0.95430  0.17930  1.0000 0.099376279
H   H10       1.0  0.77500  0.43310  0.82070  1.0000 0.099376279
H   H11       1.0  0.68310  0.36240  0.15810  1.0000 0.099376279
H   H12       1.0  0.20430  0.52500  0.84190  1.0000 0.099376279
H   H13       1.0  0.63760  0.79570  0.32070  1.0000 0.099376279
H   H14       1.0  0.47500  0.31690  0.67930  1.0000 0.099376279
H   H15       1.0  0.56690  0.38760  0.34190  1.0000 0.099376279
H   H16       1.0  0.04570  0.22500  0.65810  1.0000 0.099376279
H   H17       1.0  0.52130  0.93500  0.04630  1.0000 0.1217404065
H   H18       1.0  0.88870  0.47500  0.95370  1.0000 0.1217404065
H   H19       1.0  0.72500  0.27130  0.08630  1.0000 0.1217404065
H   H20       1.0  0.18500  0.63870  0.91370  1.0000 0.1217404065
H   H21       1.0  0.72870  0.81500  0.45370  1.0000 0.1217404065
H   H22       1.0  0.36130  0.27500  0.54630  1.0000 0.1217404065
H   H23       1.0  0.52500  0.47870  0.41370  1.0000 0.1217404065
H   H24       1.0  0.06500  0.11130  0.58630  1.0000 0.1217404065
C   C1        1.0  0.79100  0.04880  0.11220  1.0000 0.1114383443
C   C2        1.0  0.93660  0.67880  0.88780  1.0000 0.1114383443
C   C3        1.0  0.92880  0.54100  0.24220  1.0000 0.1114383443
C   C4        1.0  0.29880  0.68660  0.75780  1.0000 0.1114383443
C   C5        1.0  0.45900  0.70120  0.38780  1.0000 0.1114383443
C   C6        1.0  0.31340  0.07120  0.61220  1.0000 0.1114383443
C   C7        1.0  0.32120  0.20900  0.25780  1.0000 0.1114383443
C   C8        1.0  0.95120  0.06340  0.74220  1.0000 0.1114383443
C   C9        1.0  0.74540  0.01540  0.16840  1.0000 -0.154269165
C   C10       1.0  0.84700  0.57700  0.83160  1.0000 -0.154269165
C   C11       1.0  0.82700  0.49540  0.23000  1.0000 -0.154269165
C   C12       1.0  0.26540  0.59700  0.77000  1.0000 -0.154269165
C   C13       1.0  0.50460  0.73460  0.33160  1.0000 -0.1553639108
C   C14       1.0  0.40300  0.17300  0.66840  1.0000 -0.154269165
C   C15       1.0  0.42300  0.25460  0.27000  1.0000 -0.154269165
C   C16       1.0  0.98460  0.15300  0.73000  1.0000 -0.154269165
C   C17       1.0  0.64470  0.97510  0.14320  1.0000 -0.0848756851
C   C18       1.0  0.83190  0.50150  0.85680  1.0000 -0.0848756851
C   C19       1.0  0.75150  0.39470  0.16960  1.0000 -0.0859505487
C   C20       1.0  0.22510  0.58190  0.83040  1.0000 -0.0848756851
C   C21       1.0  0.60530  0.77490  0.35680  1.0000 -0.0859505487
C   C22       1.0  0.41810  0.24850  0.64320  1.0000 -0.0848756851
C   C23       1.0  0.49850  0.35530  0.33040  1.0000 -0.0859505487
C   C24       1.0  0.02490  0.16810  0.66960  1.0000 -0.0859505487
C   C25       1.0  0.59020  0.96490  0.06470  1.0000 -0.1746495598
C   C26       1.0  0.90020  0.52550  0.93530  1.0000 -0.1746495598
C   C27       1.0  0.77550  0.34020  0.12530  1.0000 -0.1757263773
C   C28       1.0  0.21490  0.65020  0.87470  1.0000 -0.1746495598
C   C29       1.0  0.65980  0.78510  0.43530  1.0000 -0.1757263773
C   C30       1.0  0.34980  0.22450  0.56470  1.0000 -0.1746495598
C   C31       1.0  0.47450  0.40980  0.37470  1.0000 -0.1746495598
C   C32       1.0  0.03510  0.09980  0.62530  1.0000 -0.1746495598
C   C33       1.0  0.64310  0.00090  0.01620  1.0000 0.0824642694
C   C34       1.0  0.98470  0.62690  0.98380  1.0000 0.0824642694
C   C35       1.0  0.87690  0.39310  0.14220  1.0000 0.0824642694
C   C36       1.0  0.25090  0.73470  0.85780  1.0000 0.0824642694
C   C37       1.0  0.60690  0.74910  0.48380  1.0000 0.0824642694
C   C38       1.0  0.26530  0.12310  0.51620  1.0000 0.0824642694
C   C39       1.0  0.37310  0.35690  0.35780  1.0000 0.0824642694
C   C40       1.0  0.99910  0.01530  0.64220  1.0000 0.0824642694
C   C41       1.0  0.59410  0.99570  0.93080  1.0000 0.5423858529
C   C42       1.0  0.06490  0.66330  0.06920  1.0000 0.5423858529
C   C43       1.0  0.91330  0.34410  0.09840  1.0000 0.5423858529
C   C44       1.0  0.24570  0.81490  0.90160  1.0000 0.5423858529
C   C45       1.0  0.65590  0.75430  0.56920  1.0000 0.5423858529
C   C46       1.0  0.18510  0.08670  0.43080  1.0000 0.5423858529
C   C47       1.0  0.33670  0.40590  0.40160  1.0000 0.5423858529
C   C48       1.0  0.00430  0.93510  0.59840  1.0000 0.5423858529
C   C49       1.0  0.90020  0.09500  0.12980  1.0000 0.5469611129
C   C50       1.0  0.96520  0.77040  0.87020  1.0000 0.5469611129
C   C51       1.0  0.02040  0.65020  0.30520  1.0000 0.5469611129
C   C52       1.0  0.34500  0.71520  0.69480  1.0000 0.5469611129
C   C53       1.0  0.34980  0.65500  0.37020  1.0000 0.5469611129
C   C54       1.0  0.28480  0.97960  0.62980  1.0000 0.5469611129
C   C55       1.0  0.22960  0.09980  0.19480  1.0000 0.5469611129
C   C56       1.0  0.90500  0.03480  0.80520  1.0000 0.5469611129
N   N1        1.0  0.74100  0.04260  0.03880  1.0000 -0.3819823721
N   N2        1.0  0.00380  0.70220  0.96120  1.0000 -0.3819823721
N   N3        1.0  0.95220  0.49100  0.19840  1.0000 -0.3819823721
N   N4        1.0  0.29260  0.75380  0.80160  1.0000 -0.3819823721
N   N5        1.0  0.50900  0.70740  0.46120  1.0000 -0.3819823721
N   N6        1.0  0.24620  0.04780  0.53880  1.0000 -0.3819823721
N   N7        1.0  0.29780  0.25900  0.30160  1.0000 -0.3819823721
N   N8        1.0  0.95740  0.99620  0.69840  1.0000 -0.3819823721
O   O1        1.0  0.65420  0.03890  0.89410  1.0000 -0.6290194736
O   O2        1.0  0.14480  0.76010  0.10590  1.0000 -0.6290194736
O   O3        1.0  0.01010  0.40420  0.11530  1.0000 -0.6290194736
O   O4        1.0  0.28890  0.89480  0.88470  1.0000 -0.6290194736
O   O5        1.0  0.59580  0.71110  0.60590  1.0000 -0.6290194736
O   O6        1.0  0.10520  0.98990  0.39410  1.0000 -0.6290194736
O   O7        1.0  0.23990  0.34580  0.38470  1.0000 -0.6290194736
O   O8        1.0  0.96110  0.85520  0.61530  1.0000 -0.6290194736
O   O9        1.0  0.50260  0.95630  0.90130  1.0000 -0.5994389066
O   O10       1.0  0.05500  0.60130  0.09870  1.0000 -0.5994389066
O   O11       1.0  0.85130  0.25260  0.04630  1.0000 -0.5994389066
O   O12       1.0  0.20630  0.80500  0.95370  1.0000 -0.5994389066
O   O13       1.0  0.74740  0.79370  0.59870  1.0000 -0.5994389066
O   O14       1.0  0.19500  0.14870  0.40130  1.0000 -0.5994389066
O   O15       1.0  0.39870  0.49740  0.45370  1.0000 -0.5994389066
O   O16       1.0  0.04370  0.94500  0.54630  1.0000 -0.5994389066
O   O17       1.0  0.95320  0.09900  0.19400  1.0000 -0.6459647143
O   O18       1.0  0.90500  0.75920  0.80600  1.0000 -0.6437626565
O   O19       1.0  0.00920  0.70320  0.35420  1.0000 -0.6459647143
O   O20       1.0  0.34900  0.65500  0.64580  1.0000 -0.6459647143
O   O21       1.0  0.29680  0.65100  0.30600  1.0000 -0.6437626565
O   O22       1.0  0.34500  0.99080  0.69400  1.0000 -0.6437626565
O   O23       1.0  0.24080  0.04680  0.14580  1.0000 -0.6459647143
O   O24       1.0  0.90100  0.09500  0.85420  1.0000 -0.6459647143
O   O25       1.0  0.93410  0.12790  0.07760  1.0000 -0.6290194736
O   O26       1.0  0.05030  0.85650  0.92240  1.0000 -0.6290194736
O   O27       1.0  0.10650  0.68410  0.30620  1.0000 -0.6290194736
O   O28       1.0  0.37790  0.80030  0.69380  1.0000 -0.6290194736
O   O29       1.0  0.31590  0.62210  0.42240  1.0000 -0.6290194736
O   O30       1.0  0.19970  0.89350  0.57760  1.0000 -0.6290194736
O   O31       1.0  0.14350  0.06590  0.19380  1.0000 -0.6290194736
O   O32       1.0  0.87210  0.94970  0.80620  1.0000 -0.6290194736
