# DDEC6 charges by PACMAN v1.1 (https://github.com/mtap-research/PACMAN-charge/)
data_2011[Ga][nan]3[ASR]1
_chemical_formula_sum              "Ga8 P10 H4 C4 O48"
_cell_length_a       12.8376
_cell_length_b       12.8376
_cell_length_c       9.0517
_cell_angle_alpha    77.5488
_cell_angle_beta     102.451
_cell_angle_gamma    104.894

_symmetry_space_group_name_H-M    "P 1"
_symmetry_Int_Tables_number       1

loop_
  _symmetry_equiv_pos_as_xyz
  'x, y, z'

loop_
  _atom_site_type_symbol
  _atom_site_label
  _atom_site_symmetry_multiplicity
  _atom_site_fract_x
  _atom_site_fract_y
  _atom_site_fract_z
  _atom_site_occupancy
  _atom_site_charge
Ga  Ga1       1.0  0.29778  0.97714  0.83218  1.0000 1.1715442679
Ga  Ga2       1.0  0.97714  0.29778  0.66782  1.0000 1.1715442679
Ga  Ga3       1.0  0.70222  0.02286  0.16782  1.0000 1.1715442679
Ga  Ga4       1.0  0.02286  0.70222  0.33218  1.0000 1.1715442679
Ga  Ga5       1.0  0.63528  0.13028  0.56613  1.0000 1.551075413
Ga  Ga6       1.0  0.13028  0.63528  0.93387  1.0000 1.551075413
Ga  Ga7       1.0  0.36472  0.86972  0.43387  1.0000 1.551075413
Ga  Ga8       1.0  0.86972  0.36472  0.06613  1.0000 1.551075413
P   P1        1.0  0.18728  0.77302  0.63409  1.0000 1.5401023767
P   P2        1.0  0.77302  0.18728  0.86591  1.0000 1.5401023767
P   P3        1.0  0.81272  0.22698  0.36591  1.0000 1.5401023767
P   P4        1.0  0.22698  0.81272  0.13409  1.0000 1.5401023767
P   P5        1.0  0.38123  0.09351  0.50496  1.0000 1.5401023767
P   P6        1.0  0.09351  0.38123  0.99504  1.0000 1.5401023767
P   P7        1.0  0.61877  0.90649  0.49504  1.0000 1.5401023767
P   P8        1.0  0.90649  0.61877  0.00496  1.0000 1.5401023767
P   P9        1.0  0.19481  0.19481  0.75000  1.0000 1.4192454062
P   P10       1.0  0.80519  0.80519  0.25000  1.0000 1.4192454062
H   H1        1.0  0.21000  0.92200  0.75900  1.0000 0.3083056054
H   H2        1.0  0.92200  0.21000  0.74100  1.0000 0.3083056054
H   H3        1.0  0.79000  0.07800  0.24100  1.0000 0.3083056054
H   H4        1.0  0.07800  0.79000  0.25900  1.0000 0.3083056054
C   C1        1.0  0.50280  0.94400  0.98630  1.0000 0.5133949286
C   C2        1.0  0.94400  0.50280  0.51370  1.0000 0.5133949286
C   C3        1.0  0.49720  0.05600  0.01370  1.0000 0.5133949286
C   C4        1.0  0.05600  0.49720  0.48630  1.0000 0.5133949286
O   O1        1.0  0.20390  0.86930  0.71490  1.0000 -0.6047015943
O   O2        1.0  0.86930  0.20390  0.78510  1.0000 -0.6047015943
O   O3        1.0  0.79610  0.13070  0.28510  1.0000 -0.6047015943
O   O4        1.0  0.13070  0.79610  0.21490  1.0000 -0.6047015943
O   O5        1.0  0.20148  0.07672  0.77030  1.0000 -0.6865247943
O   O6        1.0  0.07672  0.20148  0.72970  1.0000 -0.6865247943
O   O7        1.0  0.79852  0.92328  0.22970  1.0000 -0.6865247943
O   O8        1.0  0.92328  0.79852  0.27030  1.0000 -0.6865247943
O   O9        1.0  0.08807  0.77433  0.50750  1.0000 -0.6682059922
O   O10       1.0  0.77433  0.08807  0.99250  1.0000 -0.6682059922
O   O11       1.0  0.91193  0.22567  0.49250  1.0000 -0.6682059922
O   O12       1.0  0.22567  0.91193  0.00750  1.0000 -0.6682059922
O   O13       1.0  0.38431  0.04809  0.67280  1.0000 -0.7363188126
O   O14       1.0  0.04809  0.38431  0.82720  1.0000 -0.7363188126
O   O15       1.0  0.61569  0.95191  0.32720  1.0000 -0.7363188126
O   O16       1.0  0.95191  0.61569  0.17280  1.0000 -0.7363188126
O   O17       1.0  0.41744  0.89036  0.91520  1.0000 -0.4038610913
O   O18       1.0  0.89036  0.41744  0.58480  1.0000 -0.4038610913
O   O19       1.0  0.58256  0.10964  0.08480  1.0000 -0.4038610913
O   O20       1.0  0.10964  0.58256  0.41520  1.0000 -0.4038610913
O   O21       1.0  0.59052  0.91468  0.03790  1.0000 -0.3443891265
O   O22       1.0  0.91468  0.59052  0.46210  1.0000 -0.3443891265
O   O23       1.0  0.40948  0.08532  0.96210  1.0000 -0.3443891265
O   O24       1.0  0.08532  0.40948  0.53790  1.0000 -0.3443891265
O   O25       1.0  0.49880  0.14360  0.47490  1.0000 -0.7007984378
O   O26       1.0  0.14360  0.49880  0.02510  1.0000 -0.7007984378
O   O27       1.0  0.50120  0.85640  0.52510  1.0000 -0.7007984378
O   O28       1.0  0.85640  0.50120  0.97490  1.0000 -0.7007984378
O   O29       1.0  0.17058  0.66402  0.74770  1.0000 -0.6781852104
O   O30       1.0  0.66402  0.17058  0.75230  1.0000 -0.6781852104
O   O31       1.0  0.82942  0.33598  0.25230  1.0000 -0.6781852104
O   O32       1.0  0.33598  0.82942  0.24770  1.0000 -0.6781852104
O   O33       1.0  0.28876  0.77244  0.56980  1.0000 -0.6781852104
O   O34       1.0  0.77244  0.28876  0.93020  1.0000 -0.6781852104
O   O35       1.0  0.71124  0.22756  0.43020  1.0000 -0.6781852104
O   O36       1.0  0.22756  0.71124  0.06980  1.0000 -0.6781852104
O   O37       1.0  0.33258  0.00282  0.40700  1.0000 -0.7363188126
O   O38       1.0  0.00282  0.33258  0.09300  1.0000 -0.7363188126
O   O39       1.0  0.66742  0.99718  0.59300  1.0000 -0.7363188126
O   O40       1.0  0.99718  0.66742  0.90700  1.0000 -0.7363188126
O   O41       1.0  0.31576  0.18064  0.44510  1.0000 -0.503123776
O   O42       1.0  0.18064  0.31576  0.05490  1.0000 -0.503123776
O   O43       1.0  0.68424  0.81936  0.55490  1.0000 -0.503123776
O   O44       1.0  0.81936  0.68424  0.94510  1.0000 -0.503123776
O   O45       1.0  0.26050  0.24650  0.88810  1.0000 -0.5935348131
O   O46       1.0  0.24650  0.26050  0.61190  1.0000 -0.5935348131
O   O47       1.0  0.73950  0.75350  0.11190  1.0000 -0.5935348131
O   O48       1.0  0.75350  0.73950  0.38810  1.0000 -0.5935348131
