# DDEC6 charges by PACMAN v1.1 (https://github.com/mtap-research/PACMAN-charge/)
data_2011[Zn][dia]3[ASR]10
_chemical_formula_sum              "Zn2 H40 C56 N4 O8"
_cell_length_a       14.1361
_cell_length_b       14.1361
_cell_length_c       8.406
_cell_angle_alpha    85.7892
_cell_angle_beta     94.2108
_cell_angle_gamma    57.077

_symmetry_space_group_name_H-M    "P 1"
_symmetry_Int_Tables_number       1

loop_
  _symmetry_equiv_pos_as_xyz
  'x, y, z'

loop_
  _atom_site_type_symbol
  _atom_site_label
  _atom_site_symmetry_multiplicity
  _atom_site_fract_x
  _atom_site_fract_y
  _atom_site_fract_z
  _atom_site_occupancy
  _atom_site_charge
Zn  Zn1       1.0  0.89696  0.92030  0.83362  1.0000 0.7366677485
Zn  Zn2       1.0  0.07970  0.10304  0.33362  1.0000 0.7366677485
H   H1        1.0  0.23510  0.02430  0.83990  1.0000 0.1113208211
H   H2        1.0  0.97570  0.76490  0.33990  1.0000 0.1113208211
H   H3        1.0  0.34460  0.98960  0.07900  1.0000 0.1113208211
H   H4        1.0  0.01040  0.65540  0.57900  1.0000 0.1113208211
H   H5        1.0  0.55050  0.04210  0.84120  1.0000 0.1200649659
H   H6        1.0  0.95790  0.44950  0.34120  1.0000 0.1200649659
H   H7        1.0  0.43750  0.08190  0.59990  1.0000 0.1113208211
H   H8        1.0  0.91810  0.56250  0.09990  1.0000 0.1113208211
H   H9        1.0  0.50660  0.96620  0.23080  1.0000 0.1200649659
H   H10       1.0  0.03380  0.49340  0.73080  1.0000 0.1200649659
H   H11       1.0  0.65110  0.99970  0.07400  1.0000 0.1359080971
H   H12       1.0  0.00030  0.34890  0.57400  1.0000 0.1359080971
H   H13       1.0  0.62310  0.89470  0.45740  1.0000 0.1359080971
H   H14       1.0  0.10530  0.37690  0.95740  1.0000 0.1359080971
H   H15       1.0  0.73160  0.86620  0.69710  1.0000 0.1200649659
H   H16       1.0  0.13380  0.26840  0.19710  1.0000 0.1200649659
H   H17       1.0  0.88470  0.99030  0.48670  1.0000 0.1113208211
H   H18       1.0  0.00970  0.11530  0.98670  1.0000 0.1113208211
H   H19       1.0  0.78680  0.01720  0.24020  1.0000 0.1512856856
H   H20       1.0  0.98280  0.21320  0.74020  1.0000 0.1512856856
H   H21       1.0  0.72990  0.19490  0.46580  1.0000 0.1113208211
H   H22       1.0  0.80510  0.27010  0.96580  1.0000 0.1113208211
H   H23       1.0  0.55420  0.30720  0.55190  1.0000 0.1200649659
H   H24       1.0  0.69280  0.44580  0.05190  1.0000 0.1200649659
H   H25       1.0  0.59580  0.56700  0.53270  1.0000 0.1113208211
H   H26       1.0  0.43300  0.40420  0.03270  1.0000 0.1113208211
H   H27       1.0  0.76890  0.45490  0.44670  1.0000 0.1200649659
H   H28       1.0  0.54510  0.23110  0.94670  1.0000 0.1200649659
H   H29       1.0  0.40780  0.48460  0.63640  1.0000 0.1113208211
H   H30       1.0  0.51540  0.59220  0.13640  1.0000 0.1113208211
H   H31       1.0  0.42820  0.66580  0.60630  1.0000 0.1200649659
H   H32       1.0  0.33420  0.57180  0.10630  1.0000 0.1200649659
H   H33       1.0  0.26360  0.84720  0.64050  1.0000 0.1359080971
H   H34       1.0  0.15280  0.73640  0.14050  1.0000 0.1359080971
H   H35       1.0  0.07870  0.95970  0.70530  1.0000 0.1113208211
H   H36       1.0  0.04030  0.92130  0.20530  1.0000 0.1113208211
H   H37       1.0  0.08290  0.68690  0.84020  1.0000 0.1035765018
H   H38       1.0  0.31310  0.91710  0.34020  1.0000 0.1035765018
H   H39       1.0  0.25960  0.57060  0.75810  1.0000 0.1359080971
H   H40       1.0  0.42940  0.74040  0.25810  1.0000 0.1359080971
C   C1        1.0  0.25190  0.08210  0.54050  1.0000 0.5439657233
C   C2        1.0  0.91790  0.74810  0.04050  1.0000 0.5439657233
C   C3        1.0  0.32290  0.05850  0.69430  1.0000 -0.0473291073
C   C4        1.0  0.94150  0.67710  0.19430  1.0000 -0.0473291073
C   C5        1.0  0.29800  0.02920  0.83980  1.0000 -0.1016051993
C   C6        1.0  0.97080  0.70200  0.33980  1.0000 -0.1016051993
C   C7        1.0  0.36420  0.00720  0.98320  1.0000 -0.156774845
C   C8        1.0  0.99280  0.63580  0.48320  1.0000 -0.156774845
C   C9        1.0  0.46170  0.01130  0.98550  1.0000 0.126061555
C   C10       1.0  0.98870  0.53830  0.48550  1.0000 0.126061555
C   C11       1.0  0.48650  0.03910  0.84160  1.0000 -0.140848007
C   C12       1.0  0.96090  0.51350  0.34160  1.0000 -0.140848007
C   C13       1.0  0.41860  0.06300  0.69550  1.0000 -0.1016051993
C   C14       1.0  0.93700  0.58140  0.19550  1.0000 -0.1016051993
C   C15       1.0  0.53080  0.98460  0.14050  1.0000 -0.1274354477
C   C16       1.0  0.01540  0.46920  0.64050  1.0000 -0.1274354477
C   C17       1.0  0.62500  0.98420  0.16430  1.0000 -0.140848007
C   C18       1.0  0.01580  0.37500  0.66430  1.0000 -0.140848007
C   C19       1.0  0.69190  0.96130  0.32340  1.0000 0.167709399
C   C20       1.0  0.03870  0.30810  0.82340  1.0000 0.167709399
C   C21       1.0  0.67620  0.91420  0.46080  1.0000 -0.197536353
C   C22       1.0  0.08580  0.32380  0.96080  1.0000 -0.197536353
C   C23       1.0  0.74210  0.89710  0.60390  1.0000 0.1035765018
C   C24       1.0  0.10290  0.25790  0.10390  1.0000 0.1035765018
C   C25       1.0  0.83270  0.96930  0.47980  1.0000 0.0715830996
C   C26       1.0  0.03070  0.16730  0.97980  1.0000 0.0715830996
C   C27       1.0  0.77320  0.98780  0.33180  1.0000 -0.1800932623
C   C28       1.0  0.01220  0.22680  0.83180  1.0000 -0.1800932623
C   C29       1.0  0.88220  0.24040  0.39540  1.0000 0.5439657233
C   C30       1.0  0.75960  0.11780  0.89540  1.0000 0.5439657233
C   C31       1.0  0.76900  0.31100  0.44700  1.0000 -0.0473291073
C   C32       1.0  0.68900  0.23100  0.94700  1.0000 -0.0473291073
C   C33       1.0  0.70330  0.26970  0.47940  1.0000 -0.0893578269
C   C34       1.0  0.73030  0.29670  0.97940  1.0000 -0.0893578269
C   C35       1.0  0.59770  0.33670  0.53220  1.0000 -0.156774845
C   C36       1.0  0.66330  0.40230  0.03220  1.0000 -0.156774845
C   C37       1.0  0.55820  0.44780  0.55500  1.0000 0.1200649659
C   C38       1.0  0.55220  0.44180  0.05500  1.0000 0.1200649659
C   C39       1.0  0.62290  0.49190  0.52040  1.0000 -0.156774845
C   C40       1.0  0.50810  0.37710  0.02040  1.0000 -0.156774845
C   C41       1.0  0.72610  0.42490  0.46840  1.0000 -0.1016051993
C   C42       1.0  0.57510  0.27390  0.96840  1.0000 -0.1016051993
C   C43       1.0  0.44520  0.52020  0.61150  1.0000 -0.1274354477
C   C44       1.0  0.47980  0.55480  0.11150  1.0000 -0.1274354477
C   C45       1.0  0.39180  0.62900  0.63030  1.0000 -0.156774845
C   C46       1.0  0.37100  0.60820  0.13030  1.0000 -0.156774845
C   C47       1.0  0.27970  0.69670  0.68610  1.0000 0.1512856856
C   C48       1.0  0.30330  0.72030  0.18610  1.0000 0.1512856856
C   C49       1.0  0.22660  0.81340  0.67550  1.0000 -0.197536353
C   C50       1.0  0.18660  0.77340  0.17550  1.0000 -0.197536353
C   C51       1.0  0.11580  0.88100  0.71830  1.0000 0.0874365121
C   C52       1.0  0.11900  0.88420  0.21830  1.0000 0.0874365121
C   C53       1.0  0.11780  0.72020  0.79470  1.0000 0.078220833
C   C54       1.0  0.27980  0.88220  0.29470  1.0000 0.078220833
C   C55       1.0  0.22550  0.64890  0.74770  1.0000 -0.197536353
C   C56       1.0  0.35110  0.77450  0.24770  1.0000 -0.197536353
N   N1        1.0  0.82050  0.92310  0.61420  1.0000 -0.2410218344
N   N2        1.0  0.07690  0.17950  0.11420  1.0000 -0.2410218344
N   N3        1.0  0.06330  0.83310  0.77730  1.0000 -0.2410218344
N   N4        1.0  0.16690  0.93670  0.27730  1.0000 -0.2410218344
O   O1        1.0  0.16690  0.07070  0.54650  1.0000 -0.5611001887
O   O2        1.0  0.92930  0.83310  0.04650  1.0000 -0.5611001887
O   O3        1.0  0.27340  0.10980  0.41060  1.0000 -0.5671828724
O   O4        1.0  0.89020  0.72660  0.91060  1.0000 -0.5671828724
O   O5        1.0  0.92270  0.13550  0.37920  1.0000 -0.5611001887
O   O6        1.0  0.86450  0.07730  0.87920  1.0000 -0.5611001887
O   O7        1.0  0.94000  0.28140  0.37100  1.0000 -0.5433615185
O   O8        1.0  0.71860  0.06000  0.87100  1.0000 -0.5433615185
