# DDEC6 charges by PACMAN v1.1 (https://github.com/mtap-research/PACMAN-charge/)
data_2011[DyNi][sra]3[ASR]1
_chemical_formula_sum              "Dy4 Ni4 H100 C192 N16 O32"
_cell_length_a       8.7602
_cell_length_b       27.8308
_cell_length_c       21.2201
_cell_angle_alpha    90
_cell_angle_beta     97.6801
_cell_angle_gamma    90

_symmetry_space_group_name_H-M    "P 1"
_symmetry_Int_Tables_number       1

loop_
  _symmetry_equiv_pos_as_xyz
  'x, y, z'

loop_
  _atom_site_type_symbol
  _atom_site_label
  _atom_site_symmetry_multiplicity
  _atom_site_fract_x
  _atom_site_fract_y
  _atom_site_fract_z
  _atom_site_occupancy
  _atom_site_charge
Dy  Dy1       1.0  0.81449  0.31147  0.75378  1.0000 2.0389406204
Dy  Dy2       1.0  0.18551  0.81147  0.24622  1.0000 2.0389406204
Dy  Dy3       1.0  0.23006  0.42170  0.74834  1.0000 2.0210299014
Dy  Dy4       1.0  0.76994  0.92170  0.25166  1.0000 2.0210299014
Ni  Ni1       1.0  0.27561  0.31389  0.24013  1.0000 0.3937623024
Ni  Ni2       1.0  0.72439  0.81389  0.75987  1.0000 0.3937623024
Ni  Ni3       1.0  0.77740  0.40801  0.26348  1.0000 0.3937623024
Ni  Ni4       1.0  0.22260  0.90801  0.73652  1.0000 0.3937623024
H   H1        1.0  0.34400  0.20920  0.05140  1.0000 0.1216448686
H   H2        1.0  0.65600  0.70920  0.94860  1.0000 0.1216448686
H   H3        1.0  0.22600  0.15520  0.12440  1.0000 0.1295215323
H   H4        1.0  0.77400  0.65520  0.87560  1.0000 0.1295215323
H   H5        1.0  0.18760  0.16710  0.37190  1.0000 0.1295215323
H   H6        1.0  0.81240  0.66710  0.62810  1.0000 0.1295215323
H   H7        1.0  0.17770  0.23610  0.44570  1.0000 0.1216448686
H   H8        1.0  0.82230  0.73610  0.55430  1.0000 0.1216448686
H   H9        1.0  0.06060  0.42080  0.39750  1.0000 0.1295215323
H   H10       1.0  0.93940  0.92080  0.60250  1.0000 0.1295215323
H   H11       1.0  0.12930  0.47810  0.31650  1.0000 0.1295215323
H   H12       1.0  0.87070  0.97810  0.68350  1.0000 0.1295215323
H   H13       1.0  0.50210  0.45670  0.13890  1.0000 0.1295215323
H   H14       1.0  0.49790  0.95670  0.86110  1.0000 0.1295215323
H   H15       1.0  0.56040  0.38850  0.07160  1.0000 0.1216448686
H   H16       1.0  0.43960  0.88850  0.92840  1.0000 0.1216448686
H   H17       1.0  0.95350  0.15720  0.18570  1.0000 0.1117146174
H   H18       1.0  0.04650  0.65720  0.81430  1.0000 0.1117146174
H   H19       1.0  0.84940  0.07960  0.18760  1.0000 0.1216448686
H   H20       1.0  0.15060  0.57960  0.81240  1.0000 0.1216448686
H   H21       1.0  0.22950  0.03360  0.29600  1.0000 0.1295215323
H   H22       1.0  0.77050  0.53360  0.70400  1.0000 0.1295215323
H   H23       1.0  0.33870  0.11180  0.29490  1.0000 0.1117146174
H   H24       1.0  0.66130  0.61180  0.70510  1.0000 0.1117146174
H   H25       1.0  0.92060  0.29130  0.43820  1.0000 0.1117146174
H   H26       1.0  0.07940  0.79130  0.56180  1.0000 0.1117146174
H   H27       1.0  0.85990  0.29810  0.54200  1.0000 0.1295215323
H   H28       1.0  0.14010  0.79810  0.45800  1.0000 0.1295215323
H   H29       1.0  0.21980  0.38530  0.58700  1.0000 0.1117146174
H   H30       1.0  0.78020  0.88530  0.41300  1.0000 0.1117146174
H   H31       1.0  0.28360  0.37840  0.48430  1.0000 0.1117146174
H   H32       1.0  0.71640  0.87840  0.51570  1.0000 0.1117146174
H   H33       1.0  0.18860  0.49590  0.13730  1.0000 0.1216448686
H   H34       1.0  0.81140  0.99590  0.86270  1.0000 0.1216448686
H   H35       1.0  0.19750  0.57790  0.12890  1.0000 0.1216448686
H   H36       1.0  0.80250  0.07790  0.87110  1.0000 0.1216448686
H   H37       1.0  0.44590  0.58310  0.30060  1.0000 0.1216448686
H   H38       1.0  0.55410  0.08310  0.69940  1.0000 0.1216448686
H   H39       1.0  0.43500  0.50050  0.30920  1.0000 0.1216448686
H   H40       1.0  0.56500  0.00050  0.69080  1.0000 0.1216448686
H   H41       1.0  0.27410  0.69500  0.15870  1.0000 0.3781843006
H   H42       1.0  0.72590  0.19500  0.84130  1.0000 0.3781843006
H   H43       1.0  0.35190  0.35070  0.99740  1.0000 0.1117146174
H   H44       1.0  0.64810  0.85070  0.00260  1.0000 0.1117146174
H   H45       1.0  0.44080  0.34810  0.89760  1.0000 0.1295215323
H   H46       1.0  0.55920  0.84810  0.10240  1.0000 0.1295215323
H   H47       1.0  0.69230  0.23070  0.95460  1.0000 0.1295215323
H   H48       1.0  0.30770  0.73070  0.04540  1.0000 0.1295215323
H   H49       1.0  0.61750  0.23710  0.05510  1.0000 0.1216448686
H   H50       1.0  0.38250  0.73710  0.94490  1.0000 0.1216448686
H   H51       1.0  0.69010  0.51960  0.44340  1.0000 0.1216448686
H   H52       1.0  0.30990  0.01960  0.55660  1.0000 0.1216448686
H   H53       1.0  0.78910  0.57330  0.36450  1.0000 0.1295215323
H   H54       1.0  0.21090  0.07330  0.63550  1.0000 0.1295215323
H   H55       1.0  0.82630  0.55010  0.11800  1.0000 0.1295215323
H   H56       1.0  0.17370  0.05010  0.88200  1.0000 0.1295215323
H   H57       1.0  0.87750  0.47850  0.05360  1.0000 0.1295215323
H   H58       1.0  0.12250  0.97850  0.94640  1.0000 0.1295215323
H   H59       1.0  0.00180  0.29430  0.11340  1.0000 0.1295215323
H   H60       1.0  0.99820  0.79430  0.88660  1.0000 0.1295215323
H   H61       1.0  0.90660  0.24140  0.19100  1.0000 0.1216448686
H   H62       1.0  0.09340  0.74140  0.80900  1.0000 0.1216448686
H   H63       1.0  0.55630  0.26740  0.37440  1.0000 0.1295215323
H   H64       1.0  0.44370  0.76740  0.62560  1.0000 0.1295215323
H   H65       1.0  0.50720  0.33790  0.44030  1.0000 0.1216448686
H   H66       1.0  0.49280  0.83790  0.55970  1.0000 0.1216448686
H   H67       1.0  0.04510  0.58440  0.29090  1.0000 0.1117146174
H   H68       1.0  0.95490  0.08440  0.70910  1.0000 0.1117146174
H   H69       1.0  0.07980  0.66730  0.28610  1.0000 0.1216448686
H   H70       1.0  0.92020  0.16730  0.71390  1.0000 0.1216448686
H   H71       1.0  0.65250  0.67860  0.18140  1.0000 0.1216448686
H   H72       1.0  0.34750  0.17860  0.81860  1.0000 0.1216448686
H   H73       1.0  0.62910  0.59520  0.18640  1.0000 0.1117146174
H   H74       1.0  0.37090  0.09520  0.81360  1.0000 0.1117146174
H   H75       1.0  0.80170  0.33333  0.02720  1.0000 0.1117146174
H   H76       1.0  0.19830  0.83333  0.97280  1.0000 0.1117146174
H   H77       1.0  0.86730  0.32390  0.92510  1.0000 0.0995117097
H   H78       1.0  0.13270  0.82390  0.07490  1.0000 0.0995117097
H   H79       1.0  0.19180  0.42880  0.96360  1.0000 0.1216448686
H   H80       1.0  0.80820  0.92880  0.03640  1.0000 0.1216448686
H   H81       1.0  0.13800  0.43410  0.06650  1.0000 0.1117146174
H   H82       1.0  0.86200  0.93410  0.93350  1.0000 0.1117146174
H   H83       1.0  0.85760  0.22780  0.37080  1.0000 0.1117146174
H   H84       1.0  0.14240  0.72780  0.62920  1.0000 0.1117146174
H   H85       1.0  0.83190  0.14350  0.38060  1.0000 0.1216448686
H   H86       1.0  0.16810  0.64350  0.61940  1.0000 0.1216448686
H   H87       1.0  0.55130  0.14000  0.21260  1.0000 0.1117146174
H   H88       1.0  0.44870  0.64000  0.78740  1.0000 0.1117146174
H   H89       1.0  0.58910  0.22300  0.19960  1.0000 0.1216448686
H   H90       1.0  0.41090  0.72300  0.80040  1.0000 0.1216448686
H   H91       1.0  0.73940  0.02890  0.35190  1.0000 0.3781843006
H   H92       1.0  0.26060  0.52890  0.64810  1.0000 0.3781843006
H   H93       1.0  0.72980  0.38210  0.51900  1.0000 0.1117146174
H   H94       1.0  0.27020  0.88210  0.48100  1.0000 0.1117146174
H   H95       1.0  0.63710  0.39060  0.61420  1.0000 0.1295215323
H   H96       1.0  0.36290  0.89060  0.38580  1.0000 0.1295215323
H   H97       1.0  0.33230  0.49150  0.53850  1.0000 0.1216448686
H   H98       1.0  0.66770  0.99150  0.46150  1.0000 0.1216448686
H   H99       1.0  0.42350  0.48430  0.44030  1.0000 0.1216448686
H   H100      1.0  0.57650  0.98430  0.55970  1.0000 0.1216448686
C   C1        1.0  0.35040  0.26150  0.12400  1.0000 0.1506380558
C   C2        1.0  0.64960  0.76150  0.87600  1.0000 0.1506380558
C   C3        1.0  0.32210  0.21700  0.09280  1.0000 -0.1799747461
C   C4        1.0  0.67790  0.71700  0.90720  1.0000 -0.1799747461
C   C5        1.0  0.25800  0.18750  0.13260  1.0000 -0.1885652548
C   C6        1.0  0.74200  0.68750  0.86740  1.0000 -0.1885652548
C   C7        1.0  0.24800  0.21400  0.18890  1.0000 0.1611120835
C   C8        1.0  0.75200  0.71400  0.81110  1.0000 0.1611120835
C   C9        1.0  0.20870  0.19400  0.24570  1.0000 -0.0600662063
C   C10       1.0  0.79130  0.69400  0.75430  1.0000 -0.0600662063
C   C11       1.0  0.21500  0.22000  0.30090  1.0000 0.1611120835
C   C12       1.0  0.78500  0.72000  0.69910  1.0000 0.1611120835
C   C13       1.0  0.19440  0.20020  0.36170  1.0000 -0.1706047072
C   C14       1.0  0.80560  0.70020  0.63830  1.0000 -0.1706047072
C   C15       1.0  0.18670  0.23780  0.40160  1.0000 -0.1885652548
C   C16       1.0  0.81330  0.73780  0.59840  1.0000 -0.1885652548
C   C17       1.0  0.19480  0.28080  0.36510  1.0000 0.16882676
C   C18       1.0  0.80520  0.78080  0.63490  1.0000 0.16882676
C   C19       1.0  0.15660  0.32610  0.38510  1.0000 -0.0805629533
C   C20       1.0  0.84340  0.82610  0.61490  1.0000 -0.0805629533
C   C21       1.0  0.16410  0.36600  0.34840  1.0000 0.16882676
C   C22       1.0  0.83590  0.86600  0.65160  1.0000 0.16882676
C   C23       1.0  0.11280  0.41290  0.36240  1.0000 -0.1984973952
C   C24       1.0  0.88720  0.91290  0.63760  1.0000 -0.1984973952
C   C25       1.0  0.14960  0.44460  0.31820  1.0000 -0.1706047072
C   C26       1.0  0.85040  0.94460  0.68180  1.0000 -0.1706047072
C   C27       1.0  0.22530  0.41690  0.27490  1.0000 0.1611120835
C   C28       1.0  0.77470  0.91690  0.72510  1.0000 0.1611120835
C   C29       1.0  0.30140  0.43630  0.22740  1.0000 -0.0707689721
C   C30       1.0  0.69860  0.93630  0.77260  1.0000 -0.0707689721
C   C31       1.0  0.36990  0.40720  0.18550  1.0000 0.1611120835
C   C32       1.0  0.63010  0.90720  0.81450  1.0000 0.1611120835
C   C33       1.0  0.46720  0.42450  0.14190  1.0000 -0.1885652548
C   C34       1.0  0.53280  0.92450  0.85810  1.0000 -0.1885652548
C   C35       1.0  0.50110  0.38730  0.10600  1.0000 -0.1799747461
C   C36       1.0  0.49890  0.88730  0.89400  1.0000 -0.1799747461
C   C37       1.0  0.43070  0.34560  0.12930  1.0000 0.16882676
C   C38       1.0  0.56930  0.84560  0.87070  1.0000 0.16882676
C   C39       1.0  0.42220  0.30060  0.09870  1.0000 -0.0600662063
C   C40       1.0  0.57780  0.80060  0.90130  1.0000 -0.0600662063
C   C41       1.0  0.15680  0.14290  0.24360  1.0000 0.0781621468
C   C42       1.0  0.84320  0.64290  0.75640  1.0000 0.0781621468
C   C43       1.0  0.01020  0.13250  0.20940  1.0000 -0.1507630945
C   C44       1.0  0.98980  0.63250  0.79060  1.0000 -0.1507630945
C   C45       1.0  0.94830  0.08620  0.21010  1.0000 -0.0976735803
C   C46       1.0  0.05170  0.58620  0.78990  1.0000 -0.0976735803
C   C47       1.0  0.03060  0.05040  0.24330  1.0000 -0.008017523
C   C48       1.0  0.96940  0.55040  0.75670  1.0000 -0.008017523
C   C49       1.0  0.17240  0.05900  0.27400  1.0000 -0.0805629533
C   C50       1.0  0.82760  0.55900  0.72600  1.0000 -0.0805629533
C   C51       1.0  0.23780  0.10620  0.27380  1.0000 -0.1405354799
C   C52       1.0  0.76220  0.60620  0.72620  1.0000 -0.1405354799
C   C53       1.0  0.95260  0.00240  0.24430  1.0000 0.5833079934
C   C54       1.0  0.04740  0.50240  0.75570  1.0000 0.5833079934
C   C55       1.0  0.11290  0.33190  0.45020  1.0000 0.0919632825
C   C56       1.0  0.88710  0.83190  0.54980  1.0000 0.0919632825
C   C57       1.0  0.98520  0.30990  0.46840  1.0000 -0.1507630945
C   C58       1.0  0.01480  0.80990  0.53160  1.0000 -0.1507630945
C   C59       1.0  0.94760  0.31430  0.53060  1.0000 -0.0896450311
C   C60       1.0  0.05240  0.81430  0.46940  1.0000 -0.0896450311
C   C61       1.0  0.03520  0.34150  0.57430  1.0000 -0.0333581476
C   C62       1.0  0.96480  0.84150  0.42570  1.0000 -0.0333581476
C   C63       1.0  0.15920  0.36550  0.55690  1.0000 -0.0805629533
C   C64       1.0  0.84080  0.86550  0.44310  1.0000 -0.0805629533
C   C65       1.0  0.19780  0.36110  0.49550  1.0000 -0.1405354799
C   C66       1.0  0.80220  0.86110  0.50450  1.0000 -0.1405354799
C   C67       1.0  0.99750  0.34660  0.64030  1.0000 0.6724547266
C   C68       1.0  0.00250  0.84660  0.35970  1.0000 0.6724547266
C   C69       1.0  0.30870  0.48970  0.22300  1.0000 0.0919632825
C   C70       1.0  0.69130  0.98970  0.77700  1.0000 0.0919632825
C   C71       1.0  0.24180  0.51380  0.17150  1.0000 -0.1405354799
C   C72       1.0  0.75820  0.01380  0.82850  1.0000 -0.1405354799
C   C73       1.0  0.24670  0.56220  0.16590  1.0000 -0.0976735803
C   C74       1.0  0.75330  0.06220  0.83410  1.0000 -0.0976735803
C   C75       1.0  0.32450  0.58830  0.21520  1.0000 -0.037891947
C   C76       1.0  0.67550  0.08830  0.78480  1.0000 -0.037891947
C   C77       1.0  0.39210  0.56510  0.26670  1.0000 -0.0976735803
C   C78       1.0  0.60790  0.06510  0.73330  1.0000 -0.0976735803
C   C79       1.0  0.38620  0.51610  0.27210  1.0000 -0.1405354799
C   C80       1.0  0.61380  0.01610  0.72790  1.0000 -0.1405354799
C   C81       1.0  0.33280  0.64280  0.21300  1.0000 0.562948656
C   C82       1.0  0.66720  0.14280  0.78700  1.0000 0.562948656
C   C83       1.0  0.47700  0.29500  0.03690  1.0000 0.0781621468
C   C84       1.0  0.52300  0.79500  0.96310  1.0000 0.0781621468
C   C85       1.0  0.42460  0.32680  0.98950  1.0000 -0.1507630945
C   C86       1.0  0.57540  0.82680  0.01050  1.0000 -0.1507630945
C   C87       1.0  0.47580  0.32500  0.92930  1.0000 -0.0805629533
C   C88       1.0  0.52420  0.82500  0.07070  1.0000 -0.0805629533
C   C89       1.0  0.57680  0.28960  0.91680  1.0000 -0.008017523
C   C90       1.0  0.42320  0.78960  0.08320  1.0000 -0.008017523
C   C91       1.0  0.62610  0.25610  0.96350  1.0000 -0.0976735803
C   C92       1.0  0.37390  0.75610  0.03650  1.0000 -0.0976735803
C   C93       1.0  0.57920  0.25950  0.02300  1.0000 -0.1507630945
C   C94       1.0  0.42080  0.75950  0.97700  1.0000 -0.1507630945
C   C95       1.0  0.64420  0.29130  0.85510  1.0000 0.5914010823
C   C96       1.0  0.35580  0.79130  0.14490  1.0000 0.5914010823
C   C97       1.0  0.70190  0.46400  0.37550  1.0000 0.16882676
C   C98       1.0  0.29810  0.96400  0.62450  1.0000 0.16882676
C   C99       1.0  0.71420  0.51070  0.40270  1.0000 -0.1885652548
C   C100      1.0  0.28580  0.01070  0.59730  1.0000 -0.1885652548
C   C101      1.0  0.76670  0.54000  0.35980  1.0000 -0.1706047072
C   C102      1.0  0.23330  0.04000  0.64020  1.0000 -0.1706047072
C   C103      1.0  0.78190  0.51040  0.30550  1.0000 0.1611120835
C   C104      1.0  0.21810  0.01040  0.69450  1.0000 0.1611120835
C   C105      1.0  0.81210  0.52880  0.24740  1.0000 -0.0707689721
C   C106      1.0  0.18790  0.02880  0.75260  1.0000 -0.0707689721
C   C107      1.0  0.82080  0.50020  0.19490  1.0000 0.16882676
C   C108      1.0  0.17920  0.00020  0.80510  1.0000 0.16882676
C   C109      1.0  0.83490  0.51770  0.13210  1.0000 -0.1799747461
C   C110      1.0  0.16510  0.01770  0.86790  1.0000 -0.1799747461
C   C111      1.0  0.86280  0.47840  0.09710  1.0000 -0.1984973952
C   C112      1.0  0.13720  0.97840  0.90290  1.0000 -0.1984973952
C   C113      1.0  0.86640  0.43680  0.13740  1.0000 0.16882676
C   C114      1.0  0.13360  0.93680  0.86260  1.0000 0.16882676
C   C115      1.0  0.91060  0.39130  0.12120  1.0000 -0.0805629533
C   C116      1.0  0.08940  0.89130  0.87880  1.0000 -0.0805629533
C   C117      1.0  0.89870  0.35160  0.15960  1.0000 0.16882676
C   C118      1.0  0.10130  0.85160  0.84040  1.0000 0.16882676
C   C119      1.0  0.94510  0.30370  0.14650  1.0000 -0.1885652548
C   C120      1.0  0.05490  0.80370  0.85350  1.0000 -0.1885652548
C   C121      1.0  0.89480  0.27530  0.18870  1.0000 -0.1799747461
C   C122      1.0  0.10520  0.77530  0.81130  1.0000 -0.1799747461
C   C123      1.0  0.81980  0.30430  0.23020  1.0000 0.176494804
C   C124      1.0  0.18020  0.80430  0.76980  1.0000 0.176494804
C   C125      1.0  0.74130  0.28650  0.27830  1.0000 -0.0896450311
C   C126      1.0  0.25870  0.78650  0.72170  1.0000 -0.0896450311
C   C127      1.0  0.67910  0.31680  0.31940  1.0000 0.16882676
C   C128      1.0  0.32090  0.81680  0.68060  1.0000 0.16882676
C   C129      1.0  0.58910  0.29950  0.36880  1.0000 -0.1885652548
C   C130      1.0  0.41090  0.79950  0.63120  1.0000 -0.1885652548
C   C131      1.0  0.56220  0.33780  0.40460  1.0000 -0.1706047072
C   C132      1.0  0.43780  0.83780  0.59540  1.0000 -0.1799747461
C   C133      1.0  0.63340  0.37900  0.37840  1.0000 0.16882676
C   C134      1.0  0.36660  0.87900  0.62160  1.0000 0.16882676
C   C135      1.0  0.63800  0.42400  0.40460  1.0000 -0.0805629533
C   C136      1.0  0.36200  0.92400  0.59540  1.0000 -0.0805629533
C   C137      1.0  0.83310  0.58300  0.24290  1.0000 0.0781621468
C   C138      1.0  0.16690  0.08300  0.75710  1.0000 0.0781621468
C   C139      1.0  0.96550  0.60380  0.26950  1.0000 -0.1507630945
C   C140      1.0  0.03450  0.10380  0.73050  1.0000 -0.1507630945
C   C141      1.0  0.98760  0.65280  0.26610  1.0000 -0.0976735803
C   C142      1.0  0.01240  0.15280  0.73390  1.0000 -0.0976735803
C   C143      1.0  0.86820  0.68120  0.23190  1.0000 0.0101090695
C   C144      1.0  0.13180  0.18120  0.76810  1.0000 0.0101090695
C   C145      1.0  0.73310  0.65970  0.20340  1.0000 -0.0976735803
C   C146      1.0  0.26690  0.15970  0.79660  1.0000 -0.0976735803
C   C147      1.0  0.71830  0.61050  0.20760  1.0000 -0.1507630945
C   C148      1.0  0.28170  0.11050  0.79240  1.0000 -0.1507630945
C   C149      1.0  0.88600  0.73600  0.23060  1.0000 0.6134477376
C   C150      1.0  0.11400  0.23600  0.76940  1.0000 0.6134477376
C   C151      1.0  0.96110  0.38460  0.05720  1.0000 0.0995117097
C   C152      1.0  0.03890  0.88460  0.94280  1.0000 0.0995117097
C   C153      1.0  0.88220  0.35230  0.01420  1.0000 -0.1507630945
C   C154      1.0  0.11780  0.85230  0.98580  1.0000 -0.1507630945
C   C155      1.0  0.91880  0.34730  0.95290  1.0000 -0.0896450311
C   C156      1.0  0.08120  0.84730  0.04710  1.0000 -0.0896450311
C   C157      1.0  0.03300  0.37700  0.93170  1.0000 -0.037891947
C   C158      1.0  0.96700  0.87700  0.06830  1.0000 -0.037891947
C   C159      1.0  0.11300  0.40910  0.97650  1.0000 -0.0976735803
C   C160      1.0  0.88700  0.90910  0.02350  1.0000 -0.0976735803
C   C161      1.0  0.08060  0.41280  0.03740  1.0000 -0.1507630945
C   C162      1.0  0.91940  0.91280  0.96260  1.0000 -0.1507630945
C   C163      1.0  0.05600  0.37630  0.86380  1.0000 0.6633646607
C   C164      1.0  0.94400  0.87630  0.13620  1.0000 0.6633646607
C   C165      1.0  0.72270  0.23390  0.28340  1.0000 0.0919632825
C   C166      1.0  0.27730  0.73390  0.71660  1.0000 0.0919632825
C   C167      1.0  0.79690  0.21000  0.33840  1.0000 -0.1405354799
C   C168      1.0  0.20310  0.71000  0.66160  1.0000 -0.1405354799
C   C169      1.0  0.77990  0.15970  0.34460  1.0000 -0.0976735803
C   C170      1.0  0.22010  0.65970  0.65540  1.0000 -0.0976735803
C   C171      1.0  0.68780  0.13420  0.29830  1.0000 -0.0600662063
C   C172      1.0  0.31220  0.63420  0.70170  1.0000 -0.0600662063
C   C173      1.0  0.61480  0.15760  0.24430  1.0000 -0.0896450311
C   C174      1.0  0.38520  0.65760  0.75570  1.0000 -0.0896450311
C   C175      1.0  0.63590  0.20750  0.23710  1.0000 -0.1507630945
C   C176      1.0  0.36410  0.70750  0.76290  1.0000 -0.1507630945
C   C177      1.0  0.66000  0.08260  0.30660  1.0000 0.5543657064
C   C178      1.0  0.34000  0.58260  0.69340  1.0000 0.5543657064
C   C179      1.0  0.58220  0.43080  0.46750  1.0000 0.0919632825
C   C180      1.0  0.41780  0.93080  0.53250  1.0000 0.0919632825
C   C181      1.0  0.64760  0.40390  0.52230  1.0000 -0.1507630945
C   C182      1.0  0.35240  0.90390  0.47770  1.0000 -0.1507630945
C   C183      1.0  0.59300  0.40920  0.57890  1.0000 -0.0805629533
C   C184      1.0  0.40700  0.90920  0.42110  1.0000 -0.0805629533
C   C185      1.0  0.47370  0.44120  0.58680  1.0000 -0.0249392905
C   C186      1.0  0.52630  0.94120  0.41320  1.0000 -0.0249392905
C   C187      1.0  0.41200  0.46920  0.53390  1.0000 -0.1052206003
C   C188      1.0  0.58800  0.96920  0.46610  1.0000 -0.1052206003
C   C189      1.0  0.46530  0.46470  0.47500  1.0000 -0.1706047072
C   C190      1.0  0.53470  0.96470  0.52500  1.0000 -0.1706047072
C   C191      1.0  0.40070  0.44170  0.64650  1.0000 0.5724681138
C   C192      1.0  0.59930  0.94170  0.35350  1.0000 0.5724681138
N   N1        1.0  0.29940  0.26050  0.18390  1.0000 -0.3080399886
N   N2        1.0  0.70060  0.76050  0.81610  1.0000 -0.3080399886
N   N3        1.0  0.22070  0.27000  0.30380  1.0000 -0.2969845117
N   N4        1.0  0.77930  0.77000  0.69620  1.0000 -0.2969845117
N   N5        1.0  0.22600  0.36780  0.29170  1.0000 -0.2969845117
N   N6        1.0  0.77400  0.86780  0.70830  1.0000 -0.2969845117
N   N7        1.0  0.35540  0.35780  0.18030  1.0000 -0.3080399886
N   N8        1.0  0.64460  0.85780  0.81970  1.0000 -0.3080399886
N   N9        1.0  0.74630  0.46270  0.31630  1.0000 -0.2969845117
N   N10       1.0  0.25370  0.96270  0.68370  1.0000 -0.2969845117
N   N11       1.0  0.83220  0.45070  0.19730  1.0000 -0.2969845117
N   N12       1.0  0.16780  0.95070  0.80270  1.0000 -0.2969845117
N   N13       1.0  0.82810  0.35240  0.21490  1.0000 -0.2969845117
N   N14       1.0  0.17190  0.85240  0.78510  1.0000 -0.2969845117
N   N15       1.0  0.69980  0.36630  0.32500  1.0000 -0.2866741896
N   N16       1.0  0.30020  0.86630  0.67500  1.0000 -0.2866741896
O   O1        1.0  0.81480  0.99990  0.21830  1.0000 -0.632923174
O   O2        1.0  0.18520  0.49990  0.78170  1.0000 -0.632923174
O   O3        1.0  0.01910  0.96670  0.27190  1.0000 -0.5918784917
O   O4        1.0  0.98090  0.46670  0.72810  1.0000 -0.5918784917
O   O5        1.0  0.88300  0.32320  0.65330  1.0000 -0.6725951612
O   O6        1.0  0.11700  0.82320  0.34670  1.0000 -0.6725951612
O   O7        1.0  0.07940  0.37390  0.67830  1.0000 -0.6907877505
O   O8        1.0  0.92060  0.87390  0.32170  1.0000 -0.6907877505
O   O9        1.0  0.27730  0.66200  0.15780  1.0000 -0.463077265
O   O10       1.0  0.72270  0.16200  0.84220  1.0000 -0.463077265
O   O11       1.0  0.38480  0.66740  0.25930  1.0000 -0.480614998
O   O12       1.0  0.61520  0.16740  0.74070  1.0000 -0.4715453764
O   O13       1.0  0.62060  0.32820  0.82050  1.0000 -0.6426125348
O   O14       1.0  0.37940  0.82820  0.17950  1.0000 -0.6426125348
O   O15       1.0  0.73230  0.25810  0.84070  1.0000 -0.6502433599
O   O16       1.0  0.26770  0.75810  0.15930  1.0000 -0.6502433599
O   O17       1.0  0.76530  0.75840  0.21130  1.0000 -0.5242049277
O   O18       1.0  0.23470  0.25840  0.78870  1.0000 -0.5242049277
O   O19       1.0  0.01760  0.75190  0.24660  1.0000 -0.6755345345
O   O20       1.0  0.98240  0.25190  0.75340  1.0000 -0.6755345345
O   O21       1.0  0.98870  0.34440  0.82810  1.0000 -0.7059874416
O   O22       1.0  0.01130  0.84440  0.17190  1.0000 -0.7059874416
O   O23       1.0  0.13780  0.40880  0.84460  1.0000 -0.6502433599
O   O24       1.0  0.86220  0.90880  0.15540  1.0000 -0.6502433599
O   O25       1.0  0.56300  0.06030  0.27160  1.0000 -0.480614998
O   O26       1.0  0.43700  0.56030  0.72840  1.0000 -0.480614998
O   O27       1.0  0.74880  0.06190  0.35340  1.0000 -0.4715453764
O   O28       1.0  0.25120  0.56190  0.64660  1.0000 -0.4715453764
O   O29       1.0  0.45340  0.41360  0.69010  1.0000 -0.6240602613
O   O30       1.0  0.54660  0.91360  0.30990  1.0000 -0.6240602613
O   O31       1.0  0.28130  0.46680  0.65120  1.0000 -0.6502433599
O   O32       1.0  0.71870  0.96680  0.34880  1.0000 -0.6502433599
