# DDEC6 charges by PACMAN v1.1 (https://github.com/mtap-research/PACMAN-charge/)
data_2011[La][fsc]3[ASR]1
_chemical_formula_sum              "La2 H42 C54 O18"
_cell_length_a       9.799
_cell_length_b       11.272
_cell_length_c       15.935
_cell_angle_alpha    70.517
_cell_angle_beta     84.668
_cell_angle_gamma    71.046

_symmetry_space_group_name_H-M    "P 1"
_symmetry_Int_Tables_number       1

loop_
  _symmetry_equiv_pos_as_xyz
  'x, y, z'

loop_
  _atom_site_type_symbol
  _atom_site_label
  _atom_site_symmetry_multiplicity
  _atom_site_fract_x
  _atom_site_fract_y
  _atom_site_fract_z
  _atom_site_occupancy
  _atom_site_charge
La  La1       1.0  0.78135  0.54993  0.98539  1.0000 1.9274379258
La  La2       1.0  0.21862  0.45056  0.01498  1.0000 1.9274379258
H   H1        1.0  0.87844  0.24747  0.65279  1.0000 0.0994469892
H   H2        1.0  0.83478  0.32305  0.78744  1.0000 0.1099050247
H   H3        1.0  0.27273  0.33156  0.78107  1.0000 0.1099050247
H   H4        1.0  0.31462  0.26497  0.64256  1.0000 0.0994469892
H   H5        1.0  0.99242  0.95677  0.57035  1.0000 0.0994469892
H   H6        1.0  0.87464  0.82051  0.69268  1.0000 0.1099050247
H   H7        1.0  0.16682  0.80991  0.88470  1.0000 0.1150174384
H   H8        1.0  0.27398  0.95926  0.76410  1.0000 0.1099050247
H   H9        1.0  0.00042  0.31767  0.40839  1.0000 0.0913879108
H   H10       1.0  0.97384  0.42196  0.47683  1.0000 0.0913879108
H   H11       1.0  0.08367  0.44696  0.38052  1.0000 0.0994469892
H   H12       1.0  0.42992  0.92373  0.60830  1.0000 0.0913879108
H   H13       1.0  0.36032  0.81072  0.58314  1.0000 0.0994469892
H   H14       1.0  0.46459  0.90102  0.50164  1.0000 0.0994469892
H   H15       1.0  0.75782  0.44137  0.36725  1.0000 0.0994469892
H   H16       1.0  0.74809  0.43305  0.21337  1.0000 0.0994469892
H   H17       1.0  0.30896  0.42176  0.25373  1.0000 0.1099050247
H   H18       1.0  0.31664  0.43733  0.40692  1.0000 0.0994469892
H   H19       1.0  0.12158  0.75359  0.34758  1.0000 0.0994469892
H   H20       1.0  0.16527  0.67705  0.21360  1.0000 0.1099050247
H   H21       1.0  0.72725  0.66845  0.22006  1.0000 0.1099050247
H   H22       1.0  0.68530  0.73616  0.35792  1.0000 0.0913879108
H   H23       1.0  0.00712  0.04362  0.42943  1.0000 0.0913879108
H   H24       1.0  0.12566  0.17908  0.30720  1.0000 0.1099050247
H   H25       1.0  0.83373  0.19020  0.11482  1.0000 0.1150174384
H   H26       1.0  0.72540  0.04172  0.23545  1.0000 0.1099050247
H   H27       1.0  0.99998  0.68265  0.59160  1.0000 0.0913879108
H   H28       1.0  0.02433  0.57998  0.52227  1.0000 0.0913879108
H   H29       1.0  0.91538  0.55433  0.61893  1.0000 0.0994469892
H   H30       1.0  0.56326  0.07292  0.39106  1.0000 0.0913879108
H   H31       1.0  0.62865  0.19168  0.41193  1.0000 0.0994469892
H   H32       1.0  0.52769  0.10144  0.49614  1.0000 0.0994469892
H   H33       1.0  0.24076  0.55807  0.63387  1.0000 0.0994469892
H   H34       1.0  0.25177  0.56723  0.78741  1.0000 0.0994469892
H   H35       1.0  0.69051  0.57880  0.74571  1.0000 0.1099050247
H   H36       1.0  0.68188  0.56222  0.59294  1.0000 0.0994469892
H   H37       1.0  0.52868  0.22441  0.56076  1.0000 0.0808465937
H   H38       1.0  0.71733  0.14348  0.58833  1.0000 0.0994469892
H   H39       1.0  0.60018  0.22324  0.66138  1.0000 0.0994469892
H   H40       1.0  0.29559  0.85419  0.40444  1.0000 0.1099050247
H   H41       1.0  0.42544  0.76296  0.34162  1.0000 0.0994469892
H   H42       1.0  0.47841  0.76869  0.44463  1.0000 0.0808465937
C   C1        1.0  0.58845  0.56290  0.63653  1.0000 -0.1198358098
C   C2        1.0  0.46250  0.55682  0.60471  1.0000 0.0409771065
C   C3        1.0  0.33953  0.56192  0.65832  1.0000 -0.1198358098
C   C4        1.0  0.34516  0.56793  0.74391  1.0000 -0.0877936519
C   C5        1.0  0.47123  0.57372  0.77602  1.0000 -0.0499424245
C   C6        1.0  0.59211  0.57319  0.72123  1.0000 -0.0794761385
C   C7        1.0  0.45573  0.54834  0.51471  1.0000 0.0808465937
C   C8        1.0  0.38906  0.76478  0.40926  1.0000 -0.1611485909
C   C9        1.0  0.47090  0.58413  0.86712  1.0000 0.6445777957
C   C10       1.0  0.93618  0.73078  0.86655  1.0000 0.6040676479
C   C11       1.0  0.54484  0.44860  0.48640  1.0000 0.0808465937
C   C12       1.0  0.62311  0.22898  0.59092  1.0000 -0.1611485909
C   C13       1.0  0.53684  0.44148  0.39602  1.0000 0.0409771065
C   C14       1.0  0.65967  0.43708  0.34240  1.0000 -0.1198358098
C   C15       1.0  0.65438  0.43191  0.25656  1.0000 -0.0877936519
C   C16       1.0  0.52835  0.42650  0.22416  1.0000 -0.0499424245
C   C17       1.0  0.40723  0.42688  0.27877  1.0000 -0.0794761385
C   C18       1.0  0.41060  0.43638  0.36376  1.0000 -0.1198358098
C   C19       1.0  0.52915  0.41599  0.13307  1.0000 0.6445777957
C   C20       1.0  0.06400  0.26933  0.13333  1.0000 0.6040676479
C   C21       1.0  0.60709  0.09635  0.44284  1.0000 -0.181100377
C   C22       1.0  0.38484  0.90492  0.55475  1.0000 -0.181100377
C   C23       1.0  0.03723  0.14913  0.29206  1.0000 -0.0877936519
C   C24       1.0  0.96269  0.85092  0.70777  1.0000 -0.0877936519
C   C25       1.0  0.93970  0.30973  0.75480  1.0000 -0.0794761385
C   C26       1.0  0.96379  0.26831  0.67963  1.0000 -0.1311142239
C   C27       1.0  0.06003  0.69089  0.24592  1.0000 -0.0794761385
C   C28       1.0  0.03584  0.73302  0.32088  1.0000 -0.1311142239
C   C29       1.0  0.13518  0.97315  0.65928  1.0000 0.0324787945
C   C30       1.0  0.18608  0.92965  0.74776  1.0000 -0.1198358098
C   C31       1.0  0.12554  0.84683  0.81584  1.0000 -0.0794761385
C   C32       1.0  0.00990  0.81168  0.79632  1.0000 -0.0420217309
C   C33       1.0  0.02725  0.92793  0.63977  1.0000 -0.1198358098
C   C34       1.0  0.02804  0.38443  0.86649  1.0000 0.6323828045
C   C35       1.0  0.05074  0.33368  0.78998  1.0000 -0.0600486043
C   C36       1.0  0.18717  0.31589  0.75056  1.0000 -0.0794761385
C   C37       1.0  0.20973  0.27913  0.67436  1.0000 -0.1311142239
C   C38       1.0  0.09964  0.25317  0.63931  1.0000 0.0409771065
C   C39       1.0  0.14762  0.19795  0.56544  1.0000 0.0745206644
C   C40       1.0  0.05244  0.37135  0.43553  1.0000 -0.1685385411
C   C41       1.0  0.18308  0.06587  0.57986  1.0000 0.0808465937
C   C42       1.0  0.86300  0.02881  0.34049  1.0000 0.0324787945
C   C43       1.0  0.81305  0.07155  0.25190  1.0000 -0.1198358098
C   C44       1.0  0.87450  0.15354  0.18380  1.0000 -0.0794761385
C   C45       1.0  0.99025  0.18838  0.20344  1.0000 -0.0420217309
C   C46       1.0  0.97188  0.07287  0.36005  1.0000 -0.1198358098
C   C47       1.0  0.97184  0.61591  0.13421  1.0000 0.6323828045
C   C48       1.0  0.94918  0.66667  0.21073  1.0000 -0.0600486043
C   C49       1.0  0.81284  0.68468  0.25026  1.0000 -0.0794761385
C   C50       1.0  0.79021  0.72224  0.32620  1.0000 -0.1311142239
C   C51       1.0  0.89992  0.74891  0.36112  1.0000 0.0409771065
C   C52       1.0  0.85106  0.80477  0.43489  1.0000 0.0808465937
C   C53       1.0  0.94669  0.63016  0.56417  1.0000 -0.1685385411
C   C54       1.0  0.81354  0.93714  0.41982  1.0000 0.0808465937
O   O1        1.0  0.34639  0.64863  0.45729  1.0000 -0.1877791341
O   O2        1.0  0.57247  0.61449  0.89051  1.0000 -0.6212924476
O   O3        1.0  0.80198  0.74929  0.85819  1.0000 -0.5797785576
O   O4        1.0  0.89726  0.42758  0.89071  1.0000 -0.6284817215
O   O5        1.0  0.65616  0.35040  0.54289  1.0000 -0.1877791341
O   O6        1.0  0.42782  0.38540  0.10959  1.0000 -0.6212924476
O   O7        1.0  0.19815  0.25093  0.14170  1.0000 -0.5797785576
O   O8        1.0  0.10252  0.57285  0.10985  1.0000 -0.6284817215
O   O9        1.0  0.63637  0.43552  0.08340  1.0000 -0.6575646158
O   O10       1.0  0.36396  0.56440  0.91702  1.0000 -0.6575646158
O   O11       1.0  0.01090  0.63959  0.93469  1.0000 -0.6991964038
O   O12       1.0  0.14065  0.38573  0.90096  1.0000 -0.6450391765
O   O13       1.0  0.18287  0.28139  0.48548  1.0000 -0.181100377
O   O14       1.0  0.25592  0.01328  0.51511  1.0000 -0.1685385411
O   O15       1.0  0.98916  0.36071  0.06532  1.0000 -0.6991964038
O   O16       1.0  0.85925  0.61462  0.09973  1.0000 -0.6450391765
O   O17       1.0  0.81609  0.72106  0.51485  1.0000 -0.181100377
O   O18       1.0  0.73763  0.99108  0.48351  1.0000 -0.181100377
