# DDEC6 charges by PACMAN v1.1 (https://github.com/mtap-research/PACMAN-charge/)
data_2011[Zn][nan]3[ASR]31
_chemical_formula_sum              "Zn8 H80 C136 N12 O40"
_cell_length_a       15.0855
_cell_length_b       15.0855
_cell_length_c       21.515
_cell_angle_alpha    83.8672
_cell_angle_beta     96.1328
_cell_angle_gamma    114.444

_symmetry_space_group_name_H-M    "P 1"
_symmetry_Int_Tables_number       1

loop_
  _symmetry_equiv_pos_as_xyz
  'x, y, z'

loop_
  _atom_site_type_symbol
  _atom_site_label
  _atom_site_symmetry_multiplicity
  _atom_site_fract_x
  _atom_site_fract_y
  _atom_site_fract_z
  _atom_site_occupancy
  _atom_site_charge
Zn  Zn1       1.0  0.01285  0.99035  0.31854  1.0000 0.9156466193
Zn  Zn2       1.0  0.99035  0.01285  0.18146  1.0000 0.9156466193
Zn  Zn3       1.0  0.98715  0.00965  0.68146  1.0000 0.9156466193
Zn  Zn4       1.0  0.00965  0.98715  0.81854  1.0000 0.9156466193
Zn  Zn5       1.0  0.43236  0.04816  0.99390  1.0000 0.8336073823
Zn  Zn6       1.0  0.04816  0.43236  0.50610  1.0000 0.8336073823
Zn  Zn7       1.0  0.56764  0.95184  0.00610  1.0000 0.8336073823
Zn  Zn8       1.0  0.95184  0.56764  0.49390  1.0000 0.8336073823
H   H1        1.0  0.10300  0.32220  0.16390  1.0000 0.1202802849
H   H2        1.0  0.32220  0.10300  0.33610  1.0000 0.1202802849
H   H3        1.0  0.89700  0.67780  0.83610  1.0000 0.1202802849
H   H4        1.0  0.67780  0.89700  0.66390  1.0000 0.1202802849
H   H5        1.0  0.15200  0.48780  0.16080  1.0000 0.1292415945
H   H6        1.0  0.48780  0.15200  0.33920  1.0000 0.1292415945
H   H7        1.0  0.84800  0.51220  0.83920  1.0000 0.1292415945
H   H8        1.0  0.51220  0.84800  0.66080  1.0000 0.1292415945
H   H9        1.0  0.11240  0.46700  0.34340  1.0000 0.1401521978
H   H10       1.0  0.46700  0.11240  0.15660  1.0000 0.1401521978
H   H11       1.0  0.88760  0.53300  0.65660  1.0000 0.1401521978
H   H12       1.0  0.53300  0.88760  0.84340  1.0000 0.1401521978
H   H13       1.0  0.06260  0.30020  0.34650  1.0000 0.1292415945
H   H14       1.0  0.30020  0.06260  0.15350  1.0000 0.1292415945
H   H15       1.0  0.93740  0.69980  0.65350  1.0000 0.1292415945
H   H16       1.0  0.69980  0.93740  0.84650  1.0000 0.1292415945
H   H17       1.0  0.40930  0.73690  0.13620  1.0000 0.1202802849
H   H18       1.0  0.73690  0.40930  0.36380  1.0000 0.1202802849
H   H19       1.0  0.59070  0.26310  0.86380  1.0000 0.1202802849
H   H20       1.0  0.26310  0.59070  0.63620  1.0000 0.1202802849
H   H21       1.0  0.31470  0.60870  0.20270  1.0000 0.1292415945
H   H22       1.0  0.60870  0.31470  0.29730  1.0000 0.1292415945
H   H23       1.0  0.68530  0.39130  0.79730  1.0000 0.1292415945
H   H24       1.0  0.39130  0.68530  0.70270  1.0000 0.1292415945
H   H25       1.0  0.13030  0.73670  0.20780  1.0000 0.1292415945
H   H26       1.0  0.73670  0.13030  0.29220  1.0000 0.1292415945
H   H27       1.0  0.86970  0.26330  0.79220  1.0000 0.1292415945
H   H28       1.0  0.26330  0.86970  0.70780  1.0000 0.1292415945
H   H29       1.0  0.22810  0.86710  0.14280  1.0000 0.1202802849
H   H30       1.0  0.86710  0.22810  0.35720  1.0000 0.1202802849
H   H31       1.0  0.77190  0.13290  0.85720  1.0000 0.1202802849
H   H32       1.0  0.13290  0.77190  0.64280  1.0000 0.1202802849
H   H33       1.0  0.55870  0.88810  0.37810  1.0000 0.1292415945
H   H34       1.0  0.88810  0.55870  0.12190  1.0000 0.1292415945
H   H35       1.0  0.44130  0.11190  0.62190  1.0000 0.1292415945
H   H36       1.0  0.11190  0.44130  0.87810  1.0000 0.1292415945
H   H37       1.0  0.71830  0.91290  0.36710  1.0000 0.1202802849
H   H38       1.0  0.91290  0.71830  0.13290  1.0000 0.1202802849
H   H39       1.0  0.28170  0.08710  0.63290  1.0000 0.1202802849
H   H40       1.0  0.08710  0.28170  0.86710  1.0000 0.1202802849
H   H41       1.0  0.68110  0.96170  0.18200  1.0000 0.1202802849
H   H42       1.0  0.96170  0.68110  0.31800  1.0000 0.1202802849
H   H43       1.0  0.31890  0.03830  0.81800  1.0000 0.1202802849
H   H44       1.0  0.03830  0.31890  0.68200  1.0000 0.1202802849
H   H45       1.0  0.52040  0.93140  0.19070  1.0000 0.1401521978
H   H46       1.0  0.93140  0.52040  0.30930  1.0000 0.1401521978
H   H47       1.0  0.47960  0.06860  0.80930  1.0000 0.1401521978
H   H48       1.0  0.06860  0.47960  0.69070  1.0000 0.1401521978
H   H49       1.0  0.15040  0.79120  0.36700  1.0000 0.1202802849
H   H50       1.0  0.79120  0.15040  0.13300  1.0000 0.1202802849
H   H51       1.0  0.84960  0.20880  0.63300  1.0000 0.1202802849
H   H52       1.0  0.20880  0.84960  0.86700  1.0000 0.1202802849
H   H53       1.0  0.27780  0.90560  0.31290  1.0000 0.1292415945
H   H54       1.0  0.90560  0.27780  0.18710  1.0000 0.1292415945
H   H55       1.0  0.72220  0.09440  0.68710  1.0000 0.1292415945
H   H56       1.0  0.09440  0.72220  0.81290  1.0000 0.1292415945
H   H57       1.0  0.42130  0.73050  0.34520  1.0000 0.1292415945
H   H58       1.0  0.73050  0.42130  0.15480  1.0000 0.1292415945
H   H59       1.0  0.57870  0.26950  0.65480  1.0000 0.1292415945
H   H60       1.0  0.26950  0.57870  0.84520  1.0000 0.1292415945
H   H61       1.0  0.29360  0.61840  0.40030  1.0000 0.1134948499
H   H62       1.0  0.61840  0.29360  0.09970  1.0000 0.1134948499
H   H63       1.0  0.70640  0.38160  0.59970  1.0000 0.1134948499
H   H64       1.0  0.38160  0.70640  0.90030  1.0000 0.1134948499
H   H65       1.0  0.25210  0.06110  0.92350  1.0000 0.1202802849
H   H66       1.0  0.06110  0.25210  0.57650  1.0000 0.1202802849
H   H67       1.0  0.74790  0.93890  0.07650  1.0000 0.1202802849
H   H68       1.0  0.93890  0.74790  0.42350  1.0000 0.1202802849
H   H69       1.0  0.18930  0.17430  0.89190  1.0000 0.1401521978
H   H70       1.0  0.17430  0.18930  0.60810  1.0000 0.1401521978
H   H71       1.0  0.81070  0.82570  0.10810  1.0000 0.1401521978
H   H72       1.0  0.82570  0.81070  0.39190  1.0000 0.1401521978
H   H73       1.0  0.27520  0.33420  0.91940  1.0000 0.1202802849
H   H74       1.0  0.33420  0.27520  0.58060  1.0000 0.1202802849
H   H75       1.0  0.72480  0.66580  0.08060  1.0000 0.1202802849
H   H76       1.0  0.66580  0.72480  0.41940  1.0000 0.1202802849
H   H77       1.0  0.48100  0.25520  0.00810  1.0000 0.1202802849
H   H78       1.0  0.25520  0.48100  0.49190  1.0000 0.1202802849
H   H79       1.0  0.51900  0.74480  0.99190  1.0000 0.1202802849
H   H80       1.0  0.74480  0.51900  0.50810  1.0000 0.1202802849
C   C1        1.0  0.07999  0.29341  0.25594  1.0000 -0.04272868
C   C2        1.0  0.29341  0.07999  0.24406  1.0000 -0.04272868
C   C3        1.0  0.92001  0.70659  0.74406  1.0000 -0.04272868
C   C4        1.0  0.70659  0.92001  0.75594  1.0000 -0.04272868
C   C5        1.0  0.10560  0.35140  0.20034  1.0000 -0.0795578775
C   C6        1.0  0.35140  0.10560  0.29966  1.0000 -0.0795578775
C   C7        1.0  0.89440  0.64860  0.79966  1.0000 -0.0795578775
C   C8        1.0  0.64860  0.89440  0.70034  1.0000 -0.0795578775
C   C9        1.0  0.13426  0.45014  0.19817  1.0000 -0.2111203082
C   C10       1.0  0.45014  0.13426  0.30183  1.0000 -0.2111203082
C   C11       1.0  0.86574  0.54986  0.80183  1.0000 -0.2111203082
C   C12       1.0  0.54986  0.86574  0.69817  1.0000 -0.2111203082
C   C13       1.0  0.13654  0.49346  0.25192  1.0000 0.2492305505
C   C14       1.0  0.49346  0.13654  0.24808  1.0000 0.2492305505
C   C15       1.0  0.86346  0.50654  0.74808  1.0000 0.2492305505
C   C16       1.0  0.50654  0.86346  0.75192  1.0000 0.2492305505
C   C17       1.0  0.11038  0.43742  0.30717  1.0000 -0.1931338672
C   C18       1.0  0.43742  0.11038  0.19283  1.0000 -0.1931338672
C   C19       1.0  0.88962  0.56258  0.69283  1.0000 -0.1931338672
C   C20       1.0  0.56258  0.88962  0.80717  1.0000 -0.1931338672
C   C21       1.0  0.08142  0.33778  0.30914  1.0000 -0.0795578775
C   C22       1.0  0.33778  0.08142  0.19086  1.0000 -0.0795578775
C   C23       1.0  0.91858  0.66222  0.69086  1.0000 -0.0795578775
C   C24       1.0  0.66222  0.91858  0.80914  1.0000 -0.0795578775
C   C25       1.0  0.04614  0.18426  0.25594  1.0000 0.5886429814
C   C26       1.0  0.18426  0.04614  0.24406  1.0000 0.5886429814
C   C27       1.0  0.95386  0.81574  0.74406  1.0000 0.5886429814
C   C28       1.0  0.81574  0.95386  0.75594  1.0000 0.5886429814
C   C29       1.0  0.32652  0.81376  0.13135  1.0000 -0.0483387288
C   C30       1.0  0.81376  0.32652  0.36865  1.0000 -0.0483387288
C   C31       1.0  0.67348  0.18624  0.86865  1.0000 -0.0483387288
C   C32       1.0  0.18624  0.67348  0.63135  1.0000 -0.0483387288
C   C33       1.0  0.35329  0.73711  0.15030  1.0000 -0.0795578775
C   C34       1.0  0.73711  0.35329  0.34970  1.0000 -0.0795578775
C   C35       1.0  0.64671  0.26289  0.84970  1.0000 -0.0795578775
C   C36       1.0  0.26289  0.64671  0.65030  1.0000 -0.0795578775
C   C37       1.0  0.29671  0.66029  0.19040  1.0000 -0.2186726662
C   C38       1.0  0.66029  0.29671  0.30960  1.0000 -0.2186726662
C   C39       1.0  0.70329  0.33971  0.80960  1.0000 -0.2186726662
C   C40       1.0  0.33971  0.70329  0.69040  1.0000 -0.2186726662
C   C41       1.0  0.21388  0.66092  0.21169  1.0000 0.2492305505
C   C42       1.0  0.66092  0.21388  0.28831  1.0000 0.2492305505
C   C43       1.0  0.78612  0.33908  0.78831  1.0000 0.2492305505
C   C44       1.0  0.33908  0.78612  0.71169  1.0000 0.2492305505
C   C45       1.0  0.18646  0.73674  0.19380  1.0000 -0.2009059832
C   C46       1.0  0.73674  0.18646  0.30620  1.0000 -0.2009059832
C   C47       1.0  0.81354  0.26326  0.80620  1.0000 -0.2009059832
C   C48       1.0  0.26326  0.81354  0.69380  1.0000 -0.2009059832
C   C49       1.0  0.24490  0.81450  0.15398  1.0000 -0.0795578775
C   C50       1.0  0.81450  0.24490  0.34602  1.0000 -0.0795578775
C   C51       1.0  0.75510  0.18550  0.84602  1.0000 -0.0795578775
C   C52       1.0  0.18550  0.75510  0.65398  1.0000 -0.0795578775
C   C53       1.0  0.38670  0.89364  0.08635  1.0000 0.5764176316
C   C54       1.0  0.89364  0.38670  0.41365  1.0000 0.5764176316
C   C55       1.0  0.61330  0.10636  0.91365  1.0000 0.5764176316
C   C56       1.0  0.10636  0.61330  0.58635  1.0000 0.5764176316
C   C57       1.0  0.52394  0.90586  0.28460  1.0000 0.2579443223
C   C58       1.0  0.90586  0.52394  0.21540  1.0000 0.2579443223
C   C59       1.0  0.47606  0.09414  0.71540  1.0000 0.2579443223
C   C60       1.0  0.09414  0.47606  0.78460  1.0000 0.2579443223
C   C61       1.0  0.58324  0.90156  0.33860  1.0000 -0.2186726662
C   C62       1.0  0.90156  0.58324  0.16140  1.0000 -0.2186726662
C   C63       1.0  0.41676  0.09844  0.66140  1.0000 -0.2186726662
C   C64       1.0  0.09844  0.41676  0.83860  1.0000 -0.2186726662
C   C65       1.0  0.67864  0.91756  0.33182  1.0000 -0.0871333264
C   C66       1.0  0.91756  0.67864  0.16818  1.0000 -0.0871333264
C   C67       1.0  0.32136  0.08244  0.66818  1.0000 -0.0871333264
C   C68       1.0  0.08244  0.32136  0.83182  1.0000 -0.0871333264
C   C69       1.0  0.71649  0.94033  0.27393  1.0000 -0.0483387288
C   C70       1.0  0.94033  0.71649  0.22607  1.0000 -0.0483387288
C   C71       1.0  0.28351  0.05967  0.72607  1.0000 -0.0483387288
C   C72       1.0  0.05967  0.28351  0.77393  1.0000 -0.0483387288
C   C73       1.0  0.65600  0.94580  0.22129  1.0000 -0.0795578775
C   C74       1.0  0.94580  0.65600  0.27871  1.0000 -0.0795578775
C   C75       1.0  0.34400  0.05420  0.77871  1.0000 -0.0795578775
C   C76       1.0  0.05420  0.34400  0.72129  1.0000 -0.0795578775
C   C77       1.0  0.56020  0.92820  0.22625  1.0000 -0.1931338672
C   C78       1.0  0.92820  0.56020  0.27375  1.0000 -0.1931338672
C   C79       1.0  0.43980  0.07180  0.77375  1.0000 -0.1931338672
C   C80       1.0  0.07180  0.43980  0.72625  1.0000 -0.1931338672
C   C81       1.0  0.82194  0.96086  0.26770  1.0000 0.5886429814
C   C82       1.0  0.96086  0.82194  0.23230  1.0000 0.5886429814
C   C83       1.0  0.17806  0.03914  0.73230  1.0000 0.5886429814
C   C84       1.0  0.03914  0.17806  0.76770  1.0000 0.5886429814
C   C85       1.0  0.20969  0.69445  0.39000  1.0000 -0.04272868
C   C86       1.0  0.69445  0.20969  0.11000  1.0000 -0.04272868
C   C87       1.0  0.79031  0.30555  0.61000  1.0000 -0.04272868
C   C88       1.0  0.30555  0.79031  0.89000  1.0000 -0.04272868
C   C89       1.0  0.20529  0.77951  0.36305  1.0000 -0.0795578775
C   C90       1.0  0.77951  0.20529  0.13695  1.0000 -0.0795578775
C   C91       1.0  0.79471  0.22049  0.63695  1.0000 -0.0795578775
C   C92       1.0  0.22049  0.79471  0.86305  1.0000 -0.0795578775
C   C93       1.0  0.28090  0.84770  0.33030  1.0000 -0.2009059832
C   C94       1.0  0.84770  0.28090  0.16970  1.0000 -0.2009059832
C   C95       1.0  0.71910  0.15230  0.66970  1.0000 -0.2009059832
C   C96       1.0  0.15230  0.71910  0.83030  1.0000 -0.2009059832
C   C97       1.0  0.36164  0.82836  0.32380  1.0000 0.2579443223
C   C98       1.0  0.82836  0.36164  0.17620  1.0000 0.2579443223
C   C99       1.0  0.63836  0.17164  0.67620  1.0000 0.2579443223
C   C100      1.0  0.17164  0.63836  0.82380  1.0000 0.2579443223
C   C101      1.0  0.36698  0.74302  0.34980  1.0000 -0.2186726662
C   C102      1.0  0.74302  0.36698  0.15020  1.0000 -0.2186726662
C   C103      1.0  0.63302  0.25698  0.65020  1.0000 -0.2186726662
C   C104      1.0  0.25698  0.63302  0.84980  1.0000 -0.2186726662
C   C105      1.0  0.29070  0.67630  0.38280  1.0000 -0.071501375
C   C106      1.0  0.67630  0.29070  0.11720  1.0000 -0.071501375
C   C107      1.0  0.70930  0.32370  0.61720  1.0000 -0.071501375
C   C108      1.0  0.32370  0.70930  0.88280  1.0000 -0.071501375
C   C109      1.0  0.12695  0.62133  0.42623  1.0000 0.5886429814
C   C110      1.0  0.62133  0.12695  0.07377  1.0000 0.5886429814
C   C111      1.0  0.87305  0.37867  0.57377  1.0000 0.5886429814
C   C112      1.0  0.37867  0.87305  0.92623  1.0000 0.5886429814
C   C113      1.0  0.44897  0.41323  0.98520  1.0000 0.2492305505
C   C114      1.0  0.41323  0.44897  0.51480  1.0000 0.2492305505
C   C115      1.0  0.55103  0.58677  0.01480  1.0000 0.2492305505
C   C116      1.0  0.58677  0.55103  0.48520  1.0000 0.2492305505
C   C117      1.0  0.28672  0.12488  0.93470  1.0000 0.0792077102
C   C118      1.0  0.12488  0.28672  0.56530  1.0000 0.0792077102
C   C119      1.0  0.71328  0.87512  0.06530  1.0000 0.0792077102
C   C120      1.0  0.87512  0.71328  0.43470  1.0000 0.0792077102
C   C121      1.0  0.24873  0.19227  0.91540  1.0000 -0.1327454232
C   C122      1.0  0.19227  0.24873  0.58460  1.0000 -0.1327454232
C   C123      1.0  0.75127  0.80773  0.08460  1.0000 -0.1327454232
C   C124      1.0  0.80773  0.75127  0.41540  1.0000 -0.1327454232
C   C125      1.0  0.30005  0.28735  0.93140  1.0000 -0.071501375
C   C126      1.0  0.28735  0.30005  0.56860  1.0000 -0.071501375
C   C127      1.0  0.69995  0.71265  0.06860  1.0000 -0.071501375
C   C128      1.0  0.71265  0.69995  0.43140  1.0000 -0.071501375
C   C129      1.0  0.38961  0.31239  0.96597  1.0000 -0.0019540552
C   C130      1.0  0.31239  0.38961  0.53403  1.0000 -0.0019540552
C   C131      1.0  0.61039  0.68761  0.03403  1.0000 -0.0019540552
C   C132      1.0  0.68761  0.61039  0.46597  1.0000 -0.0019540552
C   C133      1.0  0.42197  0.23949  0.98427  1.0000 0.0588984128
C   C134      1.0  0.23949  0.42197  0.51573  1.0000 0.0588984128
C   C135      1.0  0.57803  0.76051  0.01573  1.0000 0.0588984128
C   C136      1.0  0.76051  0.57803  0.48427  1.0000 0.0588984128
N   N1        1.0  0.41912  0.48258  0.96088  1.0000 -0.1601563774
N   N2        1.0  0.48258  0.41912  0.53912  1.0000 -0.1601563774
N   N3        1.0  0.58088  0.51742  0.03912  1.0000 -0.1601563774
N   N4        1.0  0.51742  0.58088  0.46088  1.0000 -0.1601563774
N   N5        1.0  0.52768  0.42812  0.02370  1.0000 -0.1601563774
N   N6        1.0  0.42812  0.52768  0.47630  1.0000 -0.1601563774
N   N7        1.0  0.47232  0.57188  0.97630  1.0000 -0.1601563774
N   N8        1.0  0.57188  0.47232  0.52370  1.0000 -0.1601563774
N   N9        1.0  0.37115  0.14665  0.96892  1.0000 -0.2009059832
N   N10       1.0  0.14665  0.37115  0.53108  1.0000 -0.2009059832
N   N11       1.0  0.62885  0.85335  0.03108  1.0000 -0.2009059832
N   N12       1.0  0.85335  0.62885  0.46892  1.0000 -0.2009059832
O   O1        1.0  0.15660  0.59070  0.25414  1.0000 -0.2009059832
O   O2        1.0  0.59070  0.15660  0.24586  1.0000 -0.2009059832
O   O3        1.0  0.84340  0.40930  0.74586  1.0000 -0.2009059832
O   O4        1.0  0.40930  0.84340  0.75414  1.0000 -0.2009059832
O   O5        1.0  0.03431  0.13563  0.30776  1.0000 -0.5385303728
O   O6        1.0  0.13563  0.03431  0.19224  1.0000 -0.5385303728
O   O7        1.0  0.96569  0.86437  0.69224  1.0000 -0.5385303728
O   O8        1.0  0.86437  0.96569  0.80776  1.0000 -0.5385303728
O   O9        1.0  0.03358  0.15012  0.20302  1.0000 -0.5502565024
O   O10       1.0  0.15012  0.03358  0.29698  1.0000 -0.5502565024
O   O11       1.0  0.96642  0.84988  0.79698  1.0000 -0.5502565024
O   O12       1.0  0.84988  0.96642  0.70302  1.0000 -0.5502565024
O   O13       1.0  0.35491  0.95813  0.06449  1.0000 -0.5347872309
O   O14       1.0  0.95813  0.35491  0.43551  1.0000 -0.5347872309
O   O15       1.0  0.64509  0.04187  0.93551  1.0000 -0.5347872309
O   O16       1.0  0.04187  0.64509  0.56449  1.0000 -0.5347872309
O   O17       1.0  0.46336  0.89176  0.07136  1.0000 -0.560007365
O   O18       1.0  0.89176  0.46336  0.42864  1.0000 -0.560007365
O   O19       1.0  0.53664  0.10824  0.92864  1.0000 -0.5502565024
O   O20       1.0  0.10824  0.53664  0.57136  1.0000 -0.560007365
O   O21       1.0  0.42968  0.89810  0.28593  1.0000 -0.2111203082
O   O22       1.0  0.89810  0.42968  0.21407  1.0000 -0.2111203082
O   O23       1.0  0.57032  0.10190  0.71407  1.0000 -0.2111203082
O   O24       1.0  0.10190  0.57032  0.78593  1.0000 -0.2111203082
O   O25       1.0  0.87082  0.95352  0.31813  1.0000 -0.5502565024
O   O26       1.0  0.95352  0.87082  0.18187  1.0000 -0.5502565024
O   O27       1.0  0.12918  0.04648  0.68187  1.0000 -0.5502565024
O   O28       1.0  0.04648  0.12918  0.81813  1.0000 -0.5502565024
O   O29       1.0  0.85399  0.98329  0.21408  1.0000 -0.560007365
O   O30       1.0  0.98329  0.85399  0.28592  1.0000 -0.560007365
O   O31       1.0  0.14601  0.01671  0.78592  1.0000 -0.560007365
O   O32       1.0  0.01671  0.14601  0.71408  1.0000 -0.560007365
O   O33       1.0  0.05918  0.64634  0.43624  1.0000 -0.5502565024
O   O34       1.0  0.64634  0.05918  0.06376  1.0000 -0.5502565024
O   O35       1.0  0.94082  0.35366  0.56376  1.0000 -0.5502565024
O   O36       1.0  0.35366  0.94082  0.93624  1.0000 -0.5502565024
O   O37       1.0  0.12993  0.54015  0.44501  1.0000 -0.560007365
O   O38       1.0  0.54015  0.12993  0.05499  1.0000 -0.560007365
O   O39       1.0  0.87007  0.45985  0.55499  1.0000 -0.560007365
O   O40       1.0  0.45985  0.87007  0.94501  1.0000 -0.560007365
