# DDEC6 charges by PACMAN v1.1 (https://github.com/mtap-research/PACMAN-charge/)
data_2011[Nd][rob]3[ASR]1
_chemical_formula_sum              "Nd8 H24 C72 S12 O48"
_cell_length_a       17.3413
_cell_length_b       11.6871
_cell_length_c       27.8924
_cell_angle_alpha    90
_cell_angle_beta     115.104
_cell_angle_gamma    90

_symmetry_space_group_name_H-M    "P 1"
_symmetry_Int_Tables_number       1

loop_
  _symmetry_equiv_pos_as_xyz
  'x, y, z'

loop_
  _atom_site_type_symbol
  _atom_site_label
  _atom_site_symmetry_multiplicity
  _atom_site_fract_x
  _atom_site_fract_y
  _atom_site_fract_z
  _atom_site_occupancy
  _atom_site_charge
Nd  Nd1       1.0  0.06775  0.02827  0.58097  1.0000 2.0819695863
Nd  Nd2       1.0  0.93225  0.02827  0.91903  1.0000 2.0819695863
Nd  Nd3       1.0  0.93225  0.97173  0.41903  1.0000 2.0819695863
Nd  Nd4       1.0  0.06775  0.97173  0.08097  1.0000 2.0819695863
Nd  Nd5       1.0  0.45869  0.49206  0.41941  1.0000 2.0959660682
Nd  Nd6       1.0  0.54131  0.49206  0.08059  1.0000 2.0959660682
Nd  Nd7       1.0  0.54131  0.50794  0.58059  1.0000 2.0959660682
Nd  Nd8       1.0  0.45869  0.50794  0.91941  1.0000 2.0959660682
H   H1        1.0  0.85420  0.77570  0.60470  1.0000 0.1309021125
H   H2        1.0  0.14580  0.77570  0.89530  1.0000 0.1309021125
H   H3        1.0  0.14580  0.22430  0.39530  1.0000 0.1309021125
H   H4        1.0  0.85420  0.22430  0.10470  1.0000 0.1309021125
H   H5        1.0  0.72280  0.67220  0.58820  1.0000 0.1309021125
H   H6        1.0  0.27720  0.67220  0.91180  1.0000 0.1309021125
H   H7        1.0  0.27720  0.32780  0.41180  1.0000 0.1309021125
H   H8        1.0  0.72280  0.32780  0.08820  1.0000 0.1309021125
H   H9        1.0  0.33990  0.02810  0.76340  1.0000 0.1231868352
H   H10       1.0  0.66010  0.02810  0.73660  1.0000 0.1231868352
H   H11       1.0  0.66010  0.97190  0.23660  1.0000 0.1231868352
H   H12       1.0  0.33990  0.97190  0.26340  1.0000 0.1231868352
H   H13       1.0  0.42140  0.91220  0.84130  1.0000 0.1309021125
H   H14       1.0  0.57860  0.91220  0.65870  1.0000 0.1309021125
H   H15       1.0  0.57860  0.08780  0.15870  1.0000 0.1309021125
H   H16       1.0  0.42140  0.08780  0.34130  1.0000 0.1309021125
H   H17       1.0  0.07040  0.73500  0.42620  1.0000 0.1148928377
H   H18       1.0  0.92960  0.73500  0.07380  1.0000 0.1148928377
H   H19       1.0  0.92960  0.26500  0.57380  1.0000 0.1148928377
H   H20       1.0  0.07040  0.26500  0.92620  1.0000 0.1148928377
H   H21       1.0  0.17490  0.62830  0.40780  1.0000 0.1309021125
H   H22       1.0  0.82510  0.62830  0.09220  1.0000 0.1309021125
H   H23       1.0  0.82510  0.37170  0.59220  1.0000 0.1309021125
H   H24       1.0  0.17490  0.37170  0.90780  1.0000 0.1309021125
C   C1        1.0  0.80890  0.81640  0.52690  1.0000 -0.1198832597
C   C2        1.0  0.19110  0.81640  0.97310  1.0000 -0.1198832597
C   C3        1.0  0.19110  0.18360  0.47310  1.0000 -0.1198832597
C   C4        1.0  0.80890  0.18360  0.02690  1.0000 -0.1198832597
C   C5        1.0  0.80890  0.76910  0.57140  1.0000 -0.1029810597
C   C6        1.0  0.19110  0.76910  0.92860  1.0000 -0.1029810597
C   C7        1.0  0.19110  0.23090  0.42860  1.0000 -0.1029810597
C   C8        1.0  0.80890  0.23090  0.07140  1.0000 -0.1029810597
C   C9        1.0  0.73310  0.70900  0.56190  1.0000 -0.1198832597
C   C10       1.0  0.26690  0.70900  0.93810  1.0000 -0.1198832597
C   C11       1.0  0.26690  0.29100  0.43810  1.0000 -0.1198832597
C   C12       1.0  0.73310  0.29100  0.06190  1.0000 -0.1198832597
C   C13       1.0  0.67710  0.71090  0.51010  1.0000 -0.1093785697
C   C14       1.0  0.32290  0.71090  0.98990  1.0000 -0.1093785697
C   C15       1.0  0.32290  0.28910  0.48990  1.0000 -0.1093785697
C   C16       1.0  0.67710  0.28910  0.01010  1.0000 -0.1093785697
C   C17       1.0  0.87640  0.88260  0.51960  1.0000 0.6390368911
C   C18       1.0  0.12360  0.88260  0.98040  1.0000 0.6390368911
C   C19       1.0  0.12360  0.11740  0.48040  1.0000 0.6390368911
C   C20       1.0  0.87640  0.11740  0.01960  1.0000 0.6390368911
C   C21       1.0  0.59280  0.65510  0.48240  1.0000 0.6262452277
C   C22       1.0  0.40720  0.65510  0.01760  1.0000 0.6262452277
C   C23       1.0  0.40720  0.34490  0.51760  1.0000 0.6262452277
C   C24       1.0  0.59280  0.34490  0.98240  1.0000 0.6262452277
C   C25       1.0  0.24780  0.90560  0.73630  1.0000 -0.1198832597
C   C26       1.0  0.75220  0.90560  0.76370  1.0000 -0.1198832597
C   C27       1.0  0.75220  0.09440  0.26370  1.0000 -0.1198832597
C   C28       1.0  0.24780  0.09440  0.23630  1.0000 -0.1198832597
C   C29       1.0  0.32230  0.95670  0.76970  1.0000 -0.1029810597
C   C30       1.0  0.67770  0.95670  0.73030  1.0000 -0.1029810597
C   C31       1.0  0.67770  0.04330  0.23030  1.0000 -0.1029810597
C   C32       1.0  0.32230  0.04330  0.26970  1.0000 -0.1029810597
C   C33       1.0  0.36940  0.88980  0.81470  1.0000 -0.1029810597
C   C34       1.0  0.63060  0.88980  0.68530  1.0000 -0.1029810597
C   C35       1.0  0.63060  0.11020  0.18530  1.0000 -0.1029810597
C   C36       1.0  0.36940  0.11020  0.31470  1.0000 -0.1029810597
C   C37       1.0  0.33100  0.78980  0.81490  1.0000 -0.1093785697
C   C38       1.0  0.66900  0.78980  0.68510  1.0000 -0.1093785697
C   C39       1.0  0.66900  0.21020  0.18510  1.0000 -0.1093785697
C   C40       1.0  0.33100  0.21020  0.31490  1.0000 -0.1093785697
C   C41       1.0  0.18490  0.94960  0.68491  1.0000 0.5817205283
C   C42       1.0  0.81510  0.94960  0.81509  1.0000 0.5817205283
C   C43       1.0  0.81510  0.05040  0.31509  1.0000 0.5817205283
C   C44       1.0  0.18490  0.05040  0.18491  1.0000 0.5817205283
C   C45       1.0  0.36570  0.69600  0.85380  1.0000 0.5659279498
C   C46       1.0  0.63430  0.69600  0.64620  1.0000 0.5659279498
C   C47       1.0  0.63430  0.30400  0.14620  1.0000 0.5659279498
C   C48       1.0  0.36570  0.30400  0.35380  1.0000 0.5659279498
C   C49       1.0  0.15910  0.76900  0.50025  1.0000 -0.126469043
C   C50       1.0  0.84090  0.76900  0.99975  1.0000 -0.126469043
C   C51       1.0  0.84090  0.23100  0.49975  1.0000 -0.126469043
C   C52       1.0  0.15910  0.23100  0.00025  1.0000 -0.126469043
C   C53       1.0  0.12670  0.72530  0.45060  1.0000 -0.1198832597
C   C54       1.0  0.87330  0.72530  0.04940  1.0000 -0.1198832597
C   C55       1.0  0.87330  0.27470  0.54940  1.0000 -0.1198832597
C   C56       1.0  0.12670  0.27470  0.95060  1.0000 -0.1198832597
C   C57       1.0  0.18710  0.66420  0.44000  1.0000 -0.1198832597
C   C58       1.0  0.81290  0.66420  0.06000  1.0000 -0.1198832597
C   C59       1.0  0.81290  0.33580  0.56000  1.0000 -0.1198832597
C   C60       1.0  0.18710  0.33580  0.94000  1.0000 -0.1198832597
C   C61       1.0  0.26490  0.66250  0.48120  1.0000 -0.1198832597
C   C62       1.0  0.73510  0.66250  0.01880  1.0000 -0.1198832597
C   C63       1.0  0.73510  0.33750  0.51880  1.0000 -0.1198832597
C   C64       1.0  0.26490  0.33750  0.98120  1.0000 -0.1198832597
C   C65       1.0  0.11650  0.84050  0.52520  1.0000 0.6168045076
C   C66       1.0  0.88350  0.84050  0.97480  1.0000 0.6168045076
C   C67       1.0  0.88350  0.15950  0.47480  1.0000 0.6168045076
C   C68       1.0  0.11650  0.15950  0.02520  1.0000 0.6168045076
C   C69       1.0  0.34530  0.60930  0.48520  1.0000 0.6390368911
C   C70       1.0  0.65470  0.60930  0.01480  1.0000 0.6390368911
C   C71       1.0  0.65470  0.39070  0.51480  1.0000 0.6390368911
C   C72       1.0  0.34530  0.39070  0.98520  1.0000 0.6390368911
S   S1        1.0  0.71638  0.78602  0.47231  1.0000 0.2746169987
S   S2        1.0  0.28362  0.78602  0.02769  1.0000 0.2746169987
S   S3        1.0  0.28362  0.21398  0.52769  1.0000 0.2746169987
S   S4        1.0  0.71638  0.21398  0.97231  1.0000 0.2746169987
S   S5        1.0  0.26392  0.73368  0.53475  1.0000 0.1981945532
S   S6        1.0  0.73608  0.73368  0.96525  1.0000 0.1981945532
S   S7        1.0  0.73608  0.26632  0.46525  1.0000 0.1981945532
S   S8        1.0  0.26392  0.26632  0.03475  1.0000 0.1981945532
S   S9        1.0  0.23494  0.77538  0.76051  1.0000 0.1876875433
S   S10       1.0  0.76506  0.77538  0.73949  1.0000 0.1876875433
S   S11       1.0  0.76506  0.22462  0.23949  1.0000 0.1876875433
S   S12       1.0  0.23494  0.22462  0.26051  1.0000 0.1876875433
O   O1        1.0  0.94290  0.90490  0.56068  1.0000 -0.6581368623
O   O2        1.0  0.05710  0.90490  0.93932  1.0000 -0.6581368623
O   O3        1.0  0.05710  0.09510  0.43932  1.0000 -0.6581368623
O   O4        1.0  0.94290  0.09510  0.06068  1.0000 -0.6581368623
O   O5        1.0  0.86100  0.90960  0.47325  1.0000 -0.6581368623
O   O6        1.0  0.13900  0.90960  0.02675  1.0000 -0.6581368623
O   O7        1.0  0.13900  0.09040  0.52675  1.0000 -0.6581368623
O   O8        1.0  0.86100  0.09040  0.97325  1.0000 -0.6581368623
O   O9        1.0  0.56320  0.64870  0.43344  1.0000 -0.6238075224
O   O10       1.0  0.43680  0.64870  0.06656  1.0000 -0.6238075224
O   O11       1.0  0.43680  0.35130  0.56656  1.0000 -0.6238075224
O   O12       1.0  0.56320  0.35130  0.93344  1.0000 -0.6238075224
O   O13       1.0  0.55480  0.61240  0.50813  1.0000 -0.7319720713
O   O14       1.0  0.44520  0.61240  0.99187  1.0000 -0.7319720713
O   O15       1.0  0.44520  0.38760  0.49187  1.0000 -0.7319720713
O   O16       1.0  0.55480  0.38760  0.00813  1.0000 -0.7319720713
O   O17       1.0  0.20400  0.03340  0.66449  1.0000 -0.6581368623
O   O18       1.0  0.79600  0.03340  0.83551  1.0000 -0.6581368623
O   O19       1.0  0.79600  0.96660  0.33551  1.0000 -0.6581368623
O   O20       1.0  0.20400  0.96660  0.16449  1.0000 -0.6581368623
O   O21       1.0  0.11330  0.90110  0.66336  1.0000 -0.6537978676
O   O22       1.0  0.88670  0.90110  0.83664  1.0000 -0.6537978676
O   O23       1.0  0.88670  0.09890  0.33664  1.0000 -0.6537978676
O   O24       1.0  0.11330  0.09890  0.16336  1.0000 -0.6537978676
O   O25       1.0  0.32760  0.60350  0.84735  1.0000 -0.6418321457
O   O26       1.0  0.67240  0.60350  0.65265  1.0000 -0.6418321457
O   O27       1.0  0.67240  0.39650  0.15265  1.0000 -0.6418321457
O   O28       1.0  0.32760  0.39650  0.34735  1.0000 -0.6418321457
O   O29       1.0  0.43660  0.71370  0.89297  1.0000 -0.6133796302
O   O30       1.0  0.56340  0.71370  0.60703  1.0000 -0.6133796302
O   O31       1.0  0.56340  0.28630  0.10703  1.0000 -0.6133796302
O   O32       1.0  0.43660  0.28630  0.39297  1.0000 -0.6133796302
O   O33       1.0  0.04230  0.88020  0.49655  1.0000 -0.7717363563
O   O34       1.0  0.95770  0.88020  0.00345  1.0000 -0.7717363563
O   O35       1.0  0.95770  0.11980  0.50345  1.0000 -0.7717363563
O   O36       1.0  0.04230  0.11980  0.99655  1.0000 -0.7717363563
O   O37       1.0  0.15350  0.86300  0.57319  1.0000 -0.5725550381
O   O38       1.0  0.84650  0.86300  0.92681  1.0000 -0.5725550381
O   O39       1.0  0.84650  0.13700  0.42681  1.0000 -0.5725550381
O   O40       1.0  0.15350  0.13700  0.07319  1.0000 -0.5725550381
O   O41       1.0  0.40340  0.59810  0.53100  1.0000 -0.6581368623
O   O42       1.0  0.59660  0.59810  0.96900  1.0000 -0.6581368623
O   O43       1.0  0.59660  0.40190  0.46900  1.0000 -0.6581368623
O   O44       1.0  0.40340  0.40190  0.03100  1.0000 -0.6581368623
O   O45       1.0  0.34870  0.58120  0.44283  1.0000 -0.6537978676
O   O46       1.0  0.65130  0.58120  0.05717  1.0000 -0.6537978676
O   O47       1.0  0.65130  0.41880  0.55717  1.0000 -0.6537978676
O   O48       1.0  0.34870  0.41880  0.94283  1.0000 -0.6537978676
