# DDEC6 charges by PACMAN v1.1 (https://github.com/mtap-research/PACMAN-charge/)
data_2011[Ho][nan]3[ASR]1
_chemical_formula_sum              "Ho4 H24 C24 O24"
_cell_length_a       7.6112
_cell_length_b       11.927
_cell_length_c       12.13
_cell_angle_alpha    112.398
_cell_angle_beta     89.92
_cell_angle_gamma    99.502

_symmetry_space_group_name_H-M    "P 1"
_symmetry_Int_Tables_number       1

loop_
  _symmetry_equiv_pos_as_xyz
  'x, y, z'

loop_
  _atom_site_type_symbol
  _atom_site_label
  _atom_site_symmetry_multiplicity
  _atom_site_fract_x
  _atom_site_fract_y
  _atom_site_fract_z
  _atom_site_occupancy
  _atom_site_charge
Ho  Ho1       1.0  0.00753  0.85483  0.64519  1.0000 2.0674015938
Ho  Ho2       1.0  0.99247  0.14517  0.35481  1.0000 2.0674015938
Ho  Ho3       1.0  0.50746  0.85507  0.74620  1.0000 2.0594421087
Ho  Ho4       1.0  0.49254  0.14493  0.25380  1.0000 2.0594421087
H   H1        1.0  0.63740  0.74760  0.03050  1.0000 0.131304006
H   H2        1.0  0.36260  0.25240  0.96950  1.0000 0.131304006
H   H3        1.0  0.75550  0.78300  0.14810  1.0000 0.131304006
H   H4        1.0  0.24450  0.21700  0.85190  1.0000 0.131304006
H   H5        1.0  0.98110  0.89350  0.07670  1.0000 0.1390774346
H   H6        1.0  0.01890  0.10650  0.92330  1.0000 0.1390774346
H   H7        1.0  0.94260  0.75240  0.99690  1.0000 0.131304006
H   H8        1.0  0.05740  0.24760  0.00310  1.0000 0.131304006
H   H9        1.0  0.86550  0.25290  0.71930  1.0000 0.131304006
H   H10       1.0  0.13450  0.74710  0.28070  1.0000 0.131304006
H   H11       1.0  0.74660  0.22040  0.81230  1.0000 0.131304006
H   H12       1.0  0.25340  0.77960  0.18770  1.0000 0.131304006
H   H13       1.0  0.51800  0.10440  0.65560  1.0000 0.1390774346
H   H14       1.0  0.48200  0.89560  0.34440  1.0000 0.1390774346
H   H15       1.0  0.55340  0.24470  0.67810  1.0000 0.131304006
H   H16       1.0  0.44660  0.75530  0.32190  1.0000 0.131304006
H   H17       1.0  0.71370  0.50920  0.46510  1.0000 0.1482392608
H   H18       1.0  0.28630  0.49080  0.53490  1.0000 0.1482392608
H   H19       1.0  0.58210  0.41550  0.50190  1.0000 0.131304006
H   H20       1.0  0.41790  0.58450  0.49810  1.0000 0.131304006
H   H21       1.0  0.73520  0.48310  0.68870  1.0000 0.1390774346
H   H22       1.0  0.26480  0.51690  0.31130  1.0000 0.1390774346
H   H23       1.0  0.89360  0.56100  0.65070  1.0000 0.1390774346
H   H24       1.0  0.10640  0.43900  0.34930  1.0000 0.1390774346
C   C1        1.0  0.64000  0.92730  0.14640  1.0000 0.6678869783
C   C2        1.0  0.36000  0.07270  0.85360  1.0000 0.6678869783
C   C3        1.0  0.72600  0.81180  0.08690  1.0000 -0.2776816131
C   C4        1.0  0.27400  0.18820  0.91310  1.0000 -0.2776816131
C   C5        1.0  0.89300  0.82800  0.02140  1.0000 -0.2776816131
C   C6        1.0  0.10700  0.17200  0.97860  1.0000 -0.2776816131
C   C7        1.0  0.63500  0.13930  0.52040  1.0000 0.6599970221
C   C8        1.0  0.36500  0.86070  0.47960  1.0000 0.6599970221
C   C9        1.0  0.77600  0.19040  0.72930  1.0000 -0.2880410493
C   C10       1.0  0.22400  0.80960  0.27070  1.0000 -0.2880410493
C   C11       1.0  0.60500  0.17000  0.64840  1.0000 -0.2880410493
C   C12       1.0  0.39500  0.83000  0.35160  1.0000 -0.2880410493
C   C13       1.0  0.85200  0.07400  0.70060  1.0000 0.6768894552
C   C14       1.0  0.14800  0.92600  0.29940  1.0000 0.6768894552
C   C15       1.0  0.66900  0.63600  0.67690  1.0000 0.6420514642
C   C16       1.0  0.33100  0.36400  0.32310  1.0000 0.6420514642
C   C17       1.0  0.86300  0.85720  0.90950  1.0000 0.6599970221
C   C18       1.0  0.13700  0.14280  0.09050  1.0000 0.6599970221
C   C19       1.0  0.82200  0.35620  0.45120  1.0000 0.6678869783
C   C20       1.0  0.17800  0.64380  0.54880  1.0000 0.6678869783
C   C21       1.0  0.70600  0.45500  0.50830  1.0000 -0.2961778284
C   C22       1.0  0.29400  0.54500  0.49170  1.0000 -0.2961778284
C   C23       1.0  0.76600  0.53190  0.64090  1.0000 -0.3058195055
C   C24       1.0  0.23400  0.46810  0.35910  1.0000 -0.3058195055
O   O1        1.0  0.53900  0.64530  0.73790  1.0000 -0.5655867995
O   O2        1.0  0.46100  0.35470  0.26210  1.0000 -0.5655867995
O   O3        1.0  0.72650  0.72500  0.64090  1.0000 -0.7829428852
O   O4        1.0  0.27350  0.27500  0.35910  1.0000 -0.7829428852
O   O5        1.0  0.71730  0.88860  0.89990  1.0000 -0.6377818377
O   O6        1.0  0.28270  0.11140  0.10010  1.0000 -0.6377818377
O   O7        1.0  0.78120  0.10650  0.48400  1.0000 -0.6463154496
O   O8        1.0  0.21880  0.89350  0.51600  1.0000 -0.6463154496
O   O9        1.0  0.51440  0.14830  0.46020  1.0000 -0.5987647216
O   O10       1.0  0.48560  0.85170  0.53980  1.0000 -0.5987647216
O   O11       1.0  0.76360  0.97690  0.71200  1.0000 -0.7716723622
O   O12       1.0  0.23640  0.02310  0.28800  1.0000 -0.7716723622
O   O13       1.0  0.01080  0.06590  0.67120  1.0000 -0.6063587607
O   O14       1.0  0.98920  0.93410  0.32880  1.0000 -0.6063587607
O   O15       1.0  0.96250  0.34970  0.50550  1.0000 -0.6377818377
O   O16       1.0  0.03750  0.65030  0.49450  1.0000 -0.6377818377
O   O17       1.0  0.76890  0.27300  0.34910  1.0000 -0.75303697
O   O18       1.0  0.23110  0.72700  0.65090  1.0000 -0.75303697
O   O19       1.0  0.73980  0.02350  0.22680  1.0000 -0.7940159381
O   O20       1.0  0.26020  0.97650  0.77320  1.0000 -0.7940159381
O   O21       1.0  0.48470  0.92980  0.11600  1.0000 -0.5987647216
O   O22       1.0  0.51530  0.07020  0.88400  1.0000 -0.5987647216
O   O23       1.0  0.98000  0.84520  0.83920  1.0000 -0.5987647216
O   O24       1.0  0.02000  0.15480  0.16080  1.0000 -0.5987647216
