# DDEC6 charges by PACMAN v1.1 (https://github.com/mtap-research/PACMAN-charge/)
data_2011[Cd][nan]3[ASR]3
_chemical_formula_sum              "Cd8 H96 C120 N32 O32"
_cell_length_a       25.4627
_cell_length_b       9.8868
_cell_length_c       21.9526
_cell_angle_alpha    90
_cell_angle_beta     130.157
_cell_angle_gamma    90

_symmetry_space_group_name_H-M    "P 1"
_symmetry_Int_Tables_number       1

loop_
  _symmetry_equiv_pos_as_xyz
  'x, y, z'

loop_
  _atom_site_type_symbol
  _atom_site_label
  _atom_site_symmetry_multiplicity
  _atom_site_fract_x
  _atom_site_fract_y
  _atom_site_fract_z
  _atom_site_occupancy
  _atom_site_charge
Cd  Cd1       1.0  0.73201  0.41064  0.06164  1.0000 0.8630696428
Cd  Cd2       1.0  0.23201  0.91064  0.06164  1.0000 0.8630696428
Cd  Cd3       1.0  0.26799  0.41064  0.43836  1.0000 0.8630696428
Cd  Cd4       1.0  0.76799  0.91064  0.43836  1.0000 0.8630696428
Cd  Cd5       1.0  0.26799  0.58936  0.93836  1.0000 0.8630696428
Cd  Cd6       1.0  0.76799  0.08936  0.93836  1.0000 0.8630696428
Cd  Cd7       1.0  0.73201  0.58936  0.56164  1.0000 0.8630696428
Cd  Cd8       1.0  0.23201  0.08936  0.56164  1.0000 0.8630696428
H   H1        1.0  0.76200  0.32520  0.22620  1.0000 0.1103960325
H   H2        1.0  0.72930  0.36420  0.30010  1.0000 0.1466529821
H   H3        1.0  0.59980  0.64910  0.14040  1.0000 0.1338026733
H   H4        1.0  0.64000  0.60740  0.07560  1.0000 0.1103960325
H   H5        1.0  0.49380  0.81580  0.17920  1.0000 0.1466529821
H   H6        1.0  0.37900  0.79150  0.07160  1.0000 0.122889386
H   H7        1.0  0.40070  0.40850  0.05610  1.0000 0.1103960325
H   H8        1.0  0.51510  0.41600  0.16240  1.0000 0.1466529821
H   H9        1.0  0.60360  0.24470  0.33860  1.0000 0.1390465521
H   H10       1.0  0.62090  0.26740  0.28250  1.0000 0.122889386
H   H11       1.0  0.70900  0.38000  0.44100  1.0000 0.1338026733
H   H12       1.0  0.39113  0.73543  0.22431  1.0000 0.2500647498
H   H13       1.0  0.26200  0.82520  0.22620  1.0000 0.1103960325
H   H14       1.0  0.22930  0.86420  0.30010  1.0000 0.1466529821
H   H15       1.0  0.09980  0.14910  0.14040  1.0000 0.1338026733
H   H16       1.0  0.14000  0.10740  0.07560  1.0000 0.1103960325
H   H17       1.0  0.99380  0.31580  0.17920  1.0000 0.1466529821
H   H18       1.0  0.87900  0.29150  0.07160  1.0000 0.122889386
H   H19       1.0  0.90070  0.90850  0.05610  1.0000 0.1103960325
H   H20       1.0  0.01510  0.91600  0.16240  1.0000 0.1466529821
H   H21       1.0  0.10360  0.74470  0.33860  1.0000 0.1390465521
H   H22       1.0  0.12090  0.76740  0.28250  1.0000 0.122889386
H   H23       1.0  0.20900  0.88000  0.44100  1.0000 0.1338026733
H   H24       1.0  0.89113  0.23543  0.22431  1.0000 0.2500647498
H   H25       1.0  0.23800  0.32520  0.27380  1.0000 0.1103960325
H   H26       1.0  0.27070  0.36420  0.19990  1.0000 0.1466529821
H   H27       1.0  0.40020  0.64910  0.35960  1.0000 0.1338026733
H   H28       1.0  0.36000  0.60740  0.42440  1.0000 0.1103960325
H   H29       1.0  0.50620  0.81580  0.32080  1.0000 0.1466529821
H   H30       1.0  0.62100  0.79150  0.42840  1.0000 0.122889386
H   H31       1.0  0.59930  0.40850  0.44390  1.0000 0.1103960325
H   H32       1.0  0.48490  0.41600  0.33760  1.0000 0.1466529821
H   H33       1.0  0.39640  0.24470  0.16140  1.0000 0.1390465521
H   H34       1.0  0.37910  0.26740  0.21750  1.0000 0.122889386
H   H35       1.0  0.29100  0.38000  0.05900  1.0000 0.1338026733
H   H36       1.0  0.60887  0.73543  0.27569  1.0000 0.2500647498
H   H37       1.0  0.73800  0.82520  0.27380  1.0000 0.1103960325
H   H38       1.0  0.77070  0.86420  0.19990  1.0000 0.1466529821
H   H39       1.0  0.90020  0.14910  0.35960  1.0000 0.1338026733
H   H40       1.0  0.86000  0.10740  0.42440  1.0000 0.1103960325
H   H41       1.0  0.00620  0.31580  0.32080  1.0000 0.1466529821
H   H42       1.0  0.12100  0.29150  0.42840  1.0000 0.122889386
H   H43       1.0  0.09930  0.90850  0.44390  1.0000 0.1103960325
H   H44       1.0  0.98490  0.91600  0.33760  1.0000 0.1466529821
H   H45       1.0  0.89640  0.74470  0.16140  1.0000 0.1390465521
H   H46       1.0  0.87910  0.76740  0.21750  1.0000 0.122889386
H   H47       1.0  0.79100  0.88000  0.05900  1.0000 0.1338026733
H   H48       1.0  0.10887  0.23543  0.27569  1.0000 0.2500647498
H   H49       1.0  0.23800  0.67480  0.77380  1.0000 0.1103960325
H   H50       1.0  0.27070  0.63580  0.69990  1.0000 0.1466529821
H   H51       1.0  0.40020  0.35090  0.85960  1.0000 0.1338026733
H   H52       1.0  0.36000  0.39260  0.92440  1.0000 0.1103960325
H   H53       1.0  0.50620  0.18420  0.82080  1.0000 0.1466529821
H   H54       1.0  0.62100  0.20850  0.92840  1.0000 0.122889386
H   H55       1.0  0.59930  0.59150  0.94390  1.0000 0.1103960325
H   H56       1.0  0.48490  0.58400  0.83760  1.0000 0.1466529821
H   H57       1.0  0.39640  0.75530  0.66140  1.0000 0.1390465521
H   H58       1.0  0.37910  0.73260  0.71750  1.0000 0.122889386
H   H59       1.0  0.29100  0.62000  0.55900  1.0000 0.1338026733
H   H60       1.0  0.60887  0.26457  0.77569  1.0000 0.2500647498
H   H61       1.0  0.73800  0.17480  0.77380  1.0000 0.1103960325
H   H62       1.0  0.77070  0.13580  0.69990  1.0000 0.1466529821
H   H63       1.0  0.90020  0.85090  0.85960  1.0000 0.1338026733
H   H64       1.0  0.86000  0.89260  0.92440  1.0000 0.1103960325
H   H65       1.0  0.00620  0.68420  0.82080  1.0000 0.1466529821
H   H66       1.0  0.12100  0.70850  0.92840  1.0000 0.122889386
H   H67       1.0  0.09930  0.09150  0.94390  1.0000 0.1103960325
H   H68       1.0  0.98490  0.08400  0.83760  1.0000 0.1466529821
H   H69       1.0  0.89640  0.25530  0.66140  1.0000 0.1390465521
H   H70       1.0  0.87910  0.23260  0.71750  1.0000 0.122889386
H   H71       1.0  0.79100  0.12000  0.55900  1.0000 0.1338026733
H   H72       1.0  0.10887  0.76457  0.77569  1.0000 0.2500647498
H   H73       1.0  0.76200  0.67480  0.72620  1.0000 0.1103960325
H   H74       1.0  0.72930  0.63580  0.80010  1.0000 0.1466529821
H   H75       1.0  0.59980  0.35090  0.64040  1.0000 0.1338026733
H   H76       1.0  0.64000  0.39260  0.57560  1.0000 0.1103960325
H   H77       1.0  0.49380  0.18420  0.67920  1.0000 0.1466529821
H   H78       1.0  0.37900  0.20850  0.57160  1.0000 0.122889386
H   H79       1.0  0.40070  0.59150  0.55610  1.0000 0.1103960325
H   H80       1.0  0.51510  0.58400  0.66240  1.0000 0.1466529821
H   H81       1.0  0.60360  0.75530  0.83860  1.0000 0.1390465521
H   H82       1.0  0.62090  0.73260  0.78250  1.0000 0.122889386
H   H83       1.0  0.70900  0.62000  0.94100  1.0000 0.1338026733
H   H84       1.0  0.39113  0.26457  0.72431  1.0000 0.2500647498
H   H85       1.0  0.26200  0.17480  0.72620  1.0000 0.1103960325
H   H86       1.0  0.22930  0.13580  0.80010  1.0000 0.1466529821
H   H87       1.0  0.09980  0.85090  0.64040  1.0000 0.1338026733
H   H88       1.0  0.14000  0.89260  0.57560  1.0000 0.1103960325
H   H89       1.0  0.99380  0.68420  0.67920  1.0000 0.1466529821
H   H90       1.0  0.87900  0.70850  0.57160  1.0000 0.122889386
H   H91       1.0  0.90070  0.09150  0.55610  1.0000 0.1103960325
H   H92       1.0  0.01510  0.08400  0.66240  1.0000 0.1466529821
H   H93       1.0  0.10360  0.25530  0.83860  1.0000 0.1390465521
H   H94       1.0  0.12090  0.23260  0.78250  1.0000 0.122889386
H   H95       1.0  0.20900  0.12000  0.94100  1.0000 0.1338026733
H   H96       1.0  0.89113  0.76457  0.72431  1.0000 0.2500647498
C   C1        1.0  0.72900  0.39110  0.20890  1.0000 0.0974849169
C   C2        1.0  0.70940  0.41340  0.25370  1.0000 -0.238970342
C   C3        1.0  0.65910  0.51130  0.22860  1.0000 0.1915018898
C   C4        1.0  0.63310  0.58300  0.15950  1.0000 -0.2323350865
C   C5        1.0  0.65690  0.55570  0.12030  1.0000 0.0791754746
C   C6        1.0  0.51950  0.61890  0.18220  1.0000 0.2358341557
C   C7        1.0  0.47650  0.73210  0.15460  1.0000 -0.2622303193
C   C8        1.0  0.40710  0.71580  0.08940  1.0000 0.1103960325
C   C9        1.0  0.42020  0.49150  0.08070  1.0000 0.0577382487
C   C10       1.0  0.48900  0.49470  0.14440  1.0000 -0.238970342
C   C11       1.0  0.72230  0.61800  0.40490  1.0000 0.5503122699
C   C12       1.0  0.67740  0.50150  0.35210  1.0000 -0.0245285774
C   C13       1.0  0.67810  0.38470  0.38140  1.0000 -0.0976890703
C   C14       1.0  0.64080  0.25810  0.33770  1.0000 -0.3364989865
C   C15       1.0  0.68740  0.13520  0.37350  1.0000 0.6222264138
C   C16       1.0  0.22900  0.89110  0.20890  1.0000 0.0974849169
C   C17       1.0  0.20940  0.91340  0.25370  1.0000 -0.238970342
C   C18       1.0  0.15910  0.01130  0.22860  1.0000 0.1915018898
C   C19       1.0  0.13310  0.08300  0.15950  1.0000 -0.2323350865
C   C20       1.0  0.15690  0.05570  0.12030  1.0000 0.0791754746
C   C21       1.0  0.01950  0.11890  0.18220  1.0000 0.2358341557
C   C22       1.0  0.97650  0.23210  0.15460  1.0000 -0.2622303193
C   C23       1.0  0.90710  0.21580  0.08940  1.0000 0.1103960325
C   C24       1.0  0.92020  0.99150  0.08070  1.0000 0.0577382487
C   C25       1.0  0.98900  0.99470  0.14440  1.0000 -0.238970342
C   C26       1.0  0.22230  0.11800  0.40490  1.0000 0.5503122699
C   C27       1.0  0.17740  0.00150  0.35210  1.0000 -0.0245285774
C   C28       1.0  0.17810  0.88470  0.38140  1.0000 -0.0976890703
C   C29       1.0  0.14080  0.75810  0.33770  1.0000 -0.3364989865
C   C30       1.0  0.18740  0.63520  0.37350  1.0000 0.6222264138
C   C31       1.0  0.27100  0.39110  0.29110  1.0000 0.0974849169
C   C32       1.0  0.29060  0.41340  0.24630  1.0000 -0.238970342
C   C33       1.0  0.34090  0.51130  0.27140  1.0000 0.1915018898
C   C34       1.0  0.36690  0.58300  0.34050  1.0000 -0.2323350865
C   C35       1.0  0.34310  0.55570  0.37970  1.0000 0.0791754746
C   C36       1.0  0.48050  0.61890  0.31780  1.0000 0.2358341557
C   C37       1.0  0.52350  0.73210  0.34540  1.0000 -0.2622303193
C   C38       1.0  0.59290  0.71580  0.41060  1.0000 0.1103960325
C   C39       1.0  0.57980  0.49150  0.41930  1.0000 0.0577382487
C   C40       1.0  0.51100  0.49470  0.35560  1.0000 -0.238970342
C   C41       1.0  0.27770  0.61800  0.09510  1.0000 0.5503122699
C   C42       1.0  0.32260  0.50150  0.14790  1.0000 -0.0245285774
C   C43       1.0  0.32190  0.38470  0.11860  1.0000 -0.0976890703
C   C44       1.0  0.35920  0.25810  0.16230  1.0000 -0.3364989865
C   C45       1.0  0.31260  0.13520  0.12650  1.0000 0.6222264138
C   C46       1.0  0.77100  0.89110  0.29110  1.0000 0.0974849169
C   C47       1.0  0.79060  0.91340  0.24630  1.0000 -0.238970342
C   C48       1.0  0.84090  0.01130  0.27140  1.0000 0.1915018898
C   C49       1.0  0.86690  0.08300  0.34050  1.0000 -0.2323350865
C   C50       1.0  0.84310  0.05570  0.37970  1.0000 0.0791754746
C   C51       1.0  0.98050  0.11890  0.31780  1.0000 0.2358341557
C   C52       1.0  0.02350  0.23210  0.34540  1.0000 -0.2622303193
C   C53       1.0  0.09290  0.21580  0.41060  1.0000 0.1103960325
C   C54       1.0  0.07980  0.99150  0.41930  1.0000 0.0577382487
C   C55       1.0  0.01100  0.99470  0.35560  1.0000 -0.238970342
C   C56       1.0  0.77770  0.11800  0.09510  1.0000 0.5503122699
C   C57       1.0  0.82260  0.00150  0.14790  1.0000 -0.0245285774
C   C58       1.0  0.82190  0.88470  0.11860  1.0000 -0.0976890703
C   C59       1.0  0.85920  0.75810  0.16230  1.0000 -0.3364989865
C   C60       1.0  0.81260  0.63520  0.12650  1.0000 0.6222264138
C   C61       1.0  0.27100  0.60890  0.79110  1.0000 0.0974849169
C   C62       1.0  0.29060  0.58660  0.74630  1.0000 -0.238970342
C   C63       1.0  0.34090  0.48870  0.77140  1.0000 0.1915018898
C   C64       1.0  0.36690  0.41700  0.84050  1.0000 -0.2323350865
C   C65       1.0  0.34310  0.44430  0.87970  1.0000 0.0791754746
C   C66       1.0  0.48050  0.38110  0.81780  1.0000 0.2358341557
C   C67       1.0  0.52350  0.26790  0.84540  1.0000 -0.2622303193
C   C68       1.0  0.59290  0.28420  0.91060  1.0000 0.1103960325
C   C69       1.0  0.57980  0.50850  0.91930  1.0000 0.0577382487
C   C70       1.0  0.51100  0.50530  0.85560  1.0000 -0.2514811981
C   C71       1.0  0.27770  0.38200  0.59510  1.0000 0.5503122699
C   C72       1.0  0.32260  0.49850  0.64790  1.0000 -0.0245285774
C   C73       1.0  0.32190  0.61530  0.61860  1.0000 -0.0976890703
C   C74       1.0  0.35920  0.74190  0.66230  1.0000 -0.3364989865
C   C75       1.0  0.31260  0.86480  0.62650  1.0000 0.6222264138
C   C76       1.0  0.77100  0.10890  0.79110  1.0000 0.0974849169
C   C77       1.0  0.79060  0.08660  0.74630  1.0000 -0.238970342
C   C78       1.0  0.84090  0.98870  0.77140  1.0000 0.1915018898
C   C79       1.0  0.86690  0.91700  0.84050  1.0000 -0.2323350865
C   C80       1.0  0.84310  0.94430  0.87970  1.0000 0.0791754746
C   C81       1.0  0.98050  0.88110  0.81780  1.0000 0.2358341557
C   C82       1.0  0.02350  0.76790  0.84540  1.0000 -0.2622303193
C   C83       1.0  0.09290  0.78420  0.91060  1.0000 0.1103960325
C   C84       1.0  0.07980  0.00850  0.91930  1.0000 0.0577382487
C   C85       1.0  0.01100  0.00530  0.85560  1.0000 -0.2514811981
C   C86       1.0  0.77770  0.88200  0.59510  1.0000 0.5503122699
C   C87       1.0  0.82260  0.99850  0.64790  1.0000 -0.0245285774
C   C88       1.0  0.82190  0.11530  0.61860  1.0000 -0.0976890703
C   C89       1.0  0.85920  0.24190  0.66230  1.0000 -0.3364989865
C   C90       1.0  0.81260  0.36480  0.62650  1.0000 0.6222264138
C   C91       1.0  0.72900  0.60890  0.70890  1.0000 0.0974849169
C   C92       1.0  0.70940  0.58660  0.75370  1.0000 -0.238970342
C   C93       1.0  0.65910  0.48870  0.72860  1.0000 0.1915018898
C   C94       1.0  0.63310  0.41700  0.65950  1.0000 -0.2323350865
C   C95       1.0  0.65690  0.44430  0.62030  1.0000 0.0791754746
C   C96       1.0  0.51950  0.38110  0.68220  1.0000 0.2358341557
C   C97       1.0  0.47650  0.26790  0.65460  1.0000 -0.2622303193
C   C98       1.0  0.40710  0.28420  0.58940  1.0000 0.1103960325
C   C99       1.0  0.42020  0.50850  0.58070  1.0000 0.0577382487
C   C100      1.0  0.48900  0.50530  0.64440  1.0000 -0.2514811981
C   C101      1.0  0.72230  0.38200  0.90490  1.0000 0.5503122699
C   C102      1.0  0.67740  0.49850  0.85210  1.0000 -0.0245285774
C   C103      1.0  0.67810  0.61530  0.88140  1.0000 -0.0976890703
C   C104      1.0  0.64080  0.74190  0.83770  1.0000 -0.3364989865
C   C105      1.0  0.68740  0.86480  0.87350  1.0000 0.6222264138
C   C106      1.0  0.22900  0.10890  0.70890  1.0000 0.0974849169
C   C107      1.0  0.20940  0.08660  0.75370  1.0000 -0.238970342
C   C108      1.0  0.15910  0.98870  0.72860  1.0000 0.1915018898
C   C109      1.0  0.13310  0.91700  0.65950  1.0000 -0.2323350865
C   C110      1.0  0.15690  0.94430  0.62030  1.0000 0.0791754746
C   C111      1.0  0.01950  0.88110  0.68220  1.0000 0.2358341557
C   C112      1.0  0.97650  0.76790  0.65460  1.0000 -0.2622303193
C   C113      1.0  0.90710  0.78420  0.58940  1.0000 0.1103960325
C   C114      1.0  0.92020  0.00850  0.58070  1.0000 0.0577382487
C   C115      1.0  0.98900  0.00530  0.64440  1.0000 -0.238970342
C   C116      1.0  0.22230  0.88200  0.90490  1.0000 0.5503122699
C   C117      1.0  0.17740  0.99850  0.85210  1.0000 -0.0245285774
C   C118      1.0  0.17810  0.11530  0.88140  1.0000 -0.0976890703
C   C119      1.0  0.14080  0.24190  0.83770  1.0000 -0.3364989865
C   C120      1.0  0.18740  0.36480  0.87350  1.0000 0.6222264138
N   N1        1.0  0.70340  0.45830  0.14210  1.0000 -0.2514811981
N   N2        1.0  0.63360  0.52750  0.26830  1.0000 -0.0025153629
N   N3        1.0  0.58850  0.63680  0.24440  1.0000 -0.26968006
N   N4        1.0  0.37830  0.60120  0.05100  1.0000 -0.26968006
N   N5        1.0  0.20340  0.95830  0.14210  1.0000 -0.2514811981
N   N6        1.0  0.13360  0.02750  0.26830  1.0000 -0.0025153629
N   N7        1.0  0.08850  0.13680  0.24440  1.0000 -0.26968006
N   N8        1.0  0.87830  0.10120  0.05100  1.0000 -0.26968006
N   N9        1.0  0.29660  0.45830  0.35790  1.0000 -0.2514811981
N   N10       1.0  0.36640  0.52750  0.23170  1.0000 -0.0052474525
N   N11       1.0  0.41150  0.63680  0.25560  1.0000 -0.26968006
N   N12       1.0  0.62170  0.60120  0.44900  1.0000 -0.26968006
N   N13       1.0  0.79660  0.95830  0.35790  1.0000 -0.2514811981
N   N14       1.0  0.86640  0.02750  0.23170  1.0000 -0.0025153629
N   N15       1.0  0.91150  0.13680  0.25560  1.0000 -0.26968006
N   N16       1.0  0.12170  0.10120  0.44900  1.0000 -0.26968006
N   N17       1.0  0.29660  0.54170  0.85790  1.0000 -0.2514811981
N   N18       1.0  0.36640  0.47250  0.73170  1.0000 -0.0025153629
N   N19       1.0  0.41150  0.36320  0.75560  1.0000 -0.26968006
N   N20       1.0  0.62170  0.39880  0.94900  1.0000 -0.26968006
N   N21       1.0  0.79660  0.04170  0.85790  1.0000 -0.2514811981
N   N22       1.0  0.86640  0.97250  0.73170  1.0000 -0.0025153629
N   N23       1.0  0.91150  0.86320  0.75560  1.0000 -0.26968006
N   N24       1.0  0.12170  0.89880  0.94900  1.0000 -0.26968006
N   N25       1.0  0.70340  0.54170  0.64210  1.0000 -0.2514811981
N   N26       1.0  0.63360  0.47250  0.76830  1.0000 -0.0025153629
N   N27       1.0  0.58850  0.36320  0.74440  1.0000 -0.26968006
N   N28       1.0  0.37830  0.39880  0.55100  1.0000 -0.26968006
N   N29       1.0  0.20340  0.04170  0.64210  1.0000 -0.2622303193
N   N30       1.0  0.13360  0.97250  0.76830  1.0000 -0.0025153629
N   N31       1.0  0.08850  0.86320  0.74440  1.0000 -0.26968006
N   N32       1.0  0.87830  0.89880  0.55100  1.0000 -0.26968006
O   O1        1.0  0.71736  0.72310  0.36920  1.0000 -0.541581105
O   O2        1.0  0.76207  0.60440  0.47960  1.0000 -0.5583675462
O   O3        1.0  0.66130  0.02020  0.34720  1.0000 -0.5726993042
O   O4        1.0  0.75122  0.15180  0.42950  1.0000 -0.5777774262
O   O5        1.0  0.21736  0.22310  0.36920  1.0000 -0.541581105
O   O6        1.0  0.26207  0.10440  0.47960  1.0000 -0.5583675462
O   O7        1.0  0.16130  0.52020  0.34720  1.0000 -0.5726993042
O   O8        1.0  0.25122  0.65180  0.42950  1.0000 -0.5777774262
O   O9        1.0  0.28264  0.72310  0.13080  1.0000 -0.541581105
O   O10       1.0  0.23793  0.60440  0.02040  1.0000 -0.5583675462
O   O11       1.0  0.33870  0.02020  0.15280  1.0000 -0.5726993042
O   O12       1.0  0.24878  0.15180  0.07050  1.0000 -0.5777774262
O   O13       1.0  0.78264  0.22310  0.13080  1.0000 -0.541581105
O   O14       1.0  0.73793  0.10440  0.02040  1.0000 -0.5583675462
O   O15       1.0  0.83870  0.52020  0.15280  1.0000 -0.5726993042
O   O16       1.0  0.74878  0.65180  0.07050  1.0000 -0.5777774262
O   O17       1.0  0.28264  0.27690  0.63080  1.0000 -0.541581105
O   O18       1.0  0.23793  0.39560  0.52040  1.0000 -0.5583675462
O   O19       1.0  0.33870  0.97980  0.65280  1.0000 -0.5726993042
O   O20       1.0  0.24878  0.84820  0.57050  1.0000 -0.5777774262
O   O21       1.0  0.78264  0.77690  0.63080  1.0000 -0.541581105
O   O22       1.0  0.73793  0.89560  0.52040  1.0000 -0.5583675462
O   O23       1.0  0.83870  0.47980  0.65280  1.0000 -0.5726993042
O   O24       1.0  0.74878  0.34820  0.57050  1.0000 -0.5777774262
O   O25       1.0  0.71736  0.27690  0.86920  1.0000 -0.541581105
O   O26       1.0  0.76207  0.39560  0.97960  1.0000 -0.5583675462
O   O27       1.0  0.66130  0.97980  0.84720  1.0000 -0.5726993042
O   O28       1.0  0.75122  0.84820  0.92950  1.0000 -0.5777774262
O   O29       1.0  0.21736  0.77690  0.86920  1.0000 -0.541581105
O   O30       1.0  0.26207  0.89560  0.97960  1.0000 -0.5583675462
O   O31       1.0  0.16130  0.47980  0.84720  1.0000 -0.5726993042
O   O32       1.0  0.25122  0.34820  0.92950  1.0000 -0.5777774262
