# DDEC6 charges by PACMAN v1.1 (https://github.com/mtap-research/PACMAN-charge/)
data_2011[Ni][fsy]3[ASR]1
_symmetry_space_group_name_H-M   'P 1'
_cell_length_a   7.67065000
_cell_length_b   12.54580000
_cell_length_c   13.73020000
_cell_angle_alpha   92.17840000
_cell_angle_beta   106.70600000
_cell_angle_gamma   89.46910000
_symmetry_Int_Tables_number   1
_chemical_formula_structural   NiH7(CN)12
_chemical_formula_sum   'Ni2 H14 C24 N24'
_cell_volume   1264.63195428
_cell_formula_units_Z   2
loop_
 _symmetry_equiv_pos_site_id
 _symmetry_equiv_pos_as_xyz
  1  'x, y, z'
loop_
 _atom_site_type_symbol
 _atom_site_label
 _atom_site_symmetry_multiplicity
 _atom_site_fract_x
 _atom_site_fract_y
 _atom_site_fract_z
 _atom_site_occupancy
 _atom_site_charge
Ni  Ni1  1  0.50000000  0.50000000  0.50000000  1.0 0.3655250032
Ni  Ni2  1  0.00000000  0.50000000  0.50000000  1.0 0.3881659765
H  H1  1  0.52585000  0.89933000  0.61474000  1.0 0.1094678317
H  H2  1  0.47372000  0.72349000  0.40605000  1.0 0.2942302187
H  H3  1  0.82921000  0.50134000  0.09611000  1.0 0.1094678317
H  H4  1  0.47854000  0.90623000  0.38504000  1.0 0.0989391167
H  H5  1  0.08135000  0.09671000  0.61136000  1.0 0.1094678317
H  H6  1  0.26814000  0.49976000  0.09542000  1.0 0.1094678317
H  H7  1  0.91511000  0.10009000  0.38905000  1.0 0.1094678317
H  H8  1  0.47415000  0.10067000  0.38526000  1.0 0.1094678317
H  H9  1  0.52628000  0.27651000  0.59395000  1.0 0.2953662236
H  H10  1  0.17079000  0.49866000  0.90389000  1.0 0.1094678317
H  H11  1  0.52146000  0.09377000  0.61496000  1.0 0.0989391167
H  H12  1  0.91865000  0.90329000  0.38864000  1.0 0.1094678317
H  H13  1  0.73185000  0.50024000  0.90458000  1.0 0.1094678317
H  H14  1  0.08489000  0.89991000  0.61095000  1.0 0.1094678317
C  C1  1  0.64956000  0.94214000  0.61647000  1.0 -0.1080263595
C  C2  1  0.68594000  0.50088000  0.05289000  1.0 -0.1080263595
C  C3  1  0.35174000  0.94711000  0.38308000  1.0 -0.1203373487
C  C4  1  0.96194000  0.05297000  0.61503000  1.0 -0.1021540751
C  C5  1  0.36767000  0.50006000  0.05261000  1.0 -0.1080263595
C  C6  1  0.03710000  0.05744000  0.38550000  1.0 -0.1021540751
C  C7  1  0.35045000  0.05787000  0.38353000  1.0 -0.1080263595
C  C8  1  0.31406000  0.49912000  0.94711000  1.0 -0.1080263595
C  C9  1  0.64826000  0.05289000  0.61692000  1.0 -0.1203373487
C  C10  1  0.03806000  0.94703000  0.38497000  1.0 -0.1021540751
C  C11  1  0.63233000  0.49995000  0.94739000  1.0 -0.1080263595
C  C12  1  0.96290000  0.94256000  0.61450000  1.0 -0.1080263595
C  C13  1  0.38985000  0.49799000  0.78463000  1.0 0.2206759711
C  C14  1  0.44612000  0.49889000  0.89445000  1.0 0.0467438341
C  C15  1  0.61015000  0.50202000  0.21537000  1.0 0.2206759711
C  C16  1  0.55388000  0.50111000  0.10555000  1.0 0.0467438341
C  C17  1  0.80068000  0.76814000  0.59877000  1.0 0.2266959508
C  C18  1  0.80620000  0.88446000  0.61318000  1.0 0.0446749066
C  C19  1  0.19952000  0.77411000  0.39758000  1.0 0.2647741397
C  C20  1  0.19654000  0.88963000  0.38533000  1.0 0.0131220801
C  C21  1  0.80048000  0.22589000  0.60242000  1.0 0.2647741397
C  C22  1  0.80346000  0.11037000  0.61467000  1.0 0.0131220801
C  C23  1  0.19932000  0.23186000  0.40123000  1.0 0.2266959508
C  C24  1  0.19380000  0.11553000  0.38682000  1.0 0.0446749066
N  N1  1  0.69111000  0.61129000  0.55715000  1.0 -0.0206010394
N  N2  1  0.64693000  0.70922000  0.58202000  1.0 -0.2679887156
N  N3  1  0.30470000  0.61211000  0.43584000  1.0 0.0131220801
N  N4  1  0.34423000  0.70804000  0.40777000  1.0 -0.1648361574
N  N5  1  0.86381000  0.38152000  0.56209000  1.0 0.0131220801
N  N6  1  0.93463000  0.28470000  0.58684000  1.0 -0.2374493967
N  N7  1  0.13029000  0.38911000  0.44099000  1.0 0.0014612779
N  N8  1  0.05997000  0.29248000  0.41331000  1.0 -0.2374493967
N  N9  1  0.30889000  0.38871000  0.44286000  1.0 -0.0206010394
N  N10  1  0.35307000  0.29078000  0.41798000  1.0 -0.2679887156
N  N11  1  0.69531000  0.38789000  0.56415000  1.0 0.0131220801
N  N12  1  0.65577000  0.29196000  0.59223000  1.0 -0.165503789
N  N13  1  0.13618000  0.61848000  0.43791000  1.0 0.0131220801
N  N14  1  0.06537000  0.71531000  0.41316000  1.0 -0.2374493967
N  N15  1  0.86971000  0.61089000  0.55901000  1.0 0.0014612779
N  N16  1  0.94003000  0.70751000  0.58669000  1.0 -0.2374493967
N  N17  1  0.39974000  0.49820000  0.63291000  1.0 -0.0374479409
N  N18  1  0.50741000  0.49697000  0.72758000  1.0 -0.2679887156
N  N19  1  0.60026000  0.50180000  0.36709000  1.0 -0.0374479409
N  N20  1  0.49260000  0.50303000  0.27242000  1.0 -0.2679887156
N  N21  1  0.22582000  0.49947000  0.63260000  1.0 -0.0206010394
N  N22  1  0.21402000  0.49916000  0.72728000  1.0 -0.2559573691
N  N23  1  0.77418000  0.50054000  0.36741000  1.0 -0.0206010394
N  N24  1  0.78598000  0.50084000  0.27272000  1.0 -0.2559573691
