# DDEC6 charges by PACMAN v1.1 (https://github.com/mtap-research/PACMAN-charge/)
data_2011[Co][nan]3[ASR]3
_chemical_formula_sum              "Co6 H42 C78 N6 O26"
_cell_length_a       10.164
_cell_length_b       13.363
_cell_length_c       22.395
_cell_angle_alpha    86.833
_cell_angle_beta     80.346
_cell_angle_gamma    83.224

_symmetry_space_group_name_H-M    "P 1"
_symmetry_Int_Tables_number       1

loop_
  _symmetry_equiv_pos_as_xyz
  'x, y, z'

loop_
  _atom_site_type_symbol
  _atom_site_label
  _atom_site_symmetry_multiplicity
  _atom_site_fract_x
  _atom_site_fract_y
  _atom_site_fract_z
  _atom_site_occupancy
  _atom_site_charge
Co  Co1       1.0  0.92890  0.20973  0.27646  1.0000 0.8500616291
Co  Co2       1.0  0.07110  0.79027  0.72354  1.0000 0.8500616291
Co  Co3       1.0  0.32323  0.00179  0.72140  1.0000 0.9515323678
Co  Co4       1.0  0.67677  0.99821  0.27860  1.0000 0.9515323678
Co  Co5       1.0  0.43475  0.95160  0.16438  1.0000 0.9033810237
Co  Co6       1.0  0.56525  0.04840  0.83562  1.0000 0.9051424602
H   H1        1.0  0.71710  0.16850  0.38690  1.0000 0.1084996314
H   H2        1.0  0.28290  0.83150  0.61310  1.0000 0.1084996314
H   H3        1.0  0.68890  0.11800  0.48770  1.0000 0.1311197568
H   H4        1.0  0.31110  0.88200  0.51230  1.0000 0.1311197568
H   H5        1.0  0.06800  0.17760  0.48660  1.0000 0.1311197568
H   H6        1.0  0.93200  0.82240  0.51340  1.0000 0.1311197568
H   H7        1.0  0.08550  0.22000  0.38850  1.0000 0.1204118586
H   H8        1.0  0.91450  0.78000  0.61150  1.0000 0.1204118586
H   H9        1.0  0.06350  0.08910  0.57440  1.0000 0.1204118586
H   H10       1.0  0.93650  0.91090  0.42560  1.0000 0.1204118586
H   H11       1.0  0.83080  0.99150  0.72600  1.0000 0.1377300808
H   H12       1.0  0.16920  0.00850  0.27400  1.0000 0.1377300808
H   H13       1.0  0.65880  0.10510  0.58230  1.0000 0.1204118586
H   H14       1.0  0.34120  0.89490  0.41770  1.0000 0.1204118586
H   H15       1.0  0.25900  0.81320  0.24840  1.0000 0.1084996314
H   H16       1.0  0.74100  0.18680  0.75160  1.0000 0.1084996314
H   H17       1.0  0.24230  0.64500  0.27880  1.0000 0.1311197568
H   H18       1.0  0.75770  0.35500  0.72120  1.0000 0.1311197568
H   H19       1.0  0.60230  0.57420  0.17430  1.0000 0.1311197568
H   H20       1.0  0.39770  0.42580  0.82570  1.0000 0.1311197568
H   H21       1.0  0.61240  0.73790  0.14790  1.0000 0.1204118586
H   H22       1.0  0.38760  0.26210  0.85210  1.0000 0.1204118586
H   H23       1.0  0.59850  0.43770  0.25540  1.0000 0.1311197568
H   H24       1.0  0.40150  0.56230  0.74460  1.0000 0.1311197568
H   H25       1.0  0.36770  0.20440  0.28360  1.0000 0.1377300808
H   H26       1.0  0.63230  0.79560  0.71640  1.0000 0.1377300808
H   H27       1.0  0.20000  0.48580  0.25050  1.0000 0.1204118586
H   H28       1.0  0.80000  0.51420  0.74950  1.0000 0.1204118586
H   H29       1.0  0.77280  0.26230  0.16680  1.0000 0.1084996314
H   H30       1.0  0.22720  0.73770  0.83320  1.0000 0.1084996314
H   H31       1.0  0.79100  0.23080  0.06530  1.0000 0.1311197568
H   H32       1.0  0.20900  0.76920  0.93470  1.0000 0.1311197568
H   H33       1.0  0.18090  0.13720  0.06500  1.0000 0.1377300808
H   H34       1.0  0.81910  0.86280  0.93500  1.0000 0.1377300808
H   H35       1.0  0.15190  0.16510  0.16640  1.0000 0.1204118586
H   H36       1.0  0.84810  0.83490  0.83360  1.0000 0.1204118586
H   H37       1.0  0.79740  0.14140  0.99080  1.0000 0.1204118586
H   H38       1.0  0.20260  0.85860  0.00920  1.0000 0.1204118586
H   H39       1.0  0.01610  0.04710  0.83210  1.0000 0.1311197568
H   H40       1.0  0.98390  0.95290  0.16790  1.0000 0.1311197568
H   H41       1.0  0.19950  0.13190  0.96760  1.0000 0.1311197568
H   H42       1.0  0.80050  0.86810  0.03240  1.0000 0.1311197568
C   C1        1.0  0.79130  0.16970  0.40750  1.0000 0.0900679965
C   C2        1.0  0.20870  0.83030  0.59250  1.0000 0.0900679965
C   C3        1.0  0.77190  0.13970  0.46850  1.0000 -0.1889296301
C   C4        1.0  0.22810  0.86030  0.53150  1.0000 -0.1889296301
C   C5        1.0  0.87710  0.14240  0.50070  1.0000 0.1084996314
C   C6        1.0  0.12290  0.85760  0.49930  1.0000 0.1084996314
C   C7        1.0  0.99270  0.17410  0.46710  1.0000 -0.1889296301
C   C8        1.0  0.00730  0.82590  0.53290  1.0000 -0.1889296301
C   C9        1.0  0.00220  0.19990  0.40860  1.0000 0.0613937193
C   C10       1.0  0.99780  0.80010  0.59140  1.0000 0.0613937193
C   C11       1.0  0.86340  0.10500  0.56560  1.0000 0.0685286356
C   C12       1.0  0.13660  0.89500  0.43440  1.0000 0.0685286356
C   C13       1.0  0.97670  0.07860  0.59540  1.0000 -0.1489911828
C   C14       1.0  0.02330  0.92140  0.40460  1.0000 -0.1489911828
C   C15       1.0  0.96440  0.03880  0.65310  1.0000 -0.0081485573
C   C16       1.0  0.03560  0.96120  0.34690  1.0000 -0.0081485573
C   C17       1.0  0.83880  0.02130  0.68620  1.0000 -0.1108399107
C   C18       1.0  0.16120  0.97870  0.31380  1.0000 -0.1108399107
C   C19       1.0  0.72570  0.04950  0.65860  1.0000 -0.0081485573
C   C20       1.0  0.27430  0.95050  0.34140  1.0000 -0.0081485573
C   C21       1.0  0.73750  0.08860  0.60000  1.0000 -0.1555131262
C   C22       1.0  0.26250  0.91140  0.40000  1.0000 -0.1555131262
C   C23       1.0  0.08840  0.00850  0.68370  1.0000 0.5686459282
C   C24       1.0  0.91160  0.99150  0.31630  1.0000 0.5686459282
C   C25       1.0  0.58630  0.03490  0.69470  1.0000 0.5912077764
C   C26       1.0  0.41370  0.96510  0.30530  1.0000 0.5912077764
C   C27       1.0  0.33030  0.76430  0.23280  1.0000 0.0685286356
C   C28       1.0  0.66970  0.23570  0.76720  1.0000 0.0685286356
C   C29       1.0  0.31870  0.66210  0.25120  1.0000 -0.1889296301
C   C30       1.0  0.68130  0.33790  0.74880  1.0000 -0.1889296301
C   C31       1.0  0.42010  0.58580  0.22880  1.0000 0.1042760985
C   C32       1.0  0.57990  0.41420  0.77120  1.0000 0.1042760985
C   C33       1.0  0.52910  0.62140  0.19020  1.0000 -0.1999995173
C   C34       1.0  0.47090  0.37860  0.80980  1.0000 -0.1999995173
C   C35       1.0  0.53450  0.72100  0.17450  1.0000 0.0900679965
C   C36       1.0  0.46550  0.27900  0.82550  1.0000 0.0900679965
C   C37       1.0  0.40790  0.48040  0.24660  1.0000 0.0483146926
C   C38       1.0  0.59210  0.51960  0.75340  1.0000 0.0483146926
C   C39       1.0  0.51400  0.41300  0.25720  1.0000 -0.1555131262
C   C40       1.0  0.48600  0.58700  0.74280  1.0000 -0.1555131262
C   C41       1.0  0.50700  0.30990  0.27050  1.0000 -0.0193224809
C   C42       1.0  0.49300  0.69010  0.72950  1.0000 -0.0193224809
C   C43       1.0  0.37790  0.27380  0.27520  1.0000 -0.1108399107
C   C44       1.0  0.62210  0.72620  0.72480  1.0000 -0.1108399107
C   C45       1.0  0.27000  0.34150  0.26730  1.0000 0.0013726459
C   C46       1.0  0.73000  0.65850  0.73270  1.0000 0.0013726459
C   C47       1.0  0.27860  0.44150  0.25440  1.0000 -0.1379314374
C   C48       1.0  0.72140  0.55850  0.74560  1.0000 -0.1379314374
C   C49       1.0  0.62660  0.23750  0.28080  1.0000 0.5831579903
C   C50       1.0  0.37340  0.76250  0.71920  1.0000 0.5831579903
C   C51       1.0  0.13450  0.29680  0.27130  1.0000 0.5315481761
C   C52       1.0  0.86550  0.70320  0.72870  1.0000 0.5315481761
C   C53       1.0  0.85670  0.23270  0.14640  1.0000 0.1084996314
C   C54       1.0  0.14330  0.76730  0.85360  1.0000 0.1084996314
C   C55       1.0  0.86650  0.21400  0.08530  1.0000 -0.2078781238
C   C56       1.0  0.13350  0.78600  0.91470  1.0000 -0.2078781238
C   C57       1.0  0.98720  0.17080  0.05360  1.0000 0.1311197568
C   C58       1.0  0.01280  0.82920  0.94640  1.0000 0.1311197568
C   C59       1.0  0.09350  0.15880  0.08560  1.0000 -0.1889296301
C   C60       1.0  0.90650  0.84120  0.91440  1.0000 -0.1889296301
C   C61       1.0  0.07640  0.17720  0.14600  1.0000 0.0900679965
C   C62       1.0  0.92360  0.82280  0.85400  1.0000 0.0900679965
C   C63       1.0  0.99820  0.14090  0.98860  1.0000 0.0613937193
C   C64       1.0  0.00180  0.85910  0.01140  1.0000 0.0613937193
C   C65       1.0  0.88270  0.12680  0.96630  1.0000 -0.1489911828
C   C66       1.0  0.11730  0.87320  0.03370  1.0000 -0.1489911828
C   C67       1.0  0.89060  0.09110  0.90780  1.0000 0.0013726459
C   C68       1.0  0.10940  0.90890  0.09220  1.0000 0.0013726459
C   C69       1.0  0.01200  0.07040  0.87170  1.0000 -0.1287218741
C   C70       1.0  0.98800  0.92960  0.12830  1.0000 -0.1287218741
C   C71       1.0  0.13430  0.08390  0.89360  1.0000 -0.025396345
C   C72       1.0  0.86570  0.91610  0.10640  1.0000 -0.025396345
C   C73       1.0  0.12090  0.12070  0.95240  1.0000 -0.1489911828
C   C74       1.0  0.87910  0.87930  0.04760  1.0000 -0.1489911828
C   C75       1.0  0.76320  0.06950  0.88470  1.0000 0.5315481761
C   C76       1.0  0.23680  0.93050  0.11530  1.0000 0.5315481761
C   C77       1.0  0.26660  0.05530  0.85410  1.0000 0.4809101114
C   C78       1.0  0.73340  0.94470  0.14590  1.0000 0.4809101114
N   N1        1.0  0.90210  0.19990  0.37490  1.0000 -0.241959568
N   N2        1.0  0.09790  0.80010  0.62510  1.0000 -0.241959568
N   N3        1.0  0.43970  0.79910  0.19290  1.0000 -0.2882881126
N   N4        1.0  0.56030  0.20090  0.80710  1.0000 -0.2882881126
N   N5        1.0  0.95530  0.21220  0.17810  1.0000 -0.2280693016
N   N6        1.0  0.04470  0.78780  0.82190  1.0000 -0.2280693016
O   O1        1.0  0.19380  0.05390  0.66120  1.0000 -0.5619714371
O   O2        1.0  0.80620  0.94610  0.33880  1.0000 -0.5619714371
O   O3        1.0  0.08780  0.94380  0.72570  1.0000 -0.5619714371
O   O4        1.0  0.91220  0.05620  0.27430  1.0000 -0.5619714371
O   O5        1.0  0.48460  0.05280  0.66800  1.0000 -0.5397675722
O   O6        1.0  0.51540  0.94720  0.33200  1.0000 -0.5397675722
O   O7        1.0  0.57570  0.00130  0.74980  1.0000 -0.6046322247
O   O8        1.0  0.42430  0.99870  0.25020  1.0000 -0.6046322247
O   O9        1.0  0.61110  0.14520  0.29020  1.0000 -0.5784344336
O   O10       1.0  0.38890  0.85480  0.70980  1.0000 -0.5784344336
O   O11       1.0  0.73740  0.27550  0.27920  1.0000 -0.5512005499
O   O12       1.0  0.26260  0.72450  0.72080  1.0000 -0.5512005499
O   O13       1.0  0.02650  0.35860  0.27200  1.0000 -0.5512005499
O   O14       1.0  0.97350  0.64140  0.72800  1.0000 -0.5512005499
O   O15       1.0  0.13450  0.20390  0.27370  1.0000 -0.5238345525
O   O16       1.0  0.86550  0.79610  0.72630  1.0000 -0.5238345525
O   O17       1.0  0.65140  0.08140  0.91850  1.0000 -0.5397675722
O   O18       1.0  0.34860  0.91860  0.08150  1.0000 -0.5397675722
O   O19       1.0  0.77580  0.04510  0.82980  1.0000 -0.5397675722
O   O20       1.0  0.22420  0.95490  0.17020  1.0000 -0.5397675722
O   O21       1.0  0.25720  0.05270  0.79680  1.0000 -0.1489911828
O   O22       1.0  0.74280  0.94730  0.20320  1.0000 -0.1379314374
O   O23       1.0  0.37060  0.07220  0.87480  1.0000 -0.5345766208
O   O24       1.0  0.62940  0.92780  0.12520  1.0000 -0.5397675722
O   O25       1.0  0.27620  0.98870  0.81330  1.0000 -0.1999995173
O   O26       1.0  0.72380  0.01130  0.18670  1.0000 -0.1889296301
