# DDEC6 charges by PACMAN v1.1 (https://github.com/mtap-research/PACMAN-charge/)
data_2011[Fe][nan]3[ASR]1
_chemical_formula_sum              "Fe6 H6 C24 O30"
_cell_length_a       14.9145
_cell_length_b       14.9145
_cell_length_c       14.9145
_cell_angle_alpha    117.622
_cell_angle_beta     117.622
_cell_angle_gamma    117.622

_symmetry_space_group_name_H-M    "P 1"
_symmetry_Int_Tables_number       1

loop_
  _symmetry_equiv_pos_as_xyz
  'x, y, z'

loop_
  _atom_site_type_symbol
  _atom_site_label
  _atom_site_symmetry_multiplicity
  _atom_site_fract_x
  _atom_site_fract_y
  _atom_site_fract_z
  _atom_site_occupancy
  _atom_site_charge
Fe  Fe1       1.0  0.11159  0.53643  0.79508  1.0000 1.042427639
Fe  Fe2       1.0  0.53643  0.79508  0.11159  1.0000 1.042427639
Fe  Fe3       1.0  0.79508  0.11159  0.53643  1.0000 1.042427639
Fe  Fe4       1.0  0.88841  0.46357  0.20492  1.0000 1.0472531834
Fe  Fe5       1.0  0.46357  0.20492  0.88841  1.0000 1.042427639
Fe  Fe6       1.0  0.20492  0.88841  0.46357  1.0000 1.042427639
H   H1        1.0  0.65100  0.18410  0.63840  1.0000 0.1575386965
H   H2        1.0  0.18410  0.63840  0.65100  1.0000 0.1575386965
H   H3        1.0  0.63840  0.65100  0.18410  1.0000 0.1575386965
H   H4        1.0  0.34900  0.81590  0.36160  1.0000 0.1575386965
H   H5        1.0  0.81590  0.36160  0.34900  1.0000 0.1575386965
H   H6        1.0  0.36160  0.34900  0.81590  1.0000 0.1575386965
C   C1        1.0  0.34440  0.73330  0.16550  1.0000 0.636270515
C   C2        1.0  0.73330  0.16550  0.34440  1.0000 0.636270515
C   C3        1.0  0.16550  0.34440  0.73330  1.0000 0.636270515
C   C4        1.0  0.65560  0.26670  0.83450  1.0000 0.636270515
C   C5        1.0  0.26670  0.83450  0.65560  1.0000 0.636270515
C   C6        1.0  0.83450  0.65560  0.26670  1.0000 0.636270515
C   C7        1.0  0.15750  0.60560  0.07090  1.0000 -0.1115651095
C   C8        1.0  0.60560  0.07090  0.15750  1.0000 -0.1115651095
C   C9        1.0  0.07090  0.15750  0.60560  1.0000 -0.1115651095
C   C10       1.0  0.84250  0.39440  0.92910  1.0000 -0.1115651095
C   C11       1.0  0.39440  0.92910  0.84250  1.0000 -0.1115651095
C   C12       1.0  0.92910  0.84250  0.39440  1.0000 -0.1115651095
C   C13       1.0  0.96190  0.42830  0.86150  1.0000 0.2888692338
C   C14       1.0  0.42830  0.86150  0.96190  1.0000 0.2888692338
C   C15       1.0  0.86150  0.96190  0.42830  1.0000 0.2888692338
C   C16       1.0  0.03810  0.57170  0.13850  1.0000 0.2888692338
C   C17       1.0  0.57170  0.13850  0.03810  1.0000 0.2888692338
C   C18       1.0  0.13850  0.03810  0.57170  1.0000 0.2888692338
C   C19       1.0  0.80170  0.32350  0.79170  1.0000 -0.1965898158
C   C20       1.0  0.32350  0.79170  0.80170  1.0000 -0.1965898158
C   C21       1.0  0.79170  0.80170  0.32350  1.0000 -0.1965898158
C   C22       1.0  0.19830  0.67650  0.20830  1.0000 -0.1965898158
C   C23       1.0  0.67650  0.20830  0.19830  1.0000 -0.1965898158
C   C24       1.0  0.20830  0.19830  0.67650  1.0000 -0.1965898158
O   O1        1.0  0.32690  0.66820  0.05490  1.0000 -0.5546445132
O   O2        1.0  0.66820  0.05490  0.32690  1.0000 -0.5546445132
O   O3        1.0  0.05490  0.32690  0.66820  1.0000 -0.5546445132
O   O4        1.0  0.67310  0.33180  0.94510  1.0000 -0.5546445132
O   O5        1.0  0.33180  0.94510  0.67310  1.0000 -0.5546445132
O   O6        1.0  0.94510  0.67310  0.33180  1.0000 -0.5546445132
O   O7        1.0  0.51440  0.89620  0.35760  1.0000 -0.5196620108
O   O8        1.0  0.89620  0.35760  0.51440  1.0000 -0.5196620108
O   O9        1.0  0.35760  0.51440  0.89620  1.0000 -0.5196620108
O   O10       1.0  0.48560  0.10380  0.64240  1.0000 -0.5196620108
O   O11       1.0  0.10380  0.64240  0.48560  1.0000 -0.5196620108
O   O12       1.0  0.64240  0.48560  0.10380  1.0000 -0.5196620108
O   O13       1.0  0.92220  0.35540  0.72510  1.0000 -0.6026843271
O   O14       1.0  0.35540  0.72510  0.92220  1.0000 -0.6026843271
O   O15       1.0  0.72510  0.92220  0.35540  1.0000 -0.6026843271
O   O16       1.0  0.07780  0.64460  0.27490  1.0000 -0.6026843271
O   O17       1.0  0.64460  0.27490  0.07780  1.0000 -0.6026843271
O   O18       1.0  0.27490  0.07780  0.64460  1.0000 -0.6026843271
O   O19       1.0  0.21170  0.76340  0.99240  1.0000 -0.1031483741
O   O20       1.0  0.76340  0.99240  0.21170  1.0000 -0.1031483741
O   O21       1.0  0.99240  0.21170  0.76340  1.0000 -0.1115651095
O   O22       1.0  0.78830  0.23660  0.00760  1.0000 -0.1115651095
O   O23       1.0  0.23660  0.00760  0.78830  1.0000 -0.1115651095
O   O24       1.0  0.00760  0.78830  0.23660  1.0000 -0.1031483741
O   O25       1.0  0.09640  0.68090  0.83620  1.0000 -0.0334078235
O   O26       1.0  0.68090  0.83620  0.09640  1.0000 -0.0334078235
O   O27       1.0  0.83620  0.09640  0.68090  1.0000 -0.0334078235
O   O28       1.0  0.90360  0.31910  0.16380  1.0000 -0.0334078235
O   O29       1.0  0.31910  0.16380  0.90360  1.0000 -0.0334078235
O   O30       1.0  0.16380  0.90360  0.31910  1.0000 -0.0334078235
