# DDEC6 charges by PACMAN v1.1 (https://github.com/mtap-research/PACMAN-charge/)
data_2011[Ni][nan]3[ASR]5
_chemical_formula_sum              "Ni4 H60 C80 N8 O18"
_cell_length_a       19.8738
_cell_length_b       17.5688
_cell_length_c       14.272
_cell_angle_alpha    76.4632
_cell_angle_beta     59.2558
_cell_angle_gamma    44.281

_symmetry_space_group_name_H-M    "P 1"
_symmetry_Int_Tables_number       1

loop_
  _symmetry_equiv_pos_as_xyz
  'x, y, z'

loop_
  _atom_site_type_symbol
  _atom_site_label
  _atom_site_symmetry_multiplicity
  _atom_site_fract_x
  _atom_site_fract_y
  _atom_site_fract_z
  _atom_site_occupancy
  _atom_site_charge
Ni  Ni1       1.0  0.80675  0.00799  0.21499  1.0000 0.8021849738
Ni  Ni2       1.0  0.00799  0.80675  0.97027  1.0000 0.8021849738
Ni  Ni3       1.0  0.03501  0.27973  0.44325  1.0000 0.8021849738
Ni  Ni4       1.0  0.27973  0.03501  0.24201  1.0000 0.8021849738
H   H1        1.0  0.89300  0.80900  0.15500  1.0000 0.3116322653
H   H2        1.0  0.80900  0.89300  0.14300  1.0000 0.3116322653
H   H3        1.0  0.09500  0.10700  0.35700  1.0000 0.3116322653
H   H4        1.0  0.10700  0.09500  0.44100  1.0000 0.3116322653
H   H5        1.0  0.59560  0.25300  0.28760  1.0000 0.1162618706
H   H6        1.0  0.25300  0.59560  0.86380  1.0000 0.1117064845
H   H7        1.0  0.96240  0.38620  0.65440  1.0000 0.1117064845
H   H8        1.0  0.38620  0.96240  0.99700  1.0000 0.1117064845
H   H9        1.0  0.50180  0.41720  0.38660  1.0000 0.1311422918
H   H10       1.0  0.41720  0.50180  0.69440  1.0000 0.1311422918
H   H11       1.0  0.86340  0.55560  0.74820  1.0000 0.1311422918
H   H12       1.0  0.55560  0.86340  0.83280  1.0000 0.1311422918
H   H13       1.0  0.76170  0.24490  0.42830  1.0000 0.1391115309
H   H14       1.0  0.24490  0.76170  0.56510  1.0000 0.1391115309
H   H15       1.0  0.82170  0.68490  0.48830  1.0000 0.1391115309
H   H16       1.0  0.68490  0.82170  0.00510  1.0000 0.1391115309
H   H17       1.0  0.84810  0.08670  0.32870  1.0000 0.1117064845
H   H18       1.0  0.08670  0.84810  0.73650  1.0000 0.1117064845
H   H19       1.0  0.92130  0.51350  0.40190  1.0000 0.1117064845
H   H20       1.0  0.51350  0.92130  0.16330  1.0000 0.1117064845
H   H21       1.0  0.57510  0.44130  0.54370  1.0000 0.0999404319
H   H22       1.0  0.44130  0.57510  0.43990  1.0000 0.0999404319
H   H23       1.0  0.70630  0.81010  0.67490  1.0000 0.0999404319
H   H24       1.0  0.81010  0.70630  0.80870  1.0000 0.0999404319
H   H25       1.0  0.64430  0.49050  0.32630  1.0000 0.0999404319
H   H26       1.0  0.49050  0.64430  0.53890  1.0000 0.0999404319
H   H27       1.0  0.92370  0.71110  0.60570  1.0000 0.0999404319
H   H28       1.0  0.71110  0.92370  0.75950  1.0000 0.0999404319
H   H29       1.0  0.83700  0.36140  0.25520  1.0000 0.1391115309
H   H30       1.0  0.36140  0.83700  0.54640  1.0000 0.1391115309
H   H31       1.0  0.99480  0.70360  0.41300  1.0000 0.1391115309
H   H32       1.0  0.70360  0.99480  0.88860  1.0000 0.1391115309
H   H33       1.0  0.98510  0.28510  0.27010  1.0000 0.1117064845
H   H34       1.0  0.28510  0.98510  0.45970  1.0000 0.1117064845
H   H35       1.0  0.97990  0.79030  0.26490  1.0000 0.1117064845
H   H36       1.0  0.79030  0.97990  0.96490  1.0000 0.1117064845
H   H37       1.0  0.78560  0.44560  0.58000  1.0000 0.0999404319
H   H38       1.0  0.44560  0.78560  0.18880  1.0000 0.0999404319
H   H39       1.0  0.67000  0.06120  0.46440  1.0000 0.0999404319
H   H40       1.0  0.06120  0.67000  0.80440  1.0000 0.0999404319
H   H41       1.0  0.63330  0.52770  0.57330  1.0000 0.1311422918
H   H42       1.0  0.52770  0.63330  0.26570  1.0000 0.1311422918
H   H43       1.0  0.67670  0.98430  0.61670  1.0000 0.1311422918
H   H44       1.0  0.98430  0.67670  0.72230  1.0000 0.1311422918
H   H45       1.0  0.68540  0.27440  0.05400  1.0000 0.1162618706
H   H46       1.0  0.27440  0.68540  0.98620  1.0000 0.1162618706
H   H47       1.0  0.19600  0.26380  0.56460  1.0000 0.1162618706
H   H48       1.0  0.26380  0.19600  0.97560  1.0000 0.1117064845
H   H49       1.0  0.64870  0.41670  0.96470  1.0000 0.1117064845
H   H50       1.0  0.41670  0.64870  0.96990  1.0000 0.1117064845
H   H51       1.0  0.28530  0.28010  0.60130  1.0000 0.1117064845
H   H52       1.0  0.28010  0.28530  0.83330  1.0000 0.1117064845
H   H53       1.0  0.77760  0.38060  0.78420  1.0000 0.1117064845
H   H54       1.0  0.38060  0.77760  0.05760  1.0000 0.1117064845
H   H55       1.0  0.46580  0.19240  0.47240  1.0000 0.1117064845
H   H56       1.0  0.19240  0.46580  0.86940  1.0000 0.1117064845
H   H57       1.0  0.97830  0.04870  0.77530  1.0000 0.1162618706
H   H58       1.0  0.04870  0.97830  0.19770  1.0000 0.1162618706
H   H59       1.0  0.47470  0.05230  0.27170  1.0000 0.1162618706
H   H60       1.0  0.05230  0.47470  0.20130  1.0000 0.1162618706
C   C1        1.0  0.62993  0.25153  0.31607  1.0000 0.1117064845
C   C2        1.0  0.25153  0.62993  0.80247  1.0000 0.1117064845
C   C3        1.0  0.93393  0.44753  0.62007  1.0000 0.1117064845
C   C4        1.0  0.44753  0.93393  0.99847  1.0000 0.1117064845
C   C5        1.0  0.57350  0.35070  0.37450  1.0000 -0.2258421732
C   C6        1.0  0.35070  0.57350  0.70130  1.0000 -0.2258421732
C   C7        1.0  0.87550  0.54870  0.67650  1.0000 -0.2258421732
C   C8        1.0  0.54870  0.87550  0.89930  1.0000 -0.2258421732
C   C9        1.0  0.62301  0.35161  0.41499  1.0000 0.1391115309
C   C10       1.0  0.35161  0.62301  0.61039  1.0000 0.1391115309
C   C11       1.0  0.83501  0.63961  0.62699  1.0000 0.1391115309
C   C12       1.0  0.63961  0.83501  0.89839  1.0000 0.1391115309
C   C13       1.0  0.72643  0.24923  0.39877  1.0000 -0.2092407262
C   C14       1.0  0.24923  0.72643  0.62557  1.0000 -0.2092407262
C   C15       1.0  0.85123  0.62443  0.52357  1.0000 -0.2092407262
C   C16       1.0  0.62443  0.85123  0.00077  1.0000 -0.2092407262
C   C17       1.0  0.77734  0.15454  0.34026  1.0000 0.0815655673
C   C18       1.0  0.15454  0.77734  0.72786  1.0000 0.0815655673
C   C19       1.0  0.90974  0.52214  0.47266  1.0000 0.0815655673
C   C20       1.0  0.52214  0.90974  0.09546  1.0000 0.0815655673
C   C21       1.0  0.57165  0.45485  0.47415  1.0000 -0.1105612321
C   C22       1.0  0.45485  0.57165  0.49935  1.0000 -0.1105612321
C   C23       1.0  0.77585  0.75065  0.67835  1.0000 -0.1105612321
C   C24       1.0  0.75065  0.77585  0.79515  1.0000 -0.1105612321
C   C25       1.0  0.62213  0.50193  0.40547  1.0000 -0.0981972674
C   C26       1.0  0.50193  0.62213  0.47047  1.0000 -0.0981972674
C   C27       1.0  0.84453  0.77953  0.62787  1.0000 -0.0981972674
C   C28       1.0  0.77953  0.84453  0.74807  1.0000 -0.0981972674
C   C29       1.0  0.71666  0.45786  0.41214  1.0000 0.1311422918
C   C30       1.0  0.45786  0.71666  0.41334  1.0000 0.1311422918
C   C31       1.0  0.83786  0.83666  0.53334  1.0000 0.1311422918
C   C32       1.0  0.83666  0.83786  0.79214  1.0000 0.1311422918
C   C33       1.0  0.82400  0.38140  0.32240  1.0000 -0.2092407262
C   C34       1.0  0.38140  0.82400  0.47220  1.0000 -0.2092407262
C   C35       1.0  0.92760  0.77780  0.42600  1.0000 -0.2092407262
C   C36       1.0  0.77780  0.92760  0.86860  1.0000 -0.2092407262
C   C37       1.0  0.91270  0.33450  0.33290  1.0000 0.1117064845
C   C38       1.0  0.33450  0.91270  0.41990  1.0000 0.1117064845
C   C39       1.0  0.91710  0.83010  0.33730  1.0000 0.1117064845
C   C40       1.0  0.83010  0.91710  0.91550  1.0000 0.1117064845
C   C41       1.0  0.79660  0.42820  0.51300  1.0000 0.0815655673
C   C42       1.0  0.42820  0.79660  0.26220  1.0000 0.0815655673
C   C43       1.0  0.73700  0.98780  0.45340  1.0000 0.0815655673
C   C44       1.0  0.98780  0.73700  0.82180  1.0000 0.0815655673
C   C45       1.0  0.70470  0.47870  0.50910  1.0000 -0.2092407262
C   C46       1.0  0.47870  0.70470  0.30750  1.0000 -0.2092407262
C   C47       1.0  0.74090  0.94250  0.54530  1.0000 -0.2092407262
C   C48       1.0  0.94250  0.74090  0.77130  1.0000 -0.2092407262
C   C49       1.0  0.83784  0.14784  0.92596  1.0000 -0.0194930472
C   C50       1.0  0.14784  0.83784  0.08836  1.0000 -0.0194930472
C   C51       1.0  0.32404  0.16164  0.41216  1.0000 -0.0194930472
C   C52       1.0  0.16164  0.32404  0.10216  1.0000 -0.0194930472
C   C53       1.0  0.73880  0.25760  0.97960  1.0000 -0.1105612321
C   C54       1.0  0.25760  0.73880  0.02400  1.0000 -0.1105612321
C   C55       1.0  0.27040  0.22600  0.51120  1.0000 -0.1105612321
C   C56       1.0  0.22600  0.27040  0.99240  1.0000 -0.1105612321
C   C57       1.0  0.71700  0.34240  0.92640  1.0000 -0.1105612321
C   C58       1.0  0.34240  0.71700  0.01420  1.0000 -0.1105612321
C   C59       1.0  0.32360  0.23580  0.53300  1.0000 -0.1105612321
C   C60       1.0  0.23580  0.32360  0.90760  1.0000 -0.1105612321
C   C61       1.0  0.79220  0.32140  0.81860  1.0000 -0.1157912845
C   C62       1.0  0.32140  0.79220  0.06780  1.0000 -0.1157912845
C   C63       1.0  0.43140  0.18220  0.45780  1.0000 -0.1157912845
C   C64       1.0  0.18220  0.43140  0.92860  1.0000 -0.1157912845
C   C65       1.0  0.89192  0.20972  0.75968  1.0000 -0.0194930472
C   C66       1.0  0.20972  0.89192  0.13868  1.0000 -0.0194930472
C   C67       1.0  0.49032  0.11132  0.35808  1.0000 -0.0194930472
C   C68       1.0  0.11132  0.49032  0.04028  1.0000 -0.0194930472
C   C69       1.0  0.91285  0.12365  0.81435  1.0000 -0.1252930639
C   C70       1.0  0.12365  0.91285  0.14915  1.0000 -0.1252930639
C   C71       1.0  0.43565  0.10085  0.33715  1.0000 -0.1252930639
C   C72       1.0  0.10085  0.43565  0.12635  1.0000 -0.1252930639
C   C73       1.0  0.97395  0.18455  0.63745  1.0000 0.559799348
C   C74       1.0  0.18455  0.97395  0.20405  1.0000 0.559799348
C   C75       1.0  0.61255  0.04595  0.27605  1.0000 0.559799348
C   C76       1.0  0.04595  0.61255  0.06545  1.0000 0.559799348
C   C77       1.0  0.86278  0.05478  0.98742  1.0000 0.5687119709
C   C78       1.0  0.05478  0.86278  0.09502  1.0000 0.5687119709
C   C79       1.0  0.26258  0.15498  0.38722  1.0000 0.5687119709
C   C80       1.0  0.15498  0.26258  0.19522  1.0000 0.5687119709
N   N1        1.0  0.72950  0.15492  0.29828  1.0000 -0.2092407262
N   N2        1.0  0.15492  0.72950  0.81730  1.0000 -0.2092407262
N   N3        1.0  0.95172  0.43270  0.52050  1.0000 -0.2092407262
N   N4        1.0  0.43270  0.95172  0.09508  1.0000 -0.2092407262
N   N5        1.0  0.90047  0.35567  0.42653  1.0000 -0.222306992
N   N6        1.0  0.35567  0.90047  0.31733  1.0000 -0.222306992
N   N7        1.0  0.82347  0.93267  0.34953  1.0000 -0.222306992
N   N8        1.0  0.93267  0.82347  0.89433  1.0000 -0.222306992
O   O1        1.0  0.78581  0.08557  0.08763  1.0000 -0.5444160355
O   O2        1.0  0.08557  0.78581  0.04099  1.0000 -0.5451847924
O   O3        1.0  0.16237  0.20901  0.46419  1.0000 -0.5444160355
O   O4        1.0  0.20901  0.16237  0.16443  1.0000 -0.5444160355
O   O5        1.0  0.95362  0.95720  0.93520  1.0000 -0.5451847924
O   O6        1.0  0.95720  0.95362  0.15398  1.0000 -0.5451847924
O   O7        1.0  0.31480  0.09602  0.29638  1.0000 -0.5451847924
O   O8        1.0  0.09602  0.31480  0.29280  1.0000 -0.5451847924
O   O9        1.0  0.05305  0.08705  0.58135  1.0000 -0.5326678408
O   O10       1.0  0.08705  0.05305  0.27855  1.0000 -0.5326678408
O   O11       1.0  0.66865  0.97145  0.19695  1.0000 -0.5326678408
O   O12       1.0  0.97145  0.66865  0.16295  1.0000 -0.5326678408
O   O13       1.0  0.95504  0.26762  0.60178  1.0000 -0.5712745292
O   O14       1.0  0.26762  0.95504  0.17556  1.0000 -0.5712745292
O   O15       1.0  0.64822  0.07444  0.29496  1.0000 -0.5712745292
O   O16       1.0  0.07444  0.64822  0.98238  1.0000 -0.5712745292
O   O17       1.0  0.86958  0.86958  0.13042  1.0000 -0.6834254517
O   O18       1.0  0.11958  0.11958  0.38042  1.0000 -0.6834254517
