# DDEC6 charges by PACMAN v1.1 (https://github.com/mtap-research/PACMAN-charge/)
data_2011[Er][nan]3[ASR]1
_chemical_formula_sum              "Er4 H12 C24 N8 O20"
_cell_length_a       11.706
_cell_length_b       6.151
_cell_length_c       17.94
_cell_angle_alpha    90
_cell_angle_beta     128.438
_cell_angle_gamma    90

_symmetry_space_group_name_H-M    "P 1"
_symmetry_Int_Tables_number       1

loop_
  _symmetry_equiv_pos_as_xyz
  'x, y, z'

loop_
  _atom_site_type_symbol
  _atom_site_label
  _atom_site_symmetry_multiplicity
  _atom_site_fract_x
  _atom_site_fract_y
  _atom_site_fract_z
  _atom_site_occupancy
  _atom_site_charge
Er  Er1       1.0  0.39956  0.49333  0.24583  1.0000 1.9748971817
Er  Er2       1.0  0.60044  0.99333  0.25417  1.0000 1.9755951521
Er  Er3       1.0  0.60044  0.50667  0.75417  1.0000 1.9748971817
Er  Er4       1.0  0.39956  0.00667  0.74583  1.0000 1.9748971817
H   H1        1.0  0.63270  0.21690  0.59780  1.0000 0.1388984678
H   H2        1.0  0.36730  0.71690  0.90220  1.0000 0.1388984678
H   H3        1.0  0.36730  0.78310  0.40220  1.0000 0.1388984678
H   H4        1.0  0.63270  0.28310  0.09780  1.0000 0.1388984678
H   H5        1.0  0.85880  0.78400  0.97680  1.0000 0.1303061341
H   H6        1.0  0.14120  0.28400  0.52320  1.0000 0.1303061341
H   H7        1.0  0.14120  0.21600  0.02320  1.0000 0.1303061341
H   H8        1.0  0.85880  0.71600  0.47680  1.0000 0.1303061341
H   H9        1.0  0.61400  0.77800  0.38000  1.0000 0.3712374923
H   H10       1.0  0.38600  0.27800  0.12000  1.0000 0.3712374923
H   H11       1.0  0.38600  0.22200  0.62000  1.0000 0.3712374923
H   H12       1.0  0.61400  0.72200  0.88000  1.0000 0.3712374923
C   C1        1.0  0.59380  0.17680  0.43460  1.0000 0.5687374232
C   C2        1.0  0.40620  0.67680  0.06540  1.0000 0.5687374232
C   C3        1.0  0.40620  0.82320  0.56540  1.0000 0.5687374232
C   C4        1.0  0.59380  0.32320  0.93460  1.0000 0.5687374232
C   C5        1.0  0.54440  0.34730  0.46960  1.0000 0.0796450284
C   C6        1.0  0.45560  0.84730  0.03040  1.0000 0.0796450284
C   C7        1.0  0.45560  0.65270  0.53040  1.0000 0.0796450284
C   C8        1.0  0.54440  0.15270  0.96960  1.0000 0.0796450284
C   C9        1.0  0.57790  0.33390  0.55840  1.0000 0.0903198962
C   C10       1.0  0.42210  0.83390  0.94160  1.0000 0.0903198962
C   C11       1.0  0.42210  0.66610  0.44160  1.0000 0.0903198962
C   C12       1.0  0.57790  0.16610  0.05840  1.0000 0.0903198962
C   C13       1.0  0.12710  0.82210  0.14490  1.0000 0.5539138076
C   C14       1.0  0.87290  0.32210  0.35510  1.0000 0.5539138076
C   C15       1.0  0.87290  0.17790  0.85510  1.0000 0.5539138076
C   C16       1.0  0.12710  0.67790  0.64490  1.0000 0.5539138076
C   C17       1.0  0.05900  0.65380  0.06680  1.0000 0.0720492174
C   C18       1.0  0.94100  0.15380  0.43320  1.0000 0.0720492174
C   C19       1.0  0.94100  0.34620  0.93320  1.0000 0.0720492174
C   C20       1.0  0.05900  0.84620  0.56680  1.0000 0.0720492174
C   C21       1.0  0.91530  0.66580  0.98520  1.0000 0.0903198962
C   C22       1.0  0.08470  0.16580  0.51480  1.0000 0.0903198962
C   C23       1.0  0.08470  0.33420  0.01480  1.0000 0.0903198962
C   C24       1.0  0.91530  0.83420  0.48520  1.0000 0.0903198962
N   N1        1.0  0.46640  0.51570  0.41140  1.0000 -0.3026179391
N   N2        1.0  0.53360  0.01570  0.08860  1.0000 -0.3026179391
N   N3        1.0  0.53360  0.48430  0.58860  1.0000 -0.3026179391
N   N4        1.0  0.46640  0.98430  0.91140  1.0000 -0.3026179391
N   N5        1.0  0.14370  0.48680  0.08100  1.0000 -0.3026179391
N   N6        1.0  0.85630  0.98680  0.41900  1.0000 -0.3026179391
N   N7        1.0  0.85630  0.51320  0.91900  1.0000 -0.3026179391
N   N8        1.0  0.14370  0.01320  0.58100  1.0000 -0.3026179391
O   O1        1.0  0.56570  0.21670  0.35460  1.0000 -0.7281133178
O   O2        1.0  0.43430  0.71670  0.14540  1.0000 -0.7281133178
O   O3        1.0  0.43430  0.78330  0.64540  1.0000 -0.7281133178
O   O4        1.0  0.56570  0.28330  0.85460  1.0000 -0.7281133178
O   O5        1.0  0.65550  0.01560  0.48340  1.0000 -0.4882900062
O   O6        1.0  0.34450  0.51560  0.01660  1.0000 -0.4882900062
O   O7        1.0  0.34450  0.98440  0.51660  1.0000 -0.4882900062
O   O8        1.0  0.65550  0.48440  0.98340  1.0000 -0.4882900062
O   O9        1.0  0.25590  0.78510  0.21800  1.0000 -0.6632187608
O   O10       1.0  0.74410  0.28510  0.28200  1.0000 -0.6632187608
O   O11       1.0  0.74410  0.21490  0.78200  1.0000 -0.6632187608
O   O12       1.0  0.25590  0.71490  0.71800  1.0000 -0.6632187608
O   O13       1.0  0.05150  0.98160  0.13110  1.0000 -0.5138492229
O   O14       1.0  0.94850  0.48160  0.36890  1.0000 -0.5138492229
O   O15       1.0  0.94850  0.01840  0.86890  1.0000 -0.5138492229
O   O16       1.0  0.05150  0.51840  0.63110  1.0000 -0.5138492229
O   O17       1.0  0.58226  0.73000  0.32896  1.0000 -1.0717918518
O   O18       1.0  0.41774  0.23000  0.17104  1.0000 -1.0717918518
O   O19       1.0  0.41774  0.27000  0.67104  1.0000 -1.0717918518
O   O20       1.0  0.58226  0.77000  0.82896  1.0000 -1.0717918518
