# DDEC6 charges by PACMAN v1.1 (https://github.com/mtap-research/PACMAN-charge/)
data_2011[Cu][lvt]3[ASR]1
_chemical_formula_sum              "Cu4 H20 C60 N4 O24"
_cell_length_a       20.4069
_cell_length_b       20.4069
_cell_length_c       20.4069
_cell_angle_alpha    150.755
_cell_angle_beta     136.195
_cell_angle_gamma    53.5421

_symmetry_space_group_name_H-M    "P 1"
_symmetry_Int_Tables_number       1

loop_
  _symmetry_equiv_pos_as_xyz
  'x, y, z'

loop_
  _atom_site_type_symbol
  _atom_site_label
  _atom_site_symmetry_multiplicity
  _atom_site_fract_x
  _atom_site_fract_y
  _atom_site_fract_z
  _atom_site_occupancy
  _atom_site_charge
Cu  Cu1       1.0  0.52527  0.43199  0.90672  1.0000 0.8657666267
Cu  Cu2       1.0  0.97473  0.88145  0.90672  1.0000 0.8657666267
Cu  Cu3       1.0  0.02527  0.11855  0.09328  1.0000 0.8657666267
Cu  Cu4       1.0  0.47473  0.56801  0.09328  1.0000 0.8657666267
H   H1        1.0  0.26250  0.76250  0.00000  1.0000 0.1463041947
H   H2        1.0  0.23750  0.23750  0.50000  1.0000 0.1463041947
H   H3        1.0  0.73750  0.23750  0.00000  1.0000 0.1463041947
H   H4        1.0  0.76250  0.76250  0.50000  1.0000 0.1463041947
H   H5        1.0  0.46090  0.73330  0.97660  1.0000 0.1445892983
H   H6        1.0  0.03910  0.01570  0.27240  1.0000 0.1445892983
H   H7        1.0  0.25670  0.98430  0.02340  1.0000 0.1445892983
H   H8        1.0  0.24330  0.26670  0.72760  1.0000 0.1445892983
H   H9        1.0  0.53910  0.26670  0.02340  1.0000 0.1445892983
H   H10       1.0  0.96090  0.98430  0.72760  1.0000 0.1445892983
H   H11       1.0  0.74330  0.01570  0.97660  1.0000 0.1445892983
H   H12       1.0  0.75670  0.73330  0.27240  1.0000 0.1445892983
H   H13       1.0  0.61280  0.19430  0.37170  1.0000 0.1327311871
H   H14       1.0  0.88720  0.25890  0.58150  1.0000 0.1327311871
H   H15       1.0  0.32260  0.74110  0.62830  1.0000 0.1327311871
H   H16       1.0  0.17740  0.80570  0.41850  1.0000 0.1327311871
H   H17       1.0  0.38720  0.80570  0.62830  1.0000 0.1327311871
H   H18       1.0  0.11280  0.74110  0.41850  1.0000 0.1327311871
H   H19       1.0  0.67740  0.25890  0.37170  1.0000 0.1327311871
H   H20       1.0  0.82260  0.19430  0.58150  1.0000 0.1327311871
C   C1        1.0  0.41965  0.64540  0.99125  1.0000 0.5857874574
C   C2        1.0  0.08035  0.07160  0.22575  1.0000 0.5857874574
C   C3        1.0  0.15415  0.92840  0.00875  1.0000 0.5857874574
C   C4        1.0  0.34585  0.35460  0.77425  1.0000 0.5857874574
C   C5        1.0  0.58035  0.35460  0.00875  1.0000 0.5857874574
C   C6        1.0  0.91965  0.92840  0.77425  1.0000 0.5857874574
C   C7        1.0  0.84585  0.07160  0.99125  1.0000 0.5857874574
C   C8        1.0  0.65415  0.64540  0.22575  1.0000 0.5857874574
C   C9        1.0  0.28857  0.78857  0.00000  1.0000 -0.1156822732
C   C10       1.0  0.21143  0.21143  0.50000  1.0000 -0.1156822732
C   C11       1.0  0.71143  0.21143  0.00000  1.0000 -0.1156822732
C   C12       1.0  0.78857  0.78857  0.50000  1.0000 -0.1156822732
C   C13       1.0  0.36993  0.73752  0.99281  1.0000 0.0010747938
C   C14       1.0  0.13007  0.12288  0.36759  1.0000 0.0010747938
C   C15       1.0  0.24471  0.87712  0.00719  1.0000 0.0010747938
C   C16       1.0  0.25529  0.26248  0.63241  1.0000 0.0010747938
C   C17       1.0  0.63007  0.26248  0.00719  1.0000 -0.0001087103
C   C18       1.0  0.86993  0.87712  0.63241  1.0000 0.0010747938
C   C19       1.0  0.75529  0.12288  0.99281  1.0000 0.0010747938
C   C20       1.0  0.74471  0.73752  0.36759  1.0000 0.0010747938
C   C21       1.0  0.40703  0.77228  0.98795  1.0000 -0.1625648971
C   C22       1.0  0.09297  0.08092  0.36525  1.0000 -0.1625648971
C   C23       1.0  0.28433  0.91908  0.01205  1.0000 -0.1625648971
C   C24       1.0  0.21567  0.22772  0.63475  1.0000 -0.1625648971
C   C25       1.0  0.59297  0.22772  0.01205  1.0000 -0.1625648971
C   C26       1.0  0.90703  0.91908  0.63475  1.0000 -0.1625648971
C   C27       1.0  0.71567  0.08092  0.98795  1.0000 -0.1625648971
C   C28       1.0  0.78433  0.77228  0.36525  1.0000 -0.1625648971
C   C29       1.0  0.36400  0.86400  0.00000  1.0000 0.1815536366
C   C30       1.0  0.13600  0.13600  0.50000  1.0000 0.1815536366
C   C31       1.0  0.63600  0.13600  0.00000  1.0000 0.1815536366
C   C32       1.0  0.86400  0.86400  0.50000  1.0000 0.1815536366
C   C33       1.0  0.47542  0.01012  0.14350  1.0000 0.4245790789
C   C34       1.0  0.02458  0.16808  0.53470  1.0000 0.4245790789
C   C35       1.0  0.36662  0.83192  0.85650  1.0000 0.4245790789
C   C36       1.0  0.13338  0.98988  0.46530  1.0000 0.4255779208
C   C37       1.0  0.52458  0.98988  0.85650  1.0000 0.4245790789
C   C38       1.0  0.97542  0.83192  0.46530  1.0000 0.4245790789
C   C39       1.0  0.63338  0.16808  0.14350  1.0000 0.4245790789
C   C40       1.0  0.86662  0.01012  0.53470  1.0000 0.4245790789
C   C41       1.0  0.51651  0.04911  0.14180  1.0000 -0.0561987092
C   C42       1.0  0.98349  0.12529  0.53260  1.0000 -0.0561987092
C   C43       1.0  0.40731  0.87471  0.85820  1.0000 -0.0561987092
C   C44       1.0  0.09269  0.95089  0.46740  1.0000 -0.0561987092
C   C45       1.0  0.48349  0.95089  0.85820  1.0000 -0.0561987092
C   C46       1.0  0.01651  0.87471  0.46740  1.0000 -0.0561987092
C   C47       1.0  0.59269  0.12529  0.14180  1.0000 -0.0561987092
C   C48       1.0  0.90731  0.04911  0.53260  1.0000 -0.0561987092
C   C49       1.0  0.58830  0.14960  0.27650  1.0000 -0.0897728587
C   C50       1.0  0.91170  0.18820  0.56130  1.0000 -0.0897728587
C   C51       1.0  0.37310  0.81180  0.72350  1.0000 -0.0897728587
C   C52       1.0  0.12690  0.85040  0.43870  1.0000 -0.0897728587
C   C53       1.0  0.41170  0.85040  0.72350  1.0000 -0.0897728587
C   C54       1.0  0.08830  0.81180  0.43870  1.0000 -0.0897728587
C   C55       1.0  0.62690  0.18820  0.27650  1.0000 -0.0897728587
C   C56       1.0  0.87310  0.14960  0.56130  1.0000 -0.0897728587
C   C57       1.0  0.48059  0.98059  0.00000  1.0000 0.0282898624
C   C58       1.0  0.01941  0.01941  0.50000  1.0000 0.0282898624
C   C59       1.0  0.51941  0.01941  0.00000  1.0000 0.0282898624
C   C60       1.0  0.98059  0.98059  0.50000  1.0000 0.0282898624
N   N1        1.0  0.40390  0.90390  0.00000  1.0000 -0.2148066788
N   N2        1.0  0.09610  0.09610  0.50000  1.0000 -0.2172688771
N   N3        1.0  0.59610  0.09610  0.00000  1.0000 -0.2172688771
N   N4        1.0  0.90390  0.90390  0.50000  1.0000 -0.2172688771
O   O1        1.0  0.46238  0.55785  0.91773  1.0000 -0.5104683294
O   O2        1.0  0.03762  0.95535  0.09547  1.0000 -0.5104683294
O   O3        1.0  0.14012  0.04465  0.08227  1.0000 -0.5104683294
O   O4        1.0  0.35988  0.44215  0.90453  1.0000 -0.5104683294
O   O5        1.0  0.53762  0.44215  0.08227  1.0000 -0.5104683294
O   O6        1.0  0.96238  0.04465  0.90453  1.0000 -0.5104683294
O   O7        1.0  0.85988  0.95535  0.91773  1.0000 -0.5104683294
O   O8        1.0  0.64012  0.55785  0.09547  1.0000 -0.5104683294
O   O9        1.0  0.41513  0.66701  0.06734  1.0000 -0.5314580231
O   O10       1.0  0.08487  0.15221  0.25188  1.0000 -0.5314580231
O   O11       1.0  0.09967  0.84779  0.93266  1.0000 -0.5314580231
O   O12       1.0  0.40033  0.33299  0.74812  1.0000 -0.5314580231
O   O13       1.0  0.58487  0.33299  0.93266  1.0000 -0.5314580231
O   O14       1.0  0.91513  0.84779  0.74812  1.0000 -0.5314580231
O   O15       1.0  0.90033  0.15221  0.06734  1.0000 -0.5314580231
O   O16       1.0  0.59967  0.66701  0.25188  1.0000 -0.5314580231
O   O17       1.0  0.50261  0.06421  0.26040  1.0000 -0.3854752807
O   O18       1.0  0.99739  0.25779  0.56160  1.0000 -0.3822619397
O   O19       1.0  0.30381  0.74221  0.73960  1.0000 -0.3854752807
O   O20       1.0  0.19619  0.93579  0.43840  1.0000 -0.3822619397
O   O21       1.0  0.49739  0.93579  0.73960  1.0000 -0.3822619397
O   O22       1.0  0.00261  0.74221  0.43840  1.0000 -0.3822619397
O   O23       1.0  0.69619  0.25779  0.26040  1.0000 -0.3822619397
O   O24       1.0  0.80381  0.06421  0.56160  1.0000 -0.3822619397
