# DDEC6 charges by PACMAN v1.1 (https://github.com/mtap-research/PACMAN-charge/)
data_2011[V][bpq]3[ASR]3
_chemical_formula_sum              "V4 H16 C32 O20"
_cell_length_a       6.8023
_cell_length_b       13.912
_cell_length_c       16.052
_cell_angle_alpha    90
_cell_angle_beta     90
_cell_angle_gamma    90

_symmetry_space_group_name_H-M    "P 1"
_symmetry_Int_Tables_number       1

loop_
  _symmetry_equiv_pos_as_xyz
  'x, y, z'

loop_
  _atom_site_type_symbol
  _atom_site_label
  _atom_site_symmetry_multiplicity
  _atom_site_fract_x
  _atom_site_fract_y
  _atom_site_fract_z
  _atom_site_occupancy
  _atom_site_charge
V   V1        1.0  0.43550  0.76394  0.00079  1.0000 1.8022324693
V   V2        1.0  0.06450  0.23606  0.50079  1.0000 1.8022324693
V   V3        1.0  0.56450  0.26394  0.49921  1.0000 1.8022324693
V   V4        1.0  0.93550  0.73606  0.99921  1.0000 1.8022324693
H   H1        1.0  0.44600  0.94560  0.20710  1.0000 0.1296775293
H   H2        1.0  0.05400  0.05440  0.70710  1.0000 0.1296775293
H   H3        1.0  0.55400  0.44560  0.29290  1.0000 0.1296775293
H   H4        1.0  0.94600  0.55440  0.79290  1.0000 0.1296775293
H   H5        1.0  0.46810  0.05230  0.31580  1.0000 0.1296775293
H   H6        1.0  0.03190  0.94770  0.81580  1.0000 0.1296775293
H   H7        1.0  0.53190  0.55230  0.18420  1.0000 0.1296775293
H   H8        1.0  0.96810  0.44770  0.68420  1.0000 0.1296775293
H   H9        1.0  0.03290  0.91910  0.20530  1.0000 0.1296775293
H   H10       1.0  0.46710  0.08090  0.70530  1.0000 0.1296775293
H   H11       1.0  0.96710  0.41910  0.29470  1.0000 0.1296775293
H   H12       1.0  0.53290  0.58090  0.79470  1.0000 0.1296775293
H   H13       1.0  0.05140  0.02760  0.31530  1.0000 0.1296775293
H   H14       1.0  0.44860  0.97240  0.81530  1.0000 0.1296775293
H   H15       1.0  0.94860  0.52760  0.18470  1.0000 0.1296775293
H   H16       1.0  0.55140  0.47240  0.68470  1.0000 0.1296775293
C   C1        1.0  0.72540  0.85680  0.12137  1.0000 0.620520587
C   C2        1.0  0.77460  0.14320  0.62137  1.0000 0.620520587
C   C3        1.0  0.27460  0.35680  0.37863  1.0000 0.620520587
C   C4        1.0  0.22540  0.64320  0.87863  1.0000 0.620520587
C   C5        1.0  0.73770  0.92310  0.19357  1.0000 -0.0285759672
C   C6        1.0  0.76230  0.07690  0.69357  1.0000 -0.0285759672
C   C7        1.0  0.26230  0.42310  0.30643  1.0000 -0.0285759672
C   C8        1.0  0.23770  0.57690  0.80643  1.0000 -0.0285759672
C   C9        1.0  0.56870  0.96260  0.22800  1.0000 -0.1002144099
C   C10       1.0  0.93130  0.03740  0.72800  1.0000 -0.1002144099
C   C11       1.0  0.43130  0.46260  0.27200  1.0000 -0.1002144099
C   C12       1.0  0.06870  0.53740  0.77200  1.0000 -0.1002144099
C   C13       1.0  0.58200  0.02650  0.29290  1.0000 -0.1002144099
C   C14       1.0  0.91800  0.97350  0.79290  1.0000 -0.1002144099
C   C15       1.0  0.41800  0.52650  0.20710  1.0000 -0.1002144099
C   C16       1.0  0.08200  0.47350  0.70710  1.0000 -0.1002144099
C   C17       1.0  0.91900  0.94650  0.22670  1.0000 -0.1002144099
C   C18       1.0  0.58100  0.05350  0.72670  1.0000 -0.0946675587
C   C19       1.0  0.08100  0.44650  0.27330  1.0000 -0.0946675587
C   C20       1.0  0.41900  0.55350  0.77330  1.0000 -0.0946675587
C   C21       1.0  0.92980  0.01180  0.29260  1.0000 -0.1065934646
C   C22       1.0  0.57020  0.98820  0.79260  1.0000 -0.1065934646
C   C23       1.0  0.07020  0.51180  0.20740  1.0000 -0.1065934646
C   C24       1.0  0.42980  0.48820  0.70740  1.0000 -0.1065934646
C   C25       1.0  0.76200  0.05270  0.32422  1.0000 -0.0285759672
C   C26       1.0  0.73800  0.94730  0.82422  1.0000 -0.0285759672
C   C27       1.0  0.23800  0.55270  0.17578  1.0000 -0.0285759672
C   C28       1.0  0.26200  0.44730  0.67578  1.0000 -0.0285759672
C   C29       1.0  0.77590  0.12470  0.39290  1.0000 0.620520587
C   C30       1.0  0.72410  0.87530  0.89290  1.0000 0.620520587
C   C31       1.0  0.22410  0.62470  0.10710  1.0000 0.620520587
C   C32       1.0  0.27590  0.37530  0.60710  1.0000 0.620520587
O   O1        1.0  0.21776  0.80939  0.00390  1.0000 -0.7477689284
O   O2        1.0  0.28224  0.19061  0.50390  1.0000 -0.7477689284
O   O3        1.0  0.78224  0.30939  0.49610  1.0000 -0.7477689284
O   O4        1.0  0.71776  0.69061  0.99610  1.0000 -0.7477689284
O   O5        1.0  0.55750  0.83779  0.09359  1.0000 -0.598119666
O   O6        1.0  0.94250  0.16221  0.59359  1.0000 -0.598119666
O   O7        1.0  0.44250  0.33779  0.40641  1.0000 -0.598119666
O   O8        1.0  0.05750  0.66221  0.90641  1.0000 -0.598119666
O   O9        1.0  0.94370  0.14545  0.41985  1.0000 -0.5944013494
O   O10       1.0  0.55630  0.85455  0.91985  1.0000 -0.5944013494
O   O11       1.0  0.05630  0.64545  0.08015  1.0000 -0.5944013494
O   O12       1.0  0.44370  0.35455  0.58015  1.0000 -0.5944013494
O   O13       1.0  0.88330  0.82329  0.09351  1.0000 -0.5807326633
O   O14       1.0  0.61670  0.17671  0.59351  1.0000 -0.5807326633
O   O15       1.0  0.11670  0.32329  0.40649  1.0000 -0.5807326633
O   O16       1.0  0.38330  0.67671  0.90649  1.0000 -0.5807326633
O   O17       1.0  0.61430  0.15965  0.41804  1.0000 -0.5807326633
O   O18       1.0  0.88570  0.84035  0.91804  1.0000 -0.5807326633
O   O19       1.0  0.38570  0.65965  0.08196  1.0000 -0.5807326633
O   O20       1.0  0.11430  0.34035  0.58196  1.0000 -0.5807326633
