# DDEC6 charges by PACMAN v1.1 (https://github.com/mtap-research/PACMAN-charge/)
data_2011[CoMo][nan]3[ASR]1
_chemical_formula_sum              "Co2 Mo10 H20 C24 N20 O24"
_cell_length_a       16.4275
_cell_length_b       16.4275
_cell_length_c       7.4349
_cell_angle_alpha    87.526
_cell_angle_beta     92.474
_cell_angle_gamma    140.343

_symmetry_space_group_name_H-M    "P 1"
_symmetry_Int_Tables_number       1

loop_
  _symmetry_equiv_pos_as_xyz
  'x, y, z'

loop_
  _atom_site_type_symbol
  _atom_site_label
  _atom_site_symmetry_multiplicity
  _atom_site_fract_x
  _atom_site_fract_y
  _atom_site_fract_z
  _atom_site_occupancy
  _atom_site_charge
Co  Co1       1.0  0.00000  0.50000  0.00000  1.0000 1.0040948092
Co  Co2       1.0  0.50000  0.00000  0.50000  1.0000 1.006779164
Mo  Mo1       1.0  0.22368  0.80630  0.17345  1.0000 2.0995115935
Mo  Mo2       1.0  0.80630  0.22368  0.32655  1.0000 2.0995115935
Mo  Mo3       1.0  0.77632  0.19370  0.82655  1.0000 2.0995115935
Mo  Mo4       1.0  0.19370  0.77632  0.67345  1.0000 2.0995115935
Mo  Mo5       1.0  0.11377  0.93251  0.23122  1.0000 1.9910449682
Mo  Mo6       1.0  0.93251  0.11377  0.26878  1.0000 1.9951485097
Mo  Mo7       1.0  0.88623  0.06749  0.76878  1.0000 1.9951485097
Mo  Mo8       1.0  0.06749  0.88623  0.73122  1.0000 1.9910449682
Mo  Mo9       1.0  0.83069  0.83069  0.25000  1.0000 1.0907538234
Mo  Mo10      1.0  0.16931  0.16931  0.75000  1.0000 1.0907538234
H   H1        1.0  0.79180  0.62280  0.11260  1.0000 0.2325119301
H   H2        1.0  0.62280  0.79180  0.38740  1.0000 0.2325119301
H   H3        1.0  0.20820  0.37720  0.88740  1.0000 0.2325119301
H   H4        1.0  0.37720  0.20820  0.61260  1.0000 0.2325119301
H   H5        1.0  0.61330  0.45390  0.98860  1.0000 0.0796787328
H   H6        1.0  0.45390  0.61330  0.51140  1.0000 0.0796787328
H   H7        1.0  0.38670  0.54610  0.01140  1.0000 0.0796787328
H   H8        1.0  0.54610  0.38670  0.48860  1.0000 0.0796787328
H   H9        1.0  0.35080  0.07900  0.99700  1.0000 0.10081546
H   H10       1.0  0.07900  0.35080  0.50300  1.0000 0.10081546
H   H11       1.0  0.64920  0.92100  0.00300  1.0000 0.10081546
H   H12       1.0  0.92100  0.64920  0.49700  1.0000 0.10081546
H   H13       1.0  0.50330  0.09770  0.04850  1.0000 0.1428483351
H   H14       1.0  0.09770  0.50330  0.45150  1.0000 0.1428483351
H   H15       1.0  0.49670  0.90230  0.95150  1.0000 0.1428483351
H   H16       1.0  0.90230  0.49670  0.54850  1.0000 0.1428483351
H   H17       1.0  0.71720  0.30160  0.07490  1.0000 0.1101199984
H   H18       1.0  0.30160  0.71720  0.42510  1.0000 0.1101199984
H   H19       1.0  0.28280  0.69840  0.92510  1.0000 0.1101199984
H   H20       1.0  0.69840  0.28280  0.57490  1.0000 0.1101199984
C   C1        1.0  0.68640  0.39760  0.03470  1.0000 -0.0460690597
C   C2        1.0  0.39760  0.68640  0.46530  1.0000 -0.0460690597
C   C3        1.0  0.31360  0.60240  0.96530  1.0000 -0.0460690597
C   C4        1.0  0.60240  0.31360  0.53470  1.0000 -0.0460690597
C   C5        1.0  0.59243  0.38297  0.00260  1.0000 -0.0096107086
C   C6        1.0  0.38297  0.59243  0.49740  1.0000 -0.0096107086
C   C7        1.0  0.40757  0.61703  0.99740  1.0000 -0.0096107086
C   C8        1.0  0.61703  0.40757  0.50260  1.0000 -0.0096107086
C   C9        1.0  0.43622  0.15938  0.00720  1.0000 0.0489444508
C   C10       1.0  0.15938  0.43622  0.49280  1.0000 0.0489444508
C   C11       1.0  0.56378  0.84062  0.99280  1.0000 0.0489444508
C   C12       1.0  0.84062  0.56378  0.50720  1.0000 0.0489444508
C   C13       1.0  0.52611  0.16989  0.03770  1.0000 -0.1301399284
C   C14       1.0  0.16989  0.52611  0.46230  1.0000 -0.1301399284
C   C15       1.0  0.47389  0.83011  0.96230  1.0000 -0.1301399284
C   C16       1.0  0.83011  0.47389  0.53770  1.0000 -0.1301399284
C   C17       1.0  0.65405  0.29215  0.05270  1.0000 -0.0595890508
C   C18       1.0  0.29215  0.65405  0.44730  1.0000 -0.0595890508
C   C19       1.0  0.34595  0.70785  0.94730  1.0000 -0.0595890508
C   C20       1.0  0.70785  0.34595  0.55270  1.0000 -0.0595890508
C   C21       1.0  0.81756  0.52624  0.06230  1.0000 0.254114896
C   C22       1.0  0.52624  0.81756  0.43770  1.0000 0.254114896
C   C23       1.0  0.18244  0.47376  0.93770  1.0000 0.254114896
C   C24       1.0  0.47376  0.18244  0.56230  1.0000 0.254114896
N   N1        1.0  0.46909  0.26351  0.99180  1.0000 -0.2758544089
N   N2        1.0  0.26351  0.46909  0.50820  1.0000 -0.2758544089
N   N3        1.0  0.53091  0.73649  0.00820  1.0000 -0.2758544089
N   N4        1.0  0.73649  0.53091  0.49180  1.0000 -0.2758544089
N   N5        1.0  0.92132  0.55928  0.06210  1.0000 -0.2637149395
N   N6        1.0  0.55928  0.92132  0.43790  1.0000 -0.2637149395
N   N7        1.0  0.07868  0.44072  0.93790  1.0000 -0.2637149395
N   N8        1.0  0.44072  0.07868  0.56210  1.0000 -0.2637149395
N   N9        1.0  0.01468  0.68172  0.11060  1.0000 -0.1224111319
N   N10       1.0  0.68172  0.01468  0.38940  1.0000 -0.1224111319
N   N11       1.0  0.98532  0.31828  0.88940  1.0000 -0.1224111319
N   N12       1.0  0.31828  0.98532  0.61060  1.0000 -0.1224111319
N   N13       1.0  0.96755  0.71825  0.13540  1.0000 -0.1005580296
N   N14       1.0  0.71825  0.96755  0.36460  1.0000 -0.1005580296
N   N15       1.0  0.03245  0.28175  0.86460  1.0000 -0.1005580296
N   N16       1.0  0.28175  0.03245  0.63540  1.0000 -0.1005580296
N   N17       1.0  0.84415  0.62305  0.10570  1.0000 -0.1568724104
N   N18       1.0  0.62305  0.84415  0.39430  1.0000 -0.1568724104
N   N19       1.0  0.15585  0.37695  0.89430  1.0000 -0.1568724104
N   N20       1.0  0.37695  0.15585  0.60570  1.0000 -0.1568724104
O   O1        1.0  0.37042  0.90058  0.28110  1.0000 -0.7698620111
O   O2        1.0  0.90058  0.37042  0.21890  1.0000 -0.7698620111
O   O3        1.0  0.62958  0.09942  0.71890  1.0000 -0.7698620111
O   O4        1.0  0.09942  0.62958  0.78110  1.0000 -0.7698620111
O   O5        1.0  0.15259  0.65541  0.15420  1.0000 -0.7905047686
O   O6        1.0  0.65541  0.15259  0.34580  1.0000 -0.7905047686
O   O7        1.0  0.84741  0.34459  0.84580  1.0000 -0.7905047686
O   O8        1.0  0.34459  0.84741  0.65420  1.0000 -0.7905047686
O   O9        1.0  0.26238  0.85862  0.94840  1.0000 -0.8054298461
O   O10       1.0  0.85862  0.26238  0.55160  1.0000 -0.8047517241
O   O11       1.0  0.73762  0.14138  0.05160  1.0000 -0.8054298461
O   O12       1.0  0.14138  0.73762  0.44840  1.0000 -0.8054298461
O   O13       1.0  0.21404  0.91856  0.22640  1.0000 -0.8636480869
O   O14       1.0  0.91856  0.21404  0.27360  1.0000 -0.8636480869
O   O15       1.0  0.78596  0.08144  0.77360  1.0000 -0.8636480869
O   O16       1.0  0.08144  0.78596  0.72640  1.0000 -0.8636480869
O   O17       1.0  0.04763  0.86597  0.44760  1.0000 -0.8726620377
O   O18       1.0  0.86597  0.04763  0.05240  1.0000 -0.8726620377
O   O19       1.0  0.95237  0.13403  0.55240  1.0000 -0.8726620377
O   O20       1.0  0.13403  0.95237  0.94760  1.0000 -0.8726620377
O   O21       1.0  0.96417  0.88603  0.14790  1.0000 -0.8429806531
O   O22       1.0  0.88603  0.96417  0.35210  1.0000 -0.8429806531
O   O23       1.0  0.03583  0.11397  0.85210  1.0000 -0.8429806531
O   O24       1.0  0.11397  0.03583  0.64790  1.0000 -0.8429806531
