# DDEC6 charges by PACMAN v1.1 (https://github.com/mtap-research/PACMAN-charge/)
data_2011[Zn][dmc]3[ASR]1
_chemical_formula_sum              "Zn4 H56 C64 N8 O24"
_cell_length_a       10.1841
_cell_length_b       12.0386
_cell_length_c       19.9308
_cell_angle_alpha    90
_cell_angle_beta     111.136
_cell_angle_gamma    90

_symmetry_space_group_name_H-M    "P 1"
_symmetry_Int_Tables_number       1

loop_
  _symmetry_equiv_pos_as_xyz
  'x, y, z'

loop_
  _atom_site_type_symbol
  _atom_site_label
  _atom_site_symmetry_multiplicity
  _atom_site_fract_x
  _atom_site_fract_y
  _atom_site_fract_z
  _atom_site_occupancy
  _atom_site_charge
Zn  Zn1       1.0  0.20585  0.10079  0.32646  1.0000 0.8826697682
Zn  Zn2       1.0  0.79415  0.60079  0.17354  1.0000 0.8826697682
Zn  Zn3       1.0  0.79415  0.89921  0.67354  1.0000 0.8826697682
Zn  Zn4       1.0  0.20585  0.39921  0.82646  1.0000 0.8826697682
H   H1        1.0  0.55270  0.80340  0.26150  1.0000 0.1267781806
H   H2        1.0  0.44730  0.30340  0.23850  1.0000 0.1267781806
H   H3        1.0  0.44730  0.19660  0.73850  1.0000 0.1267781806
H   H4        1.0  0.55270  0.69660  0.76150  1.0000 0.1267781806
H   H5        1.0  0.51700  0.88450  0.44950  1.0000 0.1402075849
H   H6        1.0  0.48300  0.38450  0.05050  1.0000 0.1402075849
H   H7        1.0  0.48300  0.11550  0.55050  1.0000 0.1402075849
H   H8        1.0  0.51700  0.61550  0.94950  1.0000 0.1402075849
H   H9        1.0  0.82360  0.67820  0.44540  1.0000 0.1402075849
H   H10       1.0  0.17640  0.17820  0.05460  1.0000 0.1402075849
H   H11       1.0  0.17640  0.32180  0.55460  1.0000 0.1402075849
H   H12       1.0  0.82360  0.82180  0.94540  1.0000 0.1402075849
H   H13       1.0  0.72200  0.01900  0.08400  1.0000 0.1228088112
H   H14       1.0  0.27800  0.51900  0.41600  1.0000 0.1228088112
H   H15       1.0  0.27800  0.98100  0.91600  1.0000 0.1228088112
H   H16       1.0  0.72200  0.48100  0.58400  1.0000 0.1228088112
H   H17       1.0  0.62340  0.10990  0.09690  1.0000 0.1035219048
H   H18       1.0  0.37660  0.60990  0.40310  1.0000 0.1035219048
H   H19       1.0  0.37660  0.89010  0.90310  1.0000 0.1035219048
H   H20       1.0  0.62340  0.39010  0.59690  1.0000 0.1035219048
H   H21       1.0  0.92870  0.22480  0.33280  1.0000 0.1402075849
H   H22       1.0  0.07130  0.72480  0.16720  1.0000 0.1402075849
H   H23       1.0  0.07130  0.77520  0.66720  1.0000 0.1402075849
H   H24       1.0  0.92870  0.27520  0.83280  1.0000 0.1402075849
H   H25       1.0  0.52550  0.89810  0.03760  1.0000 0.1035219048
H   H26       1.0  0.47450  0.39810  0.46240  1.0000 0.1035219048
H   H27       1.0  0.47450  0.10190  0.96240  1.0000 0.1035219048
H   H28       1.0  0.52550  0.60190  0.53760  1.0000 0.1035219048
H   H29       1.0  0.42800  0.99160  0.04850  1.0000 0.108791179
H   H30       1.0  0.57200  0.49160  0.45150  1.0000 0.108791179
H   H31       1.0  0.57200  0.00840  0.95150  1.0000 0.108791179
H   H32       1.0  0.42800  0.50840  0.54850  1.0000 0.108791179
H   H33       1.0  0.57910  0.99110  0.18060  1.0000 0.1228088112
H   H34       1.0  0.42090  0.49110  0.31940  1.0000 0.1228088112
H   H35       1.0  0.42090  0.00890  0.81940  1.0000 0.1228088112
H   H36       1.0  0.57910  0.50890  0.68060  1.0000 0.1228088112
H   H37       1.0  0.68420  0.90420  0.16940  1.0000 0.1267781806
H   H38       1.0  0.31580  0.40420  0.33060  1.0000 0.1267781806
H   H39       1.0  0.31580  0.09580  0.83060  1.0000 0.1267781806
H   H40       1.0  0.68420  0.59580  0.66940  1.0000 0.1267781806
H   H41       1.0  0.69030  0.17450  0.25510  1.0000 0.1402075849
H   H42       1.0  0.30970  0.67450  0.24490  1.0000 0.1402075849
H   H43       1.0  0.30970  0.82550  0.74490  1.0000 0.1402075849
H   H44       1.0  0.69030  0.32550  0.75510  1.0000 0.1402075849
H   H45       1.0  0.07380  0.92090  0.23300  1.0000 0.1598034007
H   H46       1.0  0.92620  0.42090  0.26700  1.0000 0.1598034007
H   H47       1.0  0.92620  0.07910  0.76700  1.0000 0.1598034007
H   H48       1.0  0.07380  0.57910  0.73300  1.0000 0.1598034007
H   H49       1.0  0.92610  0.90030  0.17310  1.0000 0.1659806584
H   H50       1.0  0.07390  0.40030  0.32690  1.0000 0.1659806584
H   H51       1.0  0.07390  0.09970  0.82690  1.0000 0.1659806584
H   H52       1.0  0.92610  0.59970  0.67310  1.0000 0.1659806584
H   H53       1.0  0.96200  0.84750  0.24950  1.0000 0.1598034007
H   H54       1.0  0.03800  0.34750  0.25050  1.0000 0.1598034007
H   H55       1.0  0.03800  0.15250  0.75050  1.0000 0.1598034007
H   H56       1.0  0.96200  0.65250  0.74950  1.0000 0.1598034007
C   C1        1.0  0.38280  0.91990  0.30800  1.0000 0.5490023857
C   C2        1.0  0.61720  0.41990  0.19200  1.0000 0.5490023857
C   C3        1.0  0.61720  0.08010  0.69200  1.0000 0.5490023857
C   C4        1.0  0.38280  0.58010  0.80800  1.0000 0.5490023857
C   C5        1.0  0.78290  0.67640  0.30580  1.0000 0.5555718754
C   C6        1.0  0.21710  0.17640  0.19420  1.0000 0.5555718754
C   C7        1.0  0.21710  0.32360  0.69420  1.0000 0.5555718754
C   C8        1.0  0.78290  0.82360  0.80580  1.0000 0.5555718754
C   C9        1.0  0.58387  0.79670  0.31127  1.0000 -0.1000146978
C   C10       1.0  0.41613  0.29670  0.18873  1.0000 -0.1000146978
C   C11       1.0  0.41613  0.20330  0.68873  1.0000 -0.1000146978
C   C12       1.0  0.58387  0.70330  0.81127  1.0000 -0.1000146978
C   C13       1.0  0.56242  0.84570  0.42382  1.0000 -0.1079089875
C   C14       1.0  0.43758  0.34570  0.07618  1.0000 -0.1079089875
C   C15       1.0  0.43758  0.15430  0.57618  1.0000 -0.1079089875
C   C16       1.0  0.56242  0.65430  0.92382  1.0000 -0.1079089875
C   C17       1.0  0.68065  0.78200  0.46025  1.0000 -0.019402756
C   C18       1.0  0.31935  0.28200  0.03975  1.0000 -0.019402756
C   C19       1.0  0.31935  0.21800  0.53975  1.0000 -0.0120454828
C   C20       1.0  0.68065  0.71800  0.96025  1.0000 -0.0120454828
C   C21       1.0  0.51157  0.85160  0.34887  1.0000 -0.019402756
C   C22       1.0  0.48843  0.35160  0.15113  1.0000 -0.019402756
C   C23       1.0  0.48843  0.14840  0.65113  1.0000 -0.019402756
C   C24       1.0  0.51157  0.64840  0.84887  1.0000 -0.019402756
C   C25       1.0  0.70181  0.73210  0.34671  1.0000 -0.0120454828
C   C26       1.0  0.29819  0.23210  0.15329  1.0000 -0.0120454828
C   C27       1.0  0.29819  0.26790  0.65329  1.0000 -0.0120454828
C   C28       1.0  0.70181  0.76790  0.84671  1.0000 -0.0120454828
C   C29       1.0  0.91999  0.01060  0.24739  1.0000 0.3792988648
C   C30       1.0  0.08001  0.51060  0.25261  1.0000 0.3792988648
C   C31       1.0  0.08001  0.98940  0.75261  1.0000 0.3792988648
C   C32       1.0  0.91999  0.48940  0.74739  1.0000 0.3792988648
C   C33       1.0  0.74729  0.72360  0.42119  1.0000 -0.1079089875
C   C34       1.0  0.25271  0.22360  0.07881  1.0000 -0.1079089875
C   C35       1.0  0.25271  0.27640  0.57881  1.0000 -0.1079089875
C   C36       1.0  0.74729  0.77640  0.92119  1.0000 -0.1079089875
C   C37       1.0  0.63857  0.03050  0.09587  1.0000 -0.1600851687
C   C38       1.0  0.36143  0.53050  0.40413  1.0000 -0.1600851687
C   C39       1.0  0.36143  0.96950  0.90413  1.0000 -0.1600851687
C   C40       1.0  0.63857  0.46950  0.59587  1.0000 -0.1600851687
C   C41       1.0  0.74613  0.71910  0.04173  1.0000 0.5490023857
C   C42       1.0  0.25387  0.21910  0.45827  1.0000 0.5490023857
C   C43       1.0  0.25387  0.28090  0.95827  1.0000 0.5490023857
C   C44       1.0  0.74613  0.78090  0.54173  1.0000 0.5490023857
C   C45       1.0  0.90404  0.16310  0.30284  1.0000 -0.019402756
C   C46       1.0  0.09596  0.66310  0.19716  1.0000 -0.019402756
C   C47       1.0  0.09596  0.83690  0.69716  1.0000 -0.019402756
C   C48       1.0  0.90404  0.33690  0.80284  1.0000 -0.019402756
C   C49       1.0  0.51176  0.97790  0.03736  1.0000 -0.1456686045
C   C50       1.0  0.48824  0.47790  0.46264  1.0000 -0.1456686045
C   C51       1.0  0.48824  0.02210  0.96264  1.0000 -0.1456686045
C   C52       1.0  0.51176  0.52210  0.53736  1.0000 -0.1456686045
C   C53       1.0  0.66391  0.98290  0.16951  1.0000 -0.1000146978
C   C54       1.0  0.33609  0.48290  0.33049  1.0000 -0.1000146978
C   C55       1.0  0.33609  0.01710  0.83049  1.0000 -0.1000146978
C   C56       1.0  0.66391  0.51710  0.66951  1.0000 -0.1000146978
C   C57       1.0  0.77218  0.13550  0.26018  1.0000 -0.0773821856
C   C58       1.0  0.22782  0.63550  0.23982  1.0000 -0.0773821856
C   C59       1.0  0.22782  0.86450  0.73982  1.0000 -0.0773821856
C   C60       1.0  0.77218  0.36450  0.76018  1.0000 -0.0773821856
C   C61       1.0  0.97530  0.91120  0.22370  1.0000 -0.5301719691
C   C62       1.0  0.02470  0.41120  0.27630  1.0000 -0.5301719691
C   C63       1.0  0.02470  0.08880  0.77630  1.0000 -0.5301719691
C   C64       1.0  0.97530  0.58880  0.72370  1.0000 -0.5301719691
N   N1        1.0  0.99638  0.08523  0.29498  1.0000 -0.3674241836
N   N2        1.0  0.00362  0.58523  0.20502  1.0000 -0.3674241836
N   N3        1.0  0.00362  0.91477  0.70502  1.0000 -0.3674241836
N   N4        1.0  0.99638  0.41477  0.79498  1.0000 -0.3674241836
N   N5        1.0  0.78190  0.03856  0.22560  1.0000 -0.0022115831
N   N6        1.0  0.21810  0.53856  0.27440  1.0000 -0.0022115831
N   N7        1.0  0.21810  0.96144  0.77440  1.0000 -0.0022115831
N   N8        1.0  0.78190  0.46144  0.72560  1.0000 -0.0022115831
O   O1        1.0  0.31796  0.96229  0.34551  1.0000 -0.5001334781
O   O2        1.0  0.68204  0.46229  0.15449  1.0000 -0.5050224448
O   O3        1.0  0.68204  0.03771  0.65449  1.0000 -0.5050224448
O   O4        1.0  0.31796  0.53771  0.84551  1.0000 -0.5001334781
O   O5        1.0  0.73095  0.69185  0.23691  1.0000 -0.5525107766
O   O6        1.0  0.26905  0.19185  0.26309  1.0000 -0.5525107766
O   O7        1.0  0.26905  0.30815  0.76309  1.0000 -0.5525107766
O   O8        1.0  0.73095  0.80815  0.73691  1.0000 -0.5525107766
O   O9        1.0  0.69832  0.64647  0.07317  1.0000 -0.4933839674
O   O10       1.0  0.30168  0.14647  0.42683  1.0000 -0.4933839674
O   O11       1.0  0.30168  0.35353  0.92683  1.0000 -0.4933839674
O   O12       1.0  0.69832  0.85353  0.57317  1.0000 -0.4933839674
O   O13       1.0  0.34915  0.93105  0.24205  1.0000 -0.4933839674
O   O14       1.0  0.65085  0.43105  0.25795  1.0000 -0.4933839674
O   O15       1.0  0.65085  0.06895  0.75795  1.0000 -0.5001334781
O   O16       1.0  0.34915  0.56895  0.74205  1.0000 -0.4933839674
O   O17       1.0  0.84092  0.78430  0.07162  1.0000 -0.4933839674
O   O18       1.0  0.15908  0.28430  0.42838  1.0000 -0.5001334781
O   O19       1.0  0.15908  0.21570  0.92838  1.0000 -0.4933839674
O   O20       1.0  0.84092  0.71570  0.57162  1.0000 -0.4933839674
O   O21       1.0  0.88975  0.87707  0.83850  1.0000 -0.4729904766
O   O22       1.0  0.11025  0.37707  0.66150  1.0000 -0.4729904766
O   O23       1.0  0.11025  0.12293  0.16150  1.0000 -0.4729904766
O   O24       1.0  0.88975  0.62293  0.33850  1.0000 -0.4729904766
