# DDEC6 charges by PACMAN v1.1 (https://github.com/mtap-research/PACMAN-charge/)
data_2011[Cu][dia]3[ASR]1
_chemical_formula_sum              "Cu2 H48 C32 N24"
_cell_length_a       10.8161
_cell_length_b       10.8161
_cell_length_c       14.1942
_cell_angle_alpha    106.105
_cell_angle_beta     106.105
_cell_angle_gamma    105.778

_symmetry_space_group_name_H-M    "P 1"
_symmetry_Int_Tables_number       1

loop_
  _symmetry_equiv_pos_as_xyz
  'x, y, z'

loop_
  _atom_site_type_symbol
  _atom_site_label
  _atom_site_symmetry_multiplicity
  _atom_site_fract_x
  _atom_site_fract_y
  _atom_site_fract_z
  _atom_site_occupancy
  _atom_site_charge
Cu  Cu1       1.0  0.12500  0.37500  0.75000  1.0000 0.2817261711
Cu  Cu2       1.0  0.87500  0.62500  0.25000  1.0000 0.2817261711
H   H1        1.0  0.46933  0.51061  0.83759  1.0000 0.0988571279
H   H2        1.0  0.53067  0.48939  0.16241  1.0000 0.0988571279
H   H3        1.0  0.86825  0.32698  0.83759  1.0000 0.0988571279
H   H4        1.0  0.13175  0.67302  0.16241  1.0000 0.0988571279
H   H5        1.0  0.98939  0.03067  0.66241  1.0000 0.0988571279
H   H6        1.0  0.01061  0.96933  0.33759  1.0000 0.0988571279
H   H7        1.0  0.17302  0.63175  0.66241  1.0000 0.0988571279
H   H8        1.0  0.82698  0.36825  0.33759  1.0000 0.0988571279
H   H9        1.0  0.19346  0.66403  0.94745  1.0000 0.1054202494
H   H10       1.0  0.80654  0.33597  0.05255  1.0000 0.1054202494
H   H11       1.0  0.25398  0.28341  0.94745  1.0000 0.1054202494
H   H12       1.0  0.74602  0.71659  0.05255  1.0000 0.1054202494
H   H13       1.0  0.83597  0.30654  0.55255  1.0000 0.1054202494
H   H14       1.0  0.16403  0.69346  0.44745  1.0000 0.1054202494
H   H15       1.0  0.21659  0.24602  0.55255  1.0000 0.1054202494
H   H16       1.0  0.78341  0.75398  0.44745  1.0000 0.1054202494
H   H17       1.0  0.56784  0.90796  0.13304  1.0000 0.0855532111
H   H18       1.0  0.43216  0.09204  0.86696  1.0000 0.0855532111
H   H19       1.0  0.06520  0.22509  0.13304  1.0000 0.0855532111
H   H20       1.0  0.93480  0.77491  0.86696  1.0000 0.0855532111
H   H21       1.0  0.59204  0.93216  0.36696  1.0000 0.0855532111
H   H22       1.0  0.40796  0.06784  0.63304  1.0000 0.0855532111
H   H23       1.0  0.27491  0.43480  0.36696  1.0000 0.0855532111
H   H24       1.0  0.72509  0.56520  0.63304  1.0000 0.0855532111
H   H25       1.0  0.39034  0.87213  0.12297  1.0000 0.0754801546
H   H26       1.0  0.60966  0.12787  0.87703  1.0000 0.0754801546
H   H27       1.0  0.23262  0.25084  0.12297  1.0000 0.0754801546
H   H28       1.0  0.76738  0.74916  0.87703  1.0000 0.0754801546
H   H29       1.0  0.62787  0.10966  0.37703  1.0000 0.0754801546
H   H30       1.0  0.37213  0.89034  0.62297  1.0000 0.0754801546
H   H31       1.0  0.24916  0.26738  0.37703  1.0000 0.0754801546
H   H32       1.0  0.75084  0.73262  0.62297  1.0000 0.0754801546
H   H33       1.0  0.34374  0.96258  0.97779  1.0000 0.0855532111
H   H34       1.0  0.65626  0.03742  0.02221  1.0000 0.0855532111
H   H35       1.0  0.13406  0.01522  0.97779  1.0000 0.0855532111
H   H36       1.0  0.86594  0.98478  0.02221  1.0000 0.0855532111
H   H37       1.0  0.53742  0.15626  0.52221  1.0000 0.0855532111
H   H38       1.0  0.46258  0.84374  0.47779  1.0000 0.0855532111
H   H39       1.0  0.48478  0.36594  0.52221  1.0000 0.0855532111
H   H40       1.0  0.51522  0.63406  0.47779  1.0000 0.0855532111
H   H41       1.0  0.47834  0.09055  0.09631  1.0000 0.0855532111
H   H42       1.0  0.52166  0.90945  0.90369  1.0000 0.0855532111
H   H43       1.0  0.11798  0.00577  0.09631  1.0000 0.0855532111
H   H44       1.0  0.88202  0.99423  0.90369  1.0000 0.0855532111
H   H45       1.0  0.40945  0.02166  0.40369  1.0000 0.0855532111
H   H46       1.0  0.59055  0.97834  0.59631  1.0000 0.0855532111
H   H47       1.0  0.49423  0.38202  0.40369  1.0000 0.0855532111
H   H48       1.0  0.50577  0.61798  0.59631  1.0000 0.0855532111
C   C1        1.0  0.43034  0.57867  0.88356  1.0000 0.0988571279
C   C2        1.0  0.56966  0.42133  0.11644  1.0000 0.0988571279
C   C3        1.0  0.95321  0.30489  0.88356  1.0000 0.0988571279
C   C4        1.0  0.04679  0.69511  0.11644  1.0000 0.0988571279
C   C5        1.0  0.92133  0.06966  0.61644  1.0000 0.0988571279
C   C6        1.0  0.07867  0.93034  0.38356  1.0000 0.0988571279
C   C7        1.0  0.19511  0.54679  0.61644  1.0000 0.0988571279
C   C8        1.0  0.80489  0.45321  0.38356  1.0000 0.0988571279
C   C9        1.0  0.28661  0.65080  0.93774  1.0000 0.0477480277
C   C10       1.0  0.71339  0.34920  0.06226  1.0000 0.0477480277
C   C11       1.0  0.15113  0.28694  0.93774  1.0000 0.0477480277
C   C12       1.0  0.84887  0.71306  0.06226  1.0000 0.0477480277
C   C13       1.0  0.84920  0.21339  0.56226  1.0000 0.0477480277
C   C14       1.0  0.15080  0.78661  0.43774  1.0000 0.0477480277
C   C15       1.0  0.21306  0.34887  0.56226  1.0000 0.0477480277
C   C16       1.0  0.78694  0.65113  0.43774  1.0000 0.0477480277
C   C17       1.0  0.46040  0.88224  0.07876  1.0000 -0.0776376381
C   C18       1.0  0.53960  0.11776  0.92124  1.0000 -0.0776376381
C   C19       1.0  0.11836  0.19652  0.07876  1.0000 -0.0776376381
C   C20       1.0  0.88164  0.80348  0.92124  1.0000 -0.0776376381
C   C21       1.0  0.61776  0.03960  0.42124  1.0000 -0.0776376381
C   C22       1.0  0.38224  0.96040  0.57876  1.0000 -0.0776376381
C   C23       1.0  0.30348  0.38164  0.42124  1.0000 -0.0776376381
C   C24       1.0  0.69652  0.61836  0.57876  1.0000 -0.0776376381
C   C25       1.0  0.45260  0.99122  0.03085  1.0000 -0.1754416927
C   C26       1.0  0.54740  0.00878  0.96915  1.0000 -0.1754416927
C   C27       1.0  0.07826  0.03963  0.03085  1.0000 -0.1741735592
C   C28       1.0  0.92174  0.96037  0.96915  1.0000 -0.1754416927
C   C29       1.0  0.50878  0.04740  0.46915  1.0000 -0.1754416927
C   C30       1.0  0.49122  0.95260  0.53085  1.0000 -0.1754416927
C   C31       1.0  0.46037  0.42174  0.46915  1.0000 -0.1754416927
C   C32       1.0  0.53963  0.57826  0.53085  1.0000 -0.1754416927
N   N1        1.0  0.29221  0.54373  0.86509  1.0000 -0.2997481964
N   N2        1.0  0.70779  0.45627  0.13491  1.0000 -0.2997481964
N   N3        1.0  0.07288  0.32137  0.86509  1.0000 -0.2997481964
N   N4        1.0  0.92712  0.67863  0.13491  1.0000 -0.2997481964
N   N5        1.0  0.95627  0.20779  0.63491  1.0000 -0.2997481964
N   N6        1.0  0.04373  0.79221  0.36509  1.0000 -0.2997481964
N   N7        1.0  0.17863  0.42712  0.63491  1.0000 -0.2997481964
N   N8        1.0  0.82137  0.57288  0.36509  1.0000 -0.2997481964
N   N9        1.0  0.41835  0.74603  0.99707  1.0000 0.1389136285
N   N10       1.0  0.58165  0.25397  0.00293  1.0000 0.1389136285
N   N11       1.0  0.07872  0.25104  0.99707  1.0000 0.1389136285
N   N12       1.0  0.92128  0.74896  0.00293  1.0000 0.1389136285
N   N13       1.0  0.75397  0.08165  0.50293  1.0000 0.1389136285
N   N14       1.0  0.24603  0.91835  0.49707  1.0000 0.1389136285
N   N15       1.0  0.24896  0.42128  0.50293  1.0000 0.1389136285
N   N16       1.0  0.75104  0.57872  0.49707  1.0000 0.1389136285
N   N17       1.0  0.51388  0.70138  0.96392  1.0000 -0.3396984815
N   N18       1.0  0.48612  0.29862  0.03608  1.0000 -0.3396984815
N   N19       1.0  0.95004  0.26254  0.96392  1.0000 -0.3396984815
N   N20       1.0  0.04996  0.73746  0.03608  1.0000 -0.3396984815
N   N21       1.0  0.79862  0.98612  0.53608  1.0000 -0.3396984815
N   N22       1.0  0.20138  0.01388  0.46392  1.0000 -0.3396984815
N   N23       1.0  0.23746  0.54996  0.53608  1.0000 -0.3396984815
N   N24       1.0  0.76254  0.45004  0.46392  1.0000 -0.3396984815
