# DDEC6 charges by PACMAN v1.1 (https://github.com/mtap-research/PACMAN-charge/)
data_2011[Cd][nuc]3[ASR]3
_chemical_formula_sum              "Cd4 H144 C192 N48"
_cell_length_a       15.8632
_cell_length_b       15.8632
_cell_length_c       21.76
_cell_angle_alpha    90
_cell_angle_beta     90
_cell_angle_gamma    90

_symmetry_space_group_name_H-M    "P 1"
_symmetry_Int_Tables_number       1

loop_
  _symmetry_equiv_pos_as_xyz
  'x, y, z'

loop_
  _atom_site_type_symbol
  _atom_site_label
  _atom_site_symmetry_multiplicity
  _atom_site_fract_x
  _atom_site_fract_y
  _atom_site_fract_z
  _atom_site_occupancy
  _atom_site_charge
Cd  Cd1       1.0  0.55816  0.44184  0.75000  1.0000 0.6392688294
Cd  Cd2       1.0  0.44184  0.55816  0.25000  1.0000 0.6392688294
Cd  Cd3       1.0  0.05816  0.05816  0.00000  1.0000 0.6392688294
Cd  Cd4       1.0  0.94184  0.94184  0.50000  1.0000 0.6392688294
H   H1        1.0  0.73540  0.50870  0.67740  1.0000 0.0924863913
H   H2        1.0  0.26460  0.49130  0.17740  1.0000 0.0924863913
H   H3        1.0  0.99130  0.23540  0.92740  1.0000 0.0924863913
H   H4        1.0  0.00870  0.76460  0.42740  1.0000 0.0924863913
H   H5        1.0  0.76460  0.00870  0.57260  1.0000 0.0924863913
H   H6        1.0  0.23540  0.99130  0.07260  1.0000 0.0924863913
H   H7        1.0  0.50870  0.73540  0.32260  1.0000 0.0924863913
H   H8        1.0  0.49130  0.26460  0.82260  1.0000 0.0924863913
H   H9        1.0  0.84640  0.60280  0.68680  1.0000 0.124966382
H   H10       1.0  0.15360  0.39720  0.18680  1.0000 0.124966382
H   H11       1.0  0.89720  0.34640  0.93680  1.0000 0.124966382
H   H12       1.0  0.10280  0.65360  0.43680  1.0000 0.124966382
H   H13       1.0  0.65360  0.10280  0.56320  1.0000 0.124966382
H   H14       1.0  0.34640  0.89720  0.06320  1.0000 0.124966382
H   H15       1.0  0.60280  0.84640  0.31320  1.0000 0.124966382
H   H16       1.0  0.39720  0.15360  0.81320  1.0000 0.124966382
H   H17       1.0  0.76240  0.65740  0.85710  1.0000 0.1268536376
H   H18       1.0  0.23760  0.34260  0.35710  1.0000 0.1268536376
H   H19       1.0  0.84260  0.26240  0.10710  1.0000 0.1268536376
H   H20       1.0  0.15740  0.73760  0.60710  1.0000 0.1268536376
H   H21       1.0  0.73760  0.15740  0.39290  1.0000 0.1268536376
H   H22       1.0  0.26240  0.84260  0.89290  1.0000 0.1268536376
H   H23       1.0  0.65740  0.76240  0.14290  1.0000 0.1268536376
H   H24       1.0  0.34260  0.23760  0.64290  1.0000 0.1268536376
H   H25       1.0  0.65780  0.55950  0.84340  1.0000 0.0979282504
H   H26       1.0  0.34220  0.44050  0.34340  1.0000 0.0979282504
H   H27       1.0  0.94050  0.15780  0.09340  1.0000 0.0979282504
H   H28       1.0  0.05950  0.84220  0.59340  1.0000 0.0979282504
H   H29       1.0  0.84220  0.05950  0.40660  1.0000 0.0979282504
H   H30       1.0  0.15780  0.94050  0.90660  1.0000 0.0979282504
H   H31       1.0  0.55950  0.65780  0.15660  1.0000 0.0979282504
H   H32       1.0  0.44050  0.34220  0.65660  1.0000 0.0979282504
H   H33       1.0  0.96150  0.66640  0.71210  1.0000 0.110218842
H   H34       1.0  0.03850  0.33360  0.21210  1.0000 0.110218842
H   H35       1.0  0.83360  0.46150  0.96210  1.0000 0.110218842
H   H36       1.0  0.16640  0.53850  0.46210  1.0000 0.110218842
H   H37       1.0  0.53850  0.16640  0.53790  1.0000 0.110218842
H   H38       1.0  0.46150  0.83360  0.03790  1.0000 0.110218842
H   H39       1.0  0.66640  0.96150  0.28790  1.0000 0.110218842
H   H40       1.0  0.33360  0.03850  0.78790  1.0000 0.110218842
H   H41       1.0  0.06270  0.77030  0.72120  1.0000 0.110218842
H   H42       1.0  0.93730  0.22970  0.22120  1.0000 0.110218842
H   H43       1.0  0.72970  0.56270  0.97120  1.0000 0.110218842
H   H44       1.0  0.27030  0.43730  0.47120  1.0000 0.110218842
H   H45       1.0  0.43730  0.27030  0.52880  1.0000 0.110218842
H   H46       1.0  0.56270  0.72970  0.02880  1.0000 0.110218842
H   H47       1.0  0.77030  0.06270  0.27880  1.0000 0.110218842
H   H48       1.0  0.22970  0.93730  0.77880  1.0000 0.110218842
H   H49       1.0  0.04430  0.88140  0.79080  1.0000 0.110218842
H   H50       1.0  0.95570  0.11860  0.29080  1.0000 0.110218842
H   H51       1.0  0.61860  0.54430  0.04080  1.0000 0.110218842
H   H52       1.0  0.38140  0.45570  0.54080  1.0000 0.110218842
H   H53       1.0  0.45570  0.38140  0.45920  1.0000 0.110218842
H   H54       1.0  0.54430  0.61860  0.95920  1.0000 0.110218842
H   H55       1.0  0.88140  0.04430  0.20920  1.0000 0.110218842
H   H56       1.0  0.11860  0.95570  0.70920  1.0000 0.110218842
H   H57       1.0  0.82400  0.77790  0.84550  1.0000 0.110218842
H   H58       1.0  0.17600  0.22210  0.34550  1.0000 0.110218842
H   H59       1.0  0.72210  0.32400  0.09550  1.0000 0.110218842
H   H60       1.0  0.27790  0.67600  0.59550  1.0000 0.110218842
H   H61       1.0  0.67600  0.27790  0.40450  1.0000 0.110218842
H   H62       1.0  0.32400  0.72210  0.90450  1.0000 0.110218842
H   H63       1.0  0.77790  0.82400  0.15450  1.0000 0.110218842
H   H64       1.0  0.22210  0.17600  0.65450  1.0000 0.110218842
H   H65       1.0  0.79780  0.99490  0.04070  1.0000 0.110218842
H   H66       1.0  0.20220  0.00510  0.54070  1.0000 0.110218842
H   H67       1.0  0.50510  0.29780  0.29070  1.0000 0.110218842
H   H68       1.0  0.49490  0.70220  0.79070  1.0000 0.110218842
H   H69       1.0  0.70220  0.49490  0.20930  1.0000 0.110218842
H   H70       1.0  0.29780  0.50510  0.70930  1.0000 0.110218842
H   H71       1.0  0.99490  0.79780  0.95930  1.0000 0.110218842
H   H72       1.0  0.00510  0.20220  0.45930  1.0000 0.110218842
H   H73       1.0  0.69750  0.08620  0.08430  1.0000 0.110218842
H   H74       1.0  0.30250  0.91380  0.58430  1.0000 0.110218842
H   H75       1.0  0.41380  0.19750  0.33430  1.0000 0.110218842
H   H76       1.0  0.58620  0.80250  0.83430  1.0000 0.110218842
H   H77       1.0  0.80250  0.58620  0.16570  1.0000 0.110218842
H   H78       1.0  0.19750  0.41380  0.66570  1.0000 0.110218842
H   H79       1.0  0.08620  0.69750  0.91570  1.0000 0.110218842
H   H80       1.0  0.91380  0.30250  0.41570  1.0000 0.110218842
H   H81       1.0  0.64780  0.20080  0.02960  1.0000 0.0979282504
H   H82       1.0  0.35220  0.79920  0.52960  1.0000 0.0979282504
H   H83       1.0  0.29920  0.14780  0.27960  1.0000 0.0979282504
H   H84       1.0  0.70080  0.85220  0.77960  1.0000 0.0979282504
H   H85       1.0  0.85220  0.70080  0.22040  1.0000 0.0979282504
H   H86       1.0  0.14780  0.29920  0.72040  1.0000 0.0979282504
H   H87       1.0  0.20080  0.64780  0.97040  1.0000 0.0979282504
H   H88       1.0  0.79920  0.35220  0.47040  1.0000 0.0979282504
H   H89       1.0  0.80190  0.14030  0.88820  1.0000 0.110218842
H   H90       1.0  0.19810  0.85970  0.38820  1.0000 0.110218842
H   H91       1.0  0.35970  0.30190  0.13820  1.0000 0.110218842
H   H92       1.0  0.64030  0.69810  0.63820  1.0000 0.110218842
H   H93       1.0  0.69810  0.64030  0.36180  1.0000 0.110218842
H   H94       1.0  0.30190  0.35970  0.86180  1.0000 0.110218842
H   H95       1.0  0.14030  0.80190  0.11180  1.0000 0.110218842
H   H96       1.0  0.85970  0.19810  0.61180  1.0000 0.110218842
H   H97       1.0  0.58440  0.28550  0.96570  1.0000 0.1268536376
H   H98       1.0  0.41560  0.71450  0.46570  1.0000 0.1268536376
H   H99       1.0  0.21450  0.08440  0.21570  1.0000 0.1268536376
H   H100      1.0  0.78550  0.91560  0.71570  1.0000 0.1268536376
H   H101      1.0  0.91560  0.78550  0.28430  1.0000 0.1268536376
H   H102      1.0  0.08440  0.21450  0.78430  1.0000 0.1268536376
H   H103      1.0  0.28550  0.58440  0.03430  1.0000 0.1268536376
H   H104      1.0  0.71450  0.41560  0.53430  1.0000 0.1268536376
H   H105      1.0  0.53690  0.39120  0.90160  1.0000 0.0979282504
H   H106      1.0  0.46310  0.60880  0.40160  1.0000 0.0979282504
H   H107      1.0  0.10880  0.03690  0.15160  1.0000 0.0979282504
H   H108      1.0  0.89120  0.96310  0.65160  1.0000 0.0979282504
H   H109      1.0  0.96310  0.89120  0.34840  1.0000 0.0979282504
H   H110      1.0  0.03690  0.10880  0.84840  1.0000 0.0979282504
H   H111      1.0  0.39120  0.53690  0.09840  1.0000 0.0979282504
H   H112      1.0  0.60880  0.46310  0.59840  1.0000 0.0979282504
H   H113      1.0  0.72980  0.35930  0.79090  1.0000 0.0924863913
H   H114      1.0  0.27020  0.64070  0.29090  1.0000 0.0924863913
H   H115      1.0  0.14070  0.22980  0.04090  1.0000 0.0924863913
H   H116      1.0  0.85930  0.77020  0.54090  1.0000 0.0924863913
H   H117      1.0  0.77020  0.85930  0.45910  1.0000 0.0924863913
H   H118      1.0  0.22980  0.14070  0.95910  1.0000 0.0924863913
H   H119      1.0  0.35930  0.72980  0.20910  1.0000 0.0924863913
H   H120      1.0  0.64070  0.27020  0.70910  1.0000 0.0924863913
H   H121      1.0  0.78650  0.26080  0.85470  1.0000 0.1268536376
H   H122      1.0  0.21350  0.73920  0.35470  1.0000 0.1268536376
H   H123      1.0  0.23920  0.28650  0.10470  1.0000 0.1268536376
H   H124      1.0  0.76080  0.71350  0.60470  1.0000 0.1268536376
H   H125      1.0  0.71350  0.76080  0.39530  1.0000 0.1268536376
H   H126      1.0  0.28650  0.23920  0.89530  1.0000 0.1268536376
H   H127      1.0  0.26080  0.78650  0.14530  1.0000 0.1268536376
H   H128      1.0  0.73920  0.21350  0.64530  1.0000 0.1268536376
H   H129      1.0  0.74750  0.97400  0.84980  1.0000 0.2403156077
H   H130      1.0  0.25250  0.02600  0.34980  1.0000 0.2403156077
H   H131      1.0  0.52600  0.24750  0.09980  1.0000 0.2403156077
H   H132      1.0  0.47400  0.75250  0.59980  1.0000 0.2403156077
H   H133      1.0  0.75250  0.47400  0.40020  1.0000 0.2403156077
H   H134      1.0  0.24750  0.52600  0.90020  1.0000 0.2403156077
H   H135      1.0  0.97400  0.74750  0.15020  1.0000 0.2403156077
H   H136      1.0  0.02600  0.25250  0.65020  1.0000 0.2403156077
H   H137      1.0  0.73990  0.91580  0.90030  1.0000 0.2403156077
H   H138      1.0  0.26010  0.08420  0.40030  1.0000 0.2403156077
H   H139      1.0  0.58420  0.23990  0.15030  1.0000 0.2403156077
H   H140      1.0  0.41580  0.76010  0.65030  1.0000 0.2403156077
H   H141      1.0  0.76010  0.41580  0.34970  1.0000 0.2403156077
H   H142      1.0  0.23990  0.58420  0.84970  1.0000 0.2403156077
H   H143      1.0  0.91580  0.73990  0.09970  1.0000 0.2403156077
H   H144      1.0  0.08420  0.26010  0.59970  1.0000 0.2403156077
C   C1        1.0  0.74100  0.53950  0.71460  1.0000 0.0621272967
C   C2        1.0  0.25900  0.46050  0.21460  1.0000 0.0621272967
C   C3        1.0  0.96050  0.24100  0.96460  1.0000 0.0621272967
C   C4        1.0  0.03950  0.75900  0.46460  1.0000 0.0621272967
C   C5        1.0  0.75900  0.03950  0.53540  1.0000 0.0621272967
C   C6        1.0  0.24100  0.96050  0.03540  1.0000 0.0621272967
C   C7        1.0  0.53950  0.74100  0.28540  1.0000 0.0621272967
C   C8        1.0  0.46050  0.25900  0.78540  1.0000 0.0621272967
C   C9        1.0  0.80740  0.59640  0.71960  1.0000 -0.207228907
C   C10       1.0  0.19260  0.40360  0.21960  1.0000 -0.207228907
C   C11       1.0  0.90360  0.30740  0.96960  1.0000 -0.207228907
C   C12       1.0  0.09640  0.69260  0.46960  1.0000 -0.207228907
C   C13       1.0  0.69260  0.09640  0.53040  1.0000 -0.207228907
C   C14       1.0  0.30740  0.90360  0.03040  1.0000 -0.207228907
C   C15       1.0  0.59640  0.80740  0.28040  1.0000 -0.207228907
C   C16       1.0  0.40360  0.19260  0.78040  1.0000 -0.207228907
C   C17       1.0  0.81630  0.64360  0.77250  1.0000 0.110218842
C   C18       1.0  0.18370  0.35640  0.27250  1.0000 0.110218842
C   C19       1.0  0.85640  0.31630  0.02250  1.0000 0.110218842
C   C20       1.0  0.14360  0.68370  0.52250  1.0000 0.110218842
C   C21       1.0  0.68370  0.14360  0.47750  1.0000 0.110218842
C   C22       1.0  0.31630  0.85640  0.97750  1.0000 0.110218842
C   C23       1.0  0.64360  0.81630  0.22750  1.0000 0.110218842
C   C24       1.0  0.35640  0.18370  0.72750  1.0000 0.110218842
C   C25       1.0  0.75850  0.62780  0.81930  1.0000 -0.1967465739
C   C26       1.0  0.24150  0.37220  0.31930  1.0000 -0.1967465739
C   C27       1.0  0.87220  0.25850  0.06930  1.0000 -0.1967465739
C   C28       1.0  0.12780  0.74150  0.56930  1.0000 -0.1967465739
C   C29       1.0  0.74150  0.12780  0.43070  1.0000 -0.1967465739
C   C30       1.0  0.25850  0.87220  0.93070  1.0000 -0.1967465739
C   C31       1.0  0.62780  0.75850  0.18070  1.0000 -0.1967465739
C   C32       1.0  0.37220  0.24150  0.68070  1.0000 -0.1967465739
C   C33       1.0  0.69590  0.56950  0.81060  1.0000 0.0621272967
C   C34       1.0  0.30410  0.43050  0.31060  1.0000 0.0621272967
C   C35       1.0  0.93050  0.19590  0.06060  1.0000 0.0621272967
C   C36       1.0  0.06950  0.80410  0.56060  1.0000 0.0621272967
C   C37       1.0  0.80410  0.06950  0.43940  1.0000 0.0621272967
C   C38       1.0  0.19590  0.93050  0.93940  1.0000 0.0621272967
C   C39       1.0  0.56950  0.69590  0.18940  1.0000 0.0621272967
C   C40       1.0  0.43050  0.30410  0.68940  1.0000 0.0621272967
C   C41       1.0  0.88160  0.71050  0.77800  1.0000 0.0696862889
C   C42       1.0  0.11840  0.28950  0.27800  1.0000 0.0696862889
C   C43       1.0  0.78950  0.38160  0.02800  1.0000 0.0696862889
C   C44       1.0  0.21050  0.61840  0.52800  1.0000 0.0696862889
C   C45       1.0  0.61840  0.21050  0.47200  1.0000 0.0696862889
C   C46       1.0  0.38160  0.78950  0.97200  1.0000 0.0696862889
C   C47       1.0  0.71050  0.88160  0.22200  1.0000 0.0696862889
C   C48       1.0  0.28950  0.11840  0.72200  1.0000 0.0696862889
C   C49       1.0  0.95370  0.71030  0.74120  1.0000 -0.1609580061
C   C50       1.0  0.04630  0.28970  0.24120  1.0000 -0.1609580061
C   C51       1.0  0.78970  0.45370  0.99120  1.0000 -0.1609580061
C   C52       1.0  0.21030  0.54630  0.49120  1.0000 -0.1609580061
C   C53       1.0  0.54630  0.21030  0.50880  1.0000 -0.1609580061
C   C54       1.0  0.45370  0.78970  0.00880  1.0000 -0.1609580061
C   C55       1.0  0.71030  0.95370  0.25880  1.0000 -0.1609580061
C   C56       1.0  0.28970  0.04630  0.75880  1.0000 -0.1609580061
C   C57       1.0  0.01360  0.77240  0.74620  1.0000 -0.1068181536
C   C58       1.0  0.98640  0.22760  0.24620  1.0000 -0.1068181536
C   C59       1.0  0.72760  0.51360  0.99620  1.0000 -0.1068181536
C   C60       1.0  0.27240  0.48640  0.49620  1.0000 -0.1068181536
C   C61       1.0  0.48640  0.27240  0.50380  1.0000 -0.1068181536
C   C62       1.0  0.51360  0.72760  0.00380  1.0000 -0.1068181536
C   C63       1.0  0.77240  0.01360  0.25380  1.0000 -0.1068181536
C   C64       1.0  0.22760  0.98640  0.75380  1.0000 -0.1068181536
C   C65       1.0  0.00300  0.83820  0.78740  1.0000 -0.1609580061
C   C66       1.0  0.99700  0.16180  0.28740  1.0000 -0.1609580061
C   C67       1.0  0.66180  0.50300  0.03740  1.0000 -0.1609580061
C   C68       1.0  0.33820  0.49700  0.53740  1.0000 -0.1609580061
C   C69       1.0  0.49700  0.33820  0.46260  1.0000 -0.1609580061
C   C70       1.0  0.50300  0.66180  0.96260  1.0000 -0.1609580061
C   C71       1.0  0.83820  0.00300  0.21260  1.0000 -0.1609580061
C   C72       1.0  0.16180  0.99700  0.71260  1.0000 -0.1609580061
C   C73       1.0  0.93060  0.84000  0.82380  1.0000 0.0392736224
C   C74       1.0  0.06940  0.16000  0.32380  1.0000 0.0392736224
C   C75       1.0  0.66000  0.43060  0.07380  1.0000 0.0392736224
C   C76       1.0  0.34000  0.56940  0.57380  1.0000 0.0392736224
C   C77       1.0  0.56940  0.34000  0.42620  1.0000 0.0392736224
C   C78       1.0  0.43060  0.66000  0.92620  1.0000 0.0392736224
C   C79       1.0  0.84000  0.93060  0.17620  1.0000 0.0392736224
C   C80       1.0  0.16000  0.06940  0.67620  1.0000 0.0392736224
C   C81       1.0  0.87210  0.77670  0.81950  1.0000 -0.1939770589
C   C82       1.0  0.12790  0.22330  0.31950  1.0000 -0.1939770589
C   C83       1.0  0.72330  0.37210  0.06950  1.0000 -0.1939770589
C   C84       1.0  0.27670  0.62790  0.56950  1.0000 -0.1939770589
C   C85       1.0  0.62790  0.27670  0.43050  1.0000 -0.1939770589
C   C86       1.0  0.37210  0.72330  0.93050  1.0000 -0.1939770589
C   C87       1.0  0.77670  0.87210  0.18050  1.0000 -0.1939770589
C   C88       1.0  0.22330  0.12790  0.68050  1.0000 -0.1939770589
C   C89       1.0  0.92290  0.91000  0.86820  1.0000 0.1748924711
C   C90       1.0  0.07710  0.09000  0.36820  1.0000 0.1748924711
C   C91       1.0  0.59000  0.42290  0.11820  1.0000 0.1748924711
C   C92       1.0  0.41000  0.57710  0.61820  1.0000 0.1748924711
C   C93       1.0  0.57710  0.41000  0.38180  1.0000 0.1748924711
C   C94       1.0  0.42290  0.59000  0.88180  1.0000 0.1748924711
C   C95       1.0  0.91000  0.92290  0.13180  1.0000 0.1748924711
C   C96       1.0  0.09000  0.07710  0.63180  1.0000 0.1748924711
C   C97       1.0  0.87160  0.00460  0.93040  1.0000 0.1489101061
C   C98       1.0  0.12840  0.99540  0.43040  1.0000 0.1489101061
C   C99       1.0  0.49540  0.37160  0.18040  1.0000 0.1489101061
C   C100      1.0  0.50460  0.62840  0.68040  1.0000 0.1489101061
C   C101      1.0  0.62840  0.50460  0.31960  1.0000 0.1489101061
C   C102      1.0  0.37160  0.49540  0.81960  1.0000 0.1489101061
C   C103      1.0  0.00460  0.87160  0.06960  1.0000 0.1489101061
C   C104      1.0  0.99540  0.12840  0.56960  1.0000 0.1489101061
C   C105      1.0  0.80980  0.06050  0.96070  1.0000 0.0294560433
C   C106      1.0  0.19020  0.93950  0.46070  1.0000 0.0294560433
C   C107      1.0  0.43950  0.30980  0.21070  1.0000 0.0294560433
C   C108      1.0  0.56050  0.69020  0.71070  1.0000 0.0294560433
C   C109      1.0  0.69020  0.56050  0.28930  1.0000 0.0294560433
C   C110      1.0  0.30980  0.43950  0.78930  1.0000 0.0294560433
C   C111      1.0  0.06050  0.80980  0.03930  1.0000 0.0294560433
C   C112      1.0  0.93950  0.19020  0.53930  1.0000 0.0294560433
C   C113      1.0  0.77860  0.04290  0.01860  1.0000 -0.1609580061
C   C114      1.0  0.22140  0.95710  0.51860  1.0000 -0.1609580061
C   C115      1.0  0.45710  0.27860  0.26860  1.0000 -0.1609580061
C   C116      1.0  0.54290  0.72140  0.76860  1.0000 -0.1609580061
C   C117      1.0  0.72140  0.54290  0.23140  1.0000 -0.1609580061
C   C118      1.0  0.27860  0.45710  0.73140  1.0000 -0.1609580061
C   C119      1.0  0.04290  0.77860  0.98140  1.0000 -0.1609580061
C   C120      1.0  0.95710  0.22140  0.48140  1.0000 -0.1609580061
C   C121      1.0  0.71840  0.09690  0.04410  1.0000 -0.1046020697
C   C122      1.0  0.28160  0.90310  0.54410  1.0000 -0.1046020697
C   C123      1.0  0.40310  0.21840  0.29410  1.0000 -0.1046020697
C   C124      1.0  0.59690  0.78160  0.79410  1.0000 -0.1046020697
C   C125      1.0  0.78160  0.59690  0.20590  1.0000 -0.1046020697
C   C126      1.0  0.21840  0.40310  0.70590  1.0000 -0.1046020697
C   C127      1.0  0.09690  0.71840  0.95590  1.0000 -0.1046020697
C   C128      1.0  0.90310  0.28160  0.45590  1.0000 -0.1046020697
C   C129      1.0  0.68920  0.16510  0.01170  1.0000 -0.1675900864
C   C130      1.0  0.31080  0.83490  0.51170  1.0000 -0.1675900864
C   C131      1.0  0.33490  0.18920  0.26170  1.0000 -0.1675900864
C   C132      1.0  0.66510  0.81080  0.76170  1.0000 -0.1675900864
C   C133      1.0  0.81080  0.66510  0.23830  1.0000 -0.1675900864
C   C134      1.0  0.18920  0.33490  0.73830  1.0000 -0.1675900864
C   C135      1.0  0.16510  0.68920  0.98830  1.0000 -0.1675900864
C   C136      1.0  0.83490  0.31080  0.48830  1.0000 -0.1675900864
C   C137      1.0  0.71970  0.18290  0.95260  1.0000 0.0696862889
C   C138      1.0  0.28030  0.81710  0.45260  1.0000 0.0696862889
C   C139      1.0  0.31710  0.21970  0.20260  1.0000 0.0696862889
C   C140      1.0  0.68290  0.78030  0.70260  1.0000 0.0696862889
C   C141      1.0  0.78030  0.68290  0.29740  1.0000 0.0696862889
C   C142      1.0  0.21970  0.31710  0.79740  1.0000 0.0696862889
C   C143      1.0  0.18290  0.71970  0.04740  1.0000 0.0696862889
C   C144      1.0  0.81710  0.28030  0.54740  1.0000 0.0696862889
C   C145      1.0  0.78030  0.12940  0.92810  1.0000 -0.207228907
C   C146      1.0  0.21970  0.87060  0.42810  1.0000 -0.207228907
C   C147      1.0  0.37060  0.28030  0.17810  1.0000 -0.207228907
C   C148      1.0  0.62940  0.71970  0.67810  1.0000 -0.207228907
C   C149      1.0  0.71970  0.62940  0.32190  1.0000 -0.207228907
C   C150      1.0  0.28030  0.37060  0.82190  1.0000 -0.207228907
C   C151      1.0  0.12940  0.78030  0.07190  1.0000 -0.207228907
C   C152      1.0  0.87060  0.21970  0.57190  1.0000 -0.207228907
C   C153      1.0  0.68870  0.25510  0.91570  1.0000 0.110218842
C   C154      1.0  0.31130  0.74490  0.41570  1.0000 0.110218842
C   C155      1.0  0.24490  0.18870  0.16570  1.0000 0.110218842
C   C156      1.0  0.75510  0.81130  0.66570  1.0000 0.110218842
C   C157      1.0  0.81130  0.75510  0.33430  1.0000 0.110218842
C   C158      1.0  0.18870  0.24490  0.83430  1.0000 0.110218842
C   C159      1.0  0.25510  0.68870  0.08430  1.0000 0.110218842
C   C160      1.0  0.74490  0.31130  0.58430  1.0000 0.110218842
C   C161      1.0  0.61500  0.29860  0.92940  1.0000 -0.207228907
C   C162      1.0  0.38500  0.70140  0.42940  1.0000 -0.207228907
C   C163      1.0  0.20140  0.11500  0.17940  1.0000 -0.207228907
C   C164      1.0  0.79860  0.88500  0.67940  1.0000 -0.207228907
C   C165      1.0  0.88500  0.79860  0.32060  1.0000 -0.207228907
C   C166      1.0  0.11500  0.20140  0.82060  1.0000 -0.207228907
C   C167      1.0  0.29860  0.61500  0.07060  1.0000 -0.207228907
C   C168      1.0  0.70140  0.38500  0.57060  1.0000 -0.207228907
C   C169      1.0  0.58620  0.36090  0.89020  1.0000 0.0534680168
C   C170      1.0  0.41380  0.63910  0.39020  1.0000 0.0534680168
C   C171      1.0  0.13910  0.08620  0.14020  1.0000 0.0534680168
C   C172      1.0  0.86090  0.91380  0.64020  1.0000 0.0534680168
C   C173      1.0  0.91380  0.86090  0.35980  1.0000 0.0534680168
C   C174      1.0  0.08620  0.13910  0.85980  1.0000 0.0534680168
C   C175      1.0  0.36090  0.58620  0.10980  1.0000 0.0534680168
C   C176      1.0  0.63910  0.41380  0.60980  1.0000 0.0534680168
C   C177      1.0  0.69890  0.34330  0.82640  1.0000 0.0294560433
C   C178      1.0  0.30110  0.65670  0.32640  1.0000 0.0294560433
C   C179      1.0  0.15670  0.19890  0.07640  1.0000 0.0294560433
C   C180      1.0  0.84330  0.80110  0.57640  1.0000 0.0294560433
C   C181      1.0  0.80110  0.84330  0.42360  1.0000 0.0294560433
C   C182      1.0  0.19890  0.15670  0.92360  1.0000 0.0294560433
C   C183      1.0  0.34330  0.69890  0.17360  1.0000 0.0294560433
C   C184      1.0  0.65670  0.30110  0.67360  1.0000 0.0294560433
C   C185      1.0  0.73260  0.28350  0.86380  1.0000 -0.207228907
C   C186      1.0  0.26740  0.71650  0.36380  1.0000 -0.207228907
C   C187      1.0  0.21650  0.23260  0.11380  1.0000 -0.207228907
C   C188      1.0  0.78350  0.76740  0.61380  1.0000 -0.207228907
C   C189      1.0  0.76740  0.78350  0.38620  1.0000 -0.207228907
C   C190      1.0  0.23260  0.21650  0.88620  1.0000 -0.207228907
C   C191      1.0  0.28350  0.73260  0.13620  1.0000 -0.207228907
C   C192      1.0  0.71650  0.26740  0.63620  1.0000 -0.207228907
N   N1        1.0  0.68550  0.52610  0.75870  1.0000 -0.2312906544
N   N2        1.0  0.31450  0.47390  0.25870  1.0000 -0.2312906544
N   N3        1.0  0.97390  0.18550  0.00870  1.0000 -0.2312906544
N   N4        1.0  0.02610  0.81450  0.50870  1.0000 -0.2312906544
N   N5        1.0  0.81450  0.02610  0.49130  1.0000 -0.2312906544
N   N6        1.0  0.18550  0.97390  0.99130  1.0000 -0.2312906544
N   N7        1.0  0.52610  0.68550  0.24130  1.0000 -0.2312906544
N   N8        1.0  0.47390  0.31450  0.74130  1.0000 -0.2312906544
N   N9        1.0  0.98660  0.94540  0.89620  1.0000 -0.2766067098
N   N10       1.0  0.01340  0.05460  0.39620  1.0000 -0.2766067098
N   N11       1.0  0.55460  0.48660  0.14620  1.0000 -0.2766067098
N   N12       1.0  0.44540  0.51340  0.64620  1.0000 -0.2766067098
N   N13       1.0  0.51340  0.44540  0.35380  1.0000 -0.2766067098
N   N14       1.0  0.48660  0.55460  0.85380  1.0000 -0.2766067098
N   N15       1.0  0.94540  0.98660  0.10380  1.0000 -0.2766067098
N   N16       1.0  0.05460  0.01340  0.60380  1.0000 -0.2766067098
N   N17       1.0  0.95460  0.00590  0.93490  1.0000 -0.2312906544
N   N18       1.0  0.04540  0.99410  0.43490  1.0000 -0.2312906544
N   N19       1.0  0.49410  0.45460  0.18490  1.0000 -0.2312906544
N   N20       1.0  0.50590  0.54540  0.68490  1.0000 -0.2312906544
N   N21       1.0  0.54540  0.50590  0.31510  1.0000 -0.2312906544
N   N22       1.0  0.45460  0.49410  0.81510  1.0000 -0.2312906544
N   N23       1.0  0.00590  0.95460  0.06510  1.0000 -0.2312906544
N   N24       1.0  0.99410  0.04540  0.56510  1.0000 -0.2312906544
N   N25       1.0  0.85020  0.94520  0.88810  1.0000 0.0534680168
N   N26       1.0  0.14980  0.05480  0.38810  1.0000 0.0534680168
N   N27       1.0  0.55480  0.35020  0.13810  1.0000 0.0534680168
N   N28       1.0  0.44520  0.64980  0.63810  1.0000 0.0534680168
N   N29       1.0  0.64980  0.44520  0.36190  1.0000 0.0534680168
N   N30       1.0  0.35020  0.55480  0.86190  1.0000 0.0534680168
N   N31       1.0  0.94520  0.85020  0.11190  1.0000 0.0534680168
N   N32       1.0  0.05480  0.14980  0.61190  1.0000 0.0534680168
N   N33       1.0  0.76850  0.92830  0.86670  1.0000 -0.506671385
N   N34       1.0  0.23150  0.07170  0.36670  1.0000 -0.506671385
N   N35       1.0  0.57170  0.26850  0.11670  1.0000 -0.506671385
N   N36       1.0  0.42830  0.73150  0.61670  1.0000 -0.506671385
N   N37       1.0  0.73150  0.42830  0.38330  1.0000 -0.506671385
N   N38       1.0  0.26850  0.57170  0.88330  1.0000 -0.506671385
N   N39       1.0  0.92830  0.76850  0.13330  1.0000 -0.506671385
N   N40       1.0  0.07170  0.23150  0.63330  1.0000 -0.506671385
N   N41       1.0  0.62420  0.38100  0.83700  1.0000 -0.2416885356
N   N42       1.0  0.37580  0.61900  0.33700  1.0000 -0.2416885356
N   N43       1.0  0.11900  0.12420  0.08700  1.0000 -0.2416885356
N   N44       1.0  0.88100  0.87580  0.58700  1.0000 -0.2416885356
N   N45       1.0  0.87580  0.88100  0.41300  1.0000 -0.2416885356
N   N46       1.0  0.12420  0.11900  0.91300  1.0000 -0.2416885356
N   N47       1.0  0.38100  0.62420  0.16300  1.0000 -0.2416885356
N   N48       1.0  0.61900  0.37580  0.66300  1.0000 -0.2416885356
