# DDEC6 charges by PACMAN v1.1 (https://github.com/mtap-research/PACMAN-charge/)
data_2012[Fe][nan]3[ASR]1
_chemical_formula_sum              "Fe6 H12 C24 O30"
_cell_length_a       15.161
_cell_length_b       15.161
_cell_length_c       15.161
_cell_angle_alpha    117.781
_cell_angle_beta     117.781
_cell_angle_gamma    117.781

_symmetry_space_group_name_H-M    "P 1"
_symmetry_Int_Tables_number       1

loop_
  _symmetry_equiv_pos_as_xyz
  'x, y, z'

loop_
  _atom_site_type_symbol
  _atom_site_label
  _atom_site_symmetry_multiplicity
  _atom_site_fract_x
  _atom_site_fract_y
  _atom_site_fract_z
  _atom_site_occupancy
  _atom_site_charge
Fe  Fe1       1.0  0.10210  0.51620  0.78730  1.0000 0.9323215353
Fe  Fe2       1.0  0.51620  0.78730  0.10210  1.0000 0.9323215353
Fe  Fe3       1.0  0.78730  0.10210  0.51620  1.0000 0.9323215353
Fe  Fe4       1.0  0.89790  0.48380  0.21270  1.0000 0.9323215353
Fe  Fe5       1.0  0.48380  0.21270  0.89790  1.0000 0.9323215353
Fe  Fe6       1.0  0.21270  0.89790  0.48380  1.0000 0.9323215353
H   H1        1.0  0.15140  0.74800  0.93760  1.0000 0.3457489478
H   H2        1.0  0.74800  0.93760  0.15140  1.0000 0.3457489478
H   H3        1.0  0.93760  0.15140  0.74800  1.0000 0.3457489478
H   H4        1.0  0.84860  0.25200  0.06240  1.0000 0.3457489478
H   H5        1.0  0.25200  0.06240  0.84860  1.0000 0.3457489478
H   H6        1.0  0.06240  0.84860  0.25200  1.0000 0.3457489478
H   H7        1.0  0.34610  0.80570  0.36560  1.0000 0.156778695
H   H8        1.0  0.80570  0.36560  0.34610  1.0000 0.156778695
H   H9        1.0  0.36560  0.34610  0.80570  1.0000 0.156778695
H   H10       1.0  0.65390  0.19430  0.63440  1.0000 0.156778695
H   H11       1.0  0.19430  0.63440  0.65390  1.0000 0.156778695
H   H12       1.0  0.63440  0.65390  0.19430  1.0000 0.156778695
C   C1        1.0  0.34110  0.72310  0.16190  1.0000 0.5015008914
C   C2        1.0  0.72310  0.16190  0.34110  1.0000 0.5015008914
C   C3        1.0  0.16190  0.34110  0.72310  1.0000 0.5015008914
C   C4        1.0  0.65890  0.27690  0.83810  1.0000 0.5015008914
C   C5        1.0  0.27690  0.83810  0.65890  1.0000 0.5015008914
C   C6        1.0  0.83810  0.65890  0.27690  1.0000 0.5015008914
C   C7        1.0  0.16810  0.62170  0.07780  1.0000 -0.1264392468
C   C8        1.0  0.62170  0.07780  0.16810  1.0000 -0.1264392468
C   C9        1.0  0.07780  0.16810  0.62170  1.0000 -0.1264392468
C   C10       1.0  0.83190  0.37830  0.92220  1.0000 -0.1264392468
C   C11       1.0  0.37830  0.92220  0.83190  1.0000 -0.1264392468
C   C12       1.0  0.92220  0.83190  0.37830  1.0000 -0.1264392468
C   C13       1.0  0.96230  0.42750  0.85950  1.0000 0.3564450262
C   C14       1.0  0.42750  0.85950  0.96230  1.0000 0.3564450262
C   C15       1.0  0.85950  0.96230  0.42750  1.0000 0.3564450262
C   C16       1.0  0.03770  0.57250  0.14050  1.0000 0.3564450262
C   C17       1.0  0.57250  0.14050  0.03770  1.0000 0.3564450262
C   C18       1.0  0.14050  0.03770  0.57250  1.0000 0.3564450262
C   C19       1.0  0.18890  0.66190  0.19290  1.0000 -0.1525117141
C   C20       1.0  0.66190  0.19290  0.18890  1.0000 -0.1525117141
C   C21       1.0  0.19290  0.18890  0.66190  1.0000 -0.1525117141
C   C22       1.0  0.81110  0.33810  0.80710  1.0000 -0.1525117141
C   C23       1.0  0.33810  0.80710  0.81110  1.0000 -0.1525117141
C   C24       1.0  0.80710  0.81110  0.33810  1.0000 -0.1525117141
O   O1        1.0  0.32150  0.67710  0.04990  1.0000 -0.5538665187
O   O2        1.0  0.67710  0.04990  0.32150  1.0000 -0.5538665187
O   O3        1.0  0.04990  0.32150  0.67710  1.0000 -0.5538665187
O   O4        1.0  0.67850  0.32290  0.95010  1.0000 -0.5538665187
O   O5        1.0  0.32290  0.95010  0.67850  1.0000 -0.5538665187
O   O6        1.0  0.95010  0.67850  0.32290  1.0000 -0.5538665187
O   O7        1.0  0.51960  0.90570  0.38220  1.0000 -0.4482601267
O   O8        1.0  0.90570  0.38220  0.51960  1.0000 -0.4435755072
O   O9        1.0  0.38220  0.51960  0.90570  1.0000 -0.4482601267
O   O10       1.0  0.48040  0.09430  0.61780  1.0000 -0.4435755072
O   O11       1.0  0.09430  0.61780  0.48040  1.0000 -0.4435755072
O   O12       1.0  0.61780  0.48040  0.09430  1.0000 -0.4435755072
O   O13       1.0  0.92030  0.35460  0.72930  1.0000 -0.5303464862
O   O14       1.0  0.35460  0.72930  0.92030  1.0000 -0.5303464862
O   O15       1.0  0.72930  0.92030  0.35460  1.0000 -0.5303464862
O   O16       1.0  0.07970  0.64540  0.27070  1.0000 -0.5303464862
O   O17       1.0  0.64540  0.27070  0.07970  1.0000 -0.5303464862
O   O18       1.0  0.27070  0.07970  0.64540  1.0000 -0.5303464862
O   O19       1.0  0.19120  0.74950  0.89630  1.0000 -0.3699148354
O   O20       1.0  0.74950  0.89630  0.19120  1.0000 -0.3699148354
O   O21       1.0  0.89630  0.19120  0.74950  1.0000 -0.3639492524
O   O22       1.0  0.80880  0.25050  0.10370  1.0000 -0.3699148354
O   O23       1.0  0.25050  0.10370  0.80880  1.0000 -0.3699148354
O   O24       1.0  0.10370  0.80880  0.25050  1.0000 -0.3639492524
O   O25       1.0  0.95300  0.54900  0.67800  1.0000 -0.1165677751
O   O26       1.0  0.54900  0.67800  0.95300  1.0000 -0.1165677751
O   O27       1.0  0.67800  0.95300  0.54900  1.0000 -0.1165677751
O   O28       1.0  0.04700  0.45100  0.32200  1.0000 -0.1165677751
O   O29       1.0  0.45100  0.32200  0.04700  1.0000 -0.1165677751
O   O30       1.0  0.32200  0.04700  0.45100  1.0000 -0.1165677751
