# DDEC6 charges by PACMAN v1.1 (https://github.com/mtap-research/PACMAN-charge/)
data_2012[Co][pcu]3[ASR]11
_chemical_formula_sum              "Co4 H52 C60 N8 O16"
_cell_length_a       8.276
_cell_length_b       14.75
_cell_length_c       14.36
_cell_angle_alpha    90
_cell_angle_beta     99.746
_cell_angle_gamma    90

_symmetry_space_group_name_H-M    "P 1"
_symmetry_Int_Tables_number       1

loop_
  _symmetry_equiv_pos_as_xyz
  'x, y, z'

loop_
  _atom_site_type_symbol
  _atom_site_label
  _atom_site_symmetry_multiplicity
  _atom_site_fract_x
  _atom_site_fract_y
  _atom_site_fract_z
  _atom_site_occupancy
  _atom_site_charge
Co  Co1       1.0  0.90725  0.08239  0.12009  1.0000 0.8521848333
Co  Co2       1.0  0.59275  0.58239  0.87991  1.0000 0.8521848333
Co  Co3       1.0  0.09275  0.91761  0.87991  1.0000 0.8521848333
Co  Co4       1.0  0.40725  0.41761  0.12009  1.0000 0.8521848333
H   H1        1.0  0.49340  0.30180  0.83950  1.0000 0.1218806205
H   H2        1.0  0.00660  0.80180  0.16050  1.0000 0.1218806205
H   H3        1.0  0.50660  0.69820  0.16050  1.0000 0.1218806205
H   H4        1.0  0.99340  0.19820  0.83950  1.0000 0.1218806205
H   H5        1.0  0.65250  0.05650  0.92490  1.0000 0.1274639119
H   H6        1.0  0.84750  0.55650  0.07510  1.0000 0.1274639119
H   H7        1.0  0.34750  0.94350  0.07510  1.0000 0.1274639119
H   H8        1.0  0.15250  0.44350  0.92490  1.0000 0.1274639119
H   H9        1.0  0.50390  0.07570  0.76490  1.0000 0.1022500557
H   H10       1.0  0.99610  0.57570  0.23510  1.0000 0.1022500557
H   H11       1.0  0.49610  0.92430  0.23510  1.0000 0.1022500557
H   H12       1.0  0.00390  0.42430  0.76490  1.0000 0.1022500557
H   H13       1.0  0.34890  0.11210  0.80180  1.0000 0.1097557772
H   H14       1.0  0.15110  0.61210  0.19820  1.0000 0.1097557772
H   H15       1.0  0.65110  0.88790  0.19820  1.0000 0.1097557772
H   H16       1.0  0.84890  0.38790  0.80180  1.0000 0.1097557772
H   H17       1.0  0.35220  0.23810  0.71430  1.0000 0.1097557772
H   H18       1.0  0.14780  0.73810  0.28570  1.0000 0.1097557772
H   H19       1.0  0.64780  0.76190  0.28570  1.0000 0.1097557772
H   H20       1.0  0.85220  0.26190  0.71430  1.0000 0.1097557772
H   H21       1.0  0.34490  0.15140  0.65050  1.0000 0.1097557772
H   H22       1.0  0.15510  0.65140  0.34950  1.0000 0.1097557772
H   H23       1.0  0.65510  0.84860  0.34950  1.0000 0.1097557772
H   H24       1.0  0.84490  0.34860  0.65050  1.0000 0.1097557772
H   H25       1.0  0.51060  0.20390  0.67890  1.0000 0.1097557772
H   H26       1.0  0.98940  0.70390  0.32110  1.0000 0.1097557772
H   H27       1.0  0.48940  0.79610  0.32110  1.0000 0.1097557772
H   H28       1.0  0.01060  0.29610  0.67890  1.0000 0.1097557772
H   H29       1.0  0.25230  0.10630  0.21010  1.0000 0.1218806205
H   H30       1.0  0.24770  0.60630  0.78990  1.0000 0.1218806205
H   H31       1.0  0.74770  0.89370  0.78990  1.0000 0.1218806205
H   H32       1.0  0.75230  0.39370  0.21010  1.0000 0.1218806205
H   H33       1.0  0.44050  0.07670  0.34090  1.0000 0.1391358536
H   H34       1.0  0.05950  0.57670  0.65910  1.0000 0.1391358536
H   H35       1.0  0.55950  0.92330  0.65910  1.0000 0.1391358536
H   H36       1.0  0.94050  0.42330  0.34090  1.0000 0.1391358536
H   H37       1.0  0.10980  0.92610  0.43760  1.0000 0.1391358536
H   H38       1.0  0.39020  0.42610  0.56240  1.0000 0.1391358536
H   H39       1.0  0.89020  0.07390  0.56240  1.0000 0.1391358536
H   H40       1.0  0.60980  0.57390  0.43760  1.0000 0.1391358536
H   H41       1.0  0.92610  0.96190  0.30680  1.0000 0.1097557772
H   H42       1.0  0.57390  0.46190  0.69320  1.0000 0.1097557772
H   H43       1.0  0.07390  0.03810  0.69320  1.0000 0.1097557772
H   H44       1.0  0.42610  0.53810  0.30680  1.0000 0.1097557772
H   H45       1.0  0.36900  0.99960  0.55150  1.0000 0.1218806205
H   H46       1.0  0.13100  0.49960  0.44850  1.0000 0.1218806205
H   H47       1.0  0.63100  0.00040  0.44850  1.0000 0.1218806205
H   H48       1.0  0.86900  0.50040  0.55150  1.0000 0.1218806205
H   H49       1.0  0.42910  0.91330  0.50350  1.0000 0.1218806205
H   H50       1.0  0.07090  0.41330  0.49650  1.0000 0.1218806205
H   H51       1.0  0.57090  0.08670  0.49650  1.0000 0.1218806205
H   H52       1.0  0.92910  0.58670  0.50350  1.0000 0.1218806205
C   C1        1.0  0.76440  0.24490  0.01920  1.0000 0.060810813
C   C2        1.0  0.73560  0.74490  0.98080  1.0000 0.060810813
C   C3        1.0  0.23560  0.75510  0.98080  1.0000 0.060810813
C   C4        1.0  0.26440  0.25510  0.01920  1.0000 0.060810813
C   C5        1.0  0.66340  0.30260  0.95950  1.0000 -0.0470385912
C   C6        1.0  0.83660  0.80260  0.04050  1.0000 -0.0470385912
C   C7        1.0  0.33660  0.69740  0.04050  1.0000 -0.0470385912
C   C8        1.0  0.16340  0.19740  0.95950  1.0000 -0.0470385912
C   C9        1.0  0.56110  0.26440  0.88140  1.0000 -0.1416246953
C   C10       1.0  0.93890  0.76440  0.11860  1.0000 -0.1416246953
C   C11       1.0  0.43890  0.73560  0.11860  1.0000 -0.1416246953
C   C12       1.0  0.06110  0.23560  0.88140  1.0000 -0.1416246953
C   C13       1.0  0.55990  0.17310  0.86610  1.0000 0.0883100305
C   C14       1.0  0.94010  0.67310  0.13390  1.0000 0.0883100305
C   C15       1.0  0.44010  0.82690  0.13390  1.0000 0.0883100305
C   C16       1.0  0.05990  0.32690  0.86610  1.0000 0.0883100305
C   C17       1.0  0.65850  0.11910  0.93220  1.0000 0.0430133001
C   C18       1.0  0.84150  0.61910  0.06780  1.0000 0.0430133001
C   C19       1.0  0.34150  0.88090  0.06780  1.0000 0.0430133001
C   C20       1.0  0.15850  0.38090  0.93220  1.0000 0.0430133001
C   C21       1.0  0.89720  0.27720  0.09850  1.0000 0.5321011704
C   C22       1.0  0.60280  0.77720  0.90150  1.0000 0.5321011704
C   C23       1.0  0.10280  0.72280  0.90150  1.0000 0.5321011704
C   C24       1.0  0.39720  0.22280  0.09850  1.0000 0.5321011704
C   C25       1.0  0.64840  0.40420  0.97590  1.0000 0.59234281
C   C26       1.0  0.85160  0.90420  0.02410  1.0000 0.59234281
C   C27       1.0  0.35160  0.59580  0.02410  1.0000 0.59234281
C   C28       1.0  0.14840  0.09580  0.97590  1.0000 0.59234281
C   C29       1.0  0.45060  0.13030  0.78210  1.0000 -0.1718148801
C   C30       1.0  0.04940  0.63030  0.21790  1.0000 -0.1718148801
C   C31       1.0  0.54940  0.86970  0.21790  1.0000 -0.1718148801
C   C32       1.0  0.95060  0.36970  0.78210  1.0000 -0.1718148801
C   C33       1.0  0.41140  0.18540  0.69970  1.0000 -0.3701190192
C   C34       1.0  0.08860  0.68540  0.30030  1.0000 -0.3701190192
C   C35       1.0  0.58860  0.81460  0.30030  1.0000 -0.3701190192
C   C36       1.0  0.91140  0.31460  0.69970  1.0000 -0.3701190192
C   C37       1.0  0.22180  0.06970  0.25700  1.0000 0.1022500557
C   C38       1.0  0.27820  0.56970  0.74300  1.0000 0.1022500557
C   C39       1.0  0.77820  0.93030  0.74300  1.0000 0.1022500557
C   C40       1.0  0.72180  0.43030  0.25700  1.0000 0.1022500557
C   C41       1.0  0.33580  0.05230  0.33610  1.0000 -0.1957447368
C   C42       1.0  0.16420  0.55230  0.66390  1.0000 -0.1957447368
C   C43       1.0  0.66420  0.94770  0.66390  1.0000 -0.1957447368
C   C44       1.0  0.83580  0.44770  0.33610  1.0000 -0.1957447368
C   C45       1.0  0.29960  0.00100  0.40660  1.0000 0.1555348497
C   C46       1.0  0.20040  0.50100  0.59340  1.0000 0.1555348497
C   C47       1.0  0.70040  0.99900  0.59340  1.0000 0.1555348497
C   C48       1.0  0.79960  0.49900  0.40660  1.0000 0.1555348497
C   C49       1.0  0.14090  0.96460  0.39240  1.0000 -0.2310532096
C   C50       1.0  0.35910  0.46460  0.60760  1.0000 -0.2310532096
C   C51       1.0  0.85910  0.03540  0.60760  1.0000 -0.2310532096
C   C52       1.0  0.64090  0.53540  0.39240  1.0000 -0.2310532096
C   C53       1.0  0.03190  0.98520  0.31300  1.0000 0.060810813
C   C54       1.0  0.46810  0.48520  0.68700  1.0000 0.060810813
C   C55       1.0  0.96810  0.01480  0.68700  1.0000 0.060810813
C   C56       1.0  0.53190  0.51480  0.31300  1.0000 0.060810813
C   C57       1.0  0.41650  0.97860  0.49810  1.0000 -0.2399600546
C   C58       1.0  0.08350  0.47860  0.50190  1.0000 -0.2399600546
C   C59       1.0  0.58350  0.02140  0.50190  1.0000 -0.2399600546
C   C60       1.0  0.91650  0.52140  0.49810  1.0000 -0.2399600546
N   N1        1.0  0.76230  0.15320  0.00640  1.0000 -0.2667222905
N   N2        1.0  0.73770  0.65320  0.99360  1.0000 -0.2667222905
N   N3        1.0  0.23770  0.84680  0.99360  1.0000 -0.2667222905
N   N4        1.0  0.26230  0.34680  0.00640  1.0000 -0.2667222905
N   N5        1.0  0.06980  0.03690  0.24400  1.0000 -0.2310532096
N   N6        1.0  0.43020  0.53690  0.75600  1.0000 -0.2310532096
N   N7        1.0  0.93020  0.96310  0.75600  1.0000 -0.2310532096
N   N8        1.0  0.56980  0.46310  0.24400  1.0000 -0.2310532096
O   O1        1.0  0.95900  0.21710  0.15760  1.0000 -0.5626462835
O   O2        1.0  0.54100  0.71710  0.84240  1.0000 -0.5626462835
O   O3        1.0  0.04100  0.78290  0.84240  1.0000 -0.5626462835
O   O4        1.0  0.45900  0.28290  0.15760  1.0000 -0.5626462835
O   O5        1.0  0.93490  0.35780  0.09980  1.0000 -0.4964232284
O   O6        1.0  0.56510  0.85780  0.90020  1.0000 -0.4964232284
O   O7        1.0  0.06510  0.64220  0.90020  1.0000 -0.4964232284
O   O8        1.0  0.43490  0.14220  0.09980  1.0000 -0.4964232284
O   O9        1.0  0.60660  0.42940  0.05010  1.0000 -0.5340275603
O   O10       1.0  0.89340  0.92940  0.94990  1.0000 -0.5340275603
O   O11       1.0  0.39340  0.57060  0.94990  1.0000 -0.5340275603
O   O12       1.0  0.10660  0.07060  0.05010  1.0000 -0.5340275603
O   O13       1.0  0.67350  0.45240  0.90900  1.0000 -0.5434179592
O   O14       1.0  0.82650  0.95240  0.09100  1.0000 -0.5434179592
O   O15       1.0  0.32650  0.54760  0.09100  1.0000 -0.5434179592
O   O16       1.0  0.17350  0.04760  0.90900  1.0000 -0.5434179592
