# DDEC6 charges by PACMAN v1.1 (https://github.com/mtap-research/PACMAN-charge/)
data_2012[Co][nan]3[ASR]9
_chemical_formula_sum              "Co6 H156 C176 S4 N32 O28"
_cell_length_a       23.3491
_cell_length_b       23.3491
_cell_length_c       19.09
_cell_angle_alpha    80.2899
_cell_angle_beta     99.7101
_cell_angle_gamma    153.953

_symmetry_space_group_name_H-M    "P 1"
_symmetry_Int_Tables_number       1

loop_
  _symmetry_equiv_pos_as_xyz
  'x, y, z'

loop_
  _atom_site_type_symbol
  _atom_site_label
  _atom_site_symmetry_multiplicity
  _atom_site_fract_x
  _atom_site_fract_y
  _atom_site_fract_z
  _atom_site_occupancy
  _atom_site_charge
Co  Co1       1.0  0.01766  0.01766  0.25000  1.0000 0.8158060825
Co  Co2       1.0  0.98234  0.98234  0.75000  1.0000 0.8158060825
Co  Co3       1.0  0.16342  0.44168  0.07267  1.0000 0.84628833
Co  Co4       1.0  0.44168  0.16342  0.42733  1.0000 0.84628833
Co  Co5       1.0  0.83658  0.55832  0.92733  1.0000 0.84628833
Co  Co6       1.0  0.55832  0.83658  0.57267  1.0000 0.84628833
H   H1        1.0  0.41640  0.91860  0.05810  1.0000 0.1014348567
H   H2        1.0  0.91860  0.41640  0.44190  1.0000 0.1014348567
H   H3        1.0  0.58360  0.08140  0.94190  1.0000 0.1014348567
H   H4        1.0  0.08140  0.58360  0.55810  1.0000 0.1014348567
H   H5        1.0  0.50050  0.94330  0.03920  1.0000 0.1096935655
H   H6        1.0  0.94330  0.50050  0.46080  1.0000 0.1096935655
H   H7        1.0  0.49950  0.05670  0.96080  1.0000 0.1096935655
H   H8        1.0  0.05670  0.49950  0.53920  1.0000 0.1096935655
H   H9        1.0  0.97360  0.31220  0.94400  1.0000 0.1096935655
H   H10       1.0  0.31220  0.97360  0.55600  1.0000 0.1096935655
H   H11       1.0  0.02640  0.68780  0.05600  1.0000 0.1096935655
H   H12       1.0  0.68780  0.02640  0.44400  1.0000 0.1096935655
H   H13       1.0  0.96170  0.30030  0.75910  1.0000 0.1204472646
H   H14       1.0  0.30030  0.96170  0.74090  1.0000 0.1204472646
H   H15       1.0  0.03830  0.69970  0.24090  1.0000 0.1204472646
H   H16       1.0  0.69970  0.03830  0.25910  1.0000 0.1204472646
H   H17       1.0  0.87650  0.24230  0.81800  1.0000 0.1204472646
H   H18       1.0  0.24230  0.87650  0.68200  1.0000 0.1204472646
H   H19       1.0  0.12350  0.75770  0.18200  1.0000 0.1204472646
H   H20       1.0  0.75770  0.12350  0.31800  1.0000 0.1204472646
H   H21       1.0  0.88430  0.13550  0.78690  1.0000 0.1096935655
H   H22       1.0  0.13550  0.88430  0.71310  1.0000 0.1014348567
H   H23       1.0  0.11570  0.86450  0.21310  1.0000 0.1096935655
H   H24       1.0  0.86450  0.11570  0.28690  1.0000 0.1096935655
H   H25       1.0  0.76970  0.07650  0.76180  1.0000 0.1096935655
H   H26       1.0  0.07650  0.76970  0.73820  1.0000 0.1096935655
H   H27       1.0  0.23030  0.92350  0.23820  1.0000 0.1096935655
H   H28       1.0  0.92350  0.23030  0.26180  1.0000 0.1096935655
H   H29       1.0  0.29160  0.64820  0.64950  1.0000 0.1307180153
H   H30       1.0  0.64820  0.29160  0.85050  1.0000 0.1307180153
H   H31       1.0  0.70840  0.35180  0.35050  1.0000 0.1307180153
H   H32       1.0  0.35180  0.70840  0.14950  1.0000 0.1307180153
H   H33       1.0  0.17560  0.58400  0.73130  1.0000 0.1096935655
H   H34       1.0  0.58400  0.17560  0.76870  1.0000 0.1096935655
H   H35       1.0  0.82440  0.41600  0.26870  1.0000 0.1096935655
H   H36       1.0  0.41600  0.82440  0.23130  1.0000 0.1096935655
H   H37       1.0  0.24970  0.64270  0.84760  1.0000 0.1014348567
H   H38       1.0  0.64270  0.24970  0.65240  1.0000 0.1014348567
H   H39       1.0  0.75030  0.35730  0.15240  1.0000 0.1014348567
H   H40       1.0  0.35730  0.75030  0.34760  1.0000 0.1014348567
H   H41       1.0  0.43450  0.75530  0.88930  1.0000 0.1307180153
H   H42       1.0  0.75530  0.43450  0.61070  1.0000 0.1307180153
H   H43       1.0  0.56550  0.24470  0.11070  1.0000 0.1307180153
H   H44       1.0  0.24470  0.56550  0.38930  1.0000 0.1307180153
H   H45       1.0  0.68270  0.89290  0.72420  1.0000 0.1204472646
H   H46       1.0  0.89290  0.68270  0.77580  1.0000 0.1204472646
H   H47       1.0  0.31730  0.10710  0.27580  1.0000 0.1204472646
H   H48       1.0  0.10710  0.31730  0.22420  1.0000 0.1204472646
H   H49       1.0  0.73120  0.92260  0.85780  1.0000 0.1204472646
H   H50       1.0  0.92260  0.73120  0.64220  1.0000 0.1204472646
H   H51       1.0  0.26880  0.07740  0.14220  1.0000 0.1204472646
H   H52       1.0  0.07740  0.26880  0.35780  1.0000 0.1204472646
H   H53       1.0  0.62810  0.85390  0.90430  1.0000 0.1204472646
H   H54       1.0  0.85390  0.62810  0.59570  1.0000 0.1204472646
H   H55       1.0  0.37190  0.14610  0.09570  1.0000 0.1204472646
H   H56       1.0  0.14610  0.37190  0.40430  1.0000 0.1204472646
H   H57       1.0  0.35760  0.53820  0.97300  1.0000 0.1307180153
H   H58       1.0  0.53820  0.35760  0.52700  1.0000 0.1307180153
H   H59       1.0  0.64240  0.46180  0.02700  1.0000 0.1307180153
H   H60       1.0  0.46180  0.64240  0.47300  1.0000 0.1307180153
H   H61       1.0  0.43300  0.56920  0.87690  1.0000 0.1096935655
H   H62       1.0  0.56920  0.43300  0.62310  1.0000 0.1096935655
H   H63       1.0  0.56700  0.43080  0.12310  1.0000 0.1096935655
H   H64       1.0  0.43080  0.56700  0.37690  1.0000 0.1096935655
H   H65       1.0  0.32670  0.49290  0.76720  1.0000 0.1096935655
H   H66       1.0  0.49290  0.32670  0.73280  1.0000 0.1096935655
H   H67       1.0  0.67330  0.50710  0.23280  1.0000 0.1096935655
H   H68       1.0  0.50710  0.67330  0.26720  1.0000 0.1096935655
H   H69       1.0  0.13770  0.37810  0.74940  1.0000 0.1307180153
H   H70       1.0  0.37810  0.13770  0.75060  1.0000 0.1307180153
H   H71       1.0  0.86230  0.62190  0.25060  1.0000 0.1307180153
H   H72       1.0  0.62190  0.86230  0.24940  1.0000 0.1307180153
H   H73       1.0  0.97540  0.36840  0.14950  1.0000 0.1392415902
H   H74       1.0  0.36840  0.97540  0.35050  1.0000 0.1392415902
H   H75       1.0  0.02460  0.63160  0.85050  1.0000 0.1392415902
H   H76       1.0  0.63160  0.02460  0.64950  1.0000 0.1392415902
H   H77       1.0  0.90790  0.39250  0.18460  1.0000 0.1096935655
H   H78       1.0  0.39250  0.90790  0.31540  1.0000 0.1096935655
H   H79       1.0  0.09210  0.60750  0.81540  1.0000 0.1096935655
H   H80       1.0  0.60750  0.09210  0.68460  1.0000 0.1096935655
H   H81       1.0  0.99470  0.55870  0.13720  1.0000 0.1014348567
H   H82       1.0  0.55870  0.99470  0.36280  1.0000 0.1014348567
H   H83       1.0  0.00530  0.44130  0.86280  1.0000 0.1014348567
H   H84       1.0  0.44130  0.00530  0.63720  1.0000 0.1014348567
H   H85       1.0  0.15540  0.71040  0.05510  1.0000 0.1392415902
H   H86       1.0  0.71040  0.15540  0.44490  1.0000 0.1392415902
H   H87       1.0  0.84460  0.28960  0.94490  1.0000 0.1392415902
H   H88       1.0  0.28960  0.84460  0.55510  1.0000 0.1392415902
H   H89       1.0  0.30800  0.67280  0.98200  1.0000 0.1096935655
H   H90       1.0  0.67280  0.30800  0.51800  1.0000 0.1096935655
H   H91       1.0  0.69200  0.32720  0.01800  1.0000 0.1096935655
H   H92       1.0  0.32720  0.69200  0.48200  1.0000 0.1096935655
H   H93       1.0  0.38050  0.84050  0.93080  1.0000 0.1096935655
H   H94       1.0  0.84050  0.38050  0.56920  1.0000 0.1096935655
H   H95       1.0  0.61950  0.15950  0.06920  1.0000 0.1096935655
H   H96       1.0  0.15950  0.61950  0.43080  1.0000 0.1096935655
H   H97       1.0  0.29650  0.81630  0.94940  1.0000 0.1204472646
H   H98       1.0  0.81630  0.29650  0.55060  1.0000 0.1204472646
H   H99       1.0  0.70350  0.18370  0.05060  1.0000 0.1204472646
H   H100      1.0  0.18370  0.70350  0.44940  1.0000 0.1204472646
H   H101      1.0  0.56340  0.86040  0.05940  1.0000 0.1204472646
H   H102      1.0  0.86040  0.56340  0.44060  1.0000 0.1204472646
H   H103      1.0  0.43660  0.13960  0.94060  1.0000 0.1204472646
H   H104      1.0  0.13960  0.43660  0.55940  1.0000 0.1204472646
H   H105      1.0  0.64690  0.77150  0.15320  1.0000 0.1204472646
H   H106      1.0  0.77150  0.64690  0.34680  1.0000 0.1204472646
H   H107      1.0  0.35310  0.22850  0.84680  1.0000 0.1204472646
H   H108      1.0  0.22850  0.35310  0.65320  1.0000 0.1204472646
H   H109      1.0  0.92230  0.14090  0.14220  1.0000 0.1204472646
H   H110      1.0  0.14090  0.92230  0.35780  1.0000 0.1204472646
H   H111      1.0  0.07770  0.85910  0.85780  1.0000 0.1204472646
H   H112      1.0  0.85910  0.07770  0.64220  1.0000 0.1204472646
H   H113      1.0  0.85970  0.95610  0.34180  1.0000 0.1307180153
H   H114      1.0  0.95610  0.85970  0.15820  1.0000 0.1307180153
H   H115      1.0  0.14030  0.04390  0.65820  1.0000 0.1307180153
H   H116      1.0  0.04390  0.14030  0.84180  1.0000 0.1307180153
H   H117      1.0  0.79900  0.94460  0.43620  1.0000 0.1096935655
H   H118      1.0  0.94460  0.79900  0.06380  1.0000 0.1096935655
H   H119      1.0  0.20100  0.05540  0.56380  1.0000 0.1096935655
H   H120      1.0  0.05540  0.20100  0.93620  1.0000 0.1096935655
H   H121      1.0  0.93490  0.06450  0.53520  1.0000 0.1096935655
H   H122      1.0  0.06450  0.93490  0.96480  1.0000 0.1096935655
H   H123      1.0  0.06510  0.93550  0.46480  1.0000 0.1096935655
H   H124      1.0  0.93550  0.06510  0.03520  1.0000 0.1096935655
H   H125      1.0  0.13600  0.20020  0.54410  1.0000 0.1307180153
H   H126      1.0  0.20020  0.13600  0.95590  1.0000 0.1307180153
H   H127      1.0  0.86400  0.79980  0.45590  1.0000 0.1307180153
H   H128      1.0  0.79980  0.86400  0.04410  1.0000 0.1307180153
H   H129      1.0  0.27090  0.22890  0.35110  1.0000 0.1307180153
H   H130      1.0  0.22890  0.27090  0.14890  1.0000 0.1307180153
H   H131      1.0  0.72910  0.77110  0.64890  1.0000 0.1307180153
H   H132      1.0  0.77110  0.72910  0.85110  1.0000 0.1307180153
H   H133      1.0  0.31730  0.28430  0.53090  1.0000 0.1204472646
H   H134      1.0  0.28430  0.31730  0.96910  1.0000 0.1204472646
H   H135      1.0  0.68270  0.71570  0.46910  1.0000 0.1204472646
H   H136      1.0  0.71570  0.68270  0.03090  1.0000 0.1204472646
H   H137      1.0  0.38760  0.32340  0.47020  1.0000 0.1204472646
H   H138      1.0  0.32340  0.38760  0.02980  1.0000 0.1204472646
H   H139      1.0  0.61240  0.67660  0.52980  1.0000 0.1204472646
H   H140      1.0  0.67660  0.61240  0.97020  1.0000 0.1204472646
H   H141      1.0  0.46220  0.48500  0.42730  1.0000 0.1096935655
H   H142      1.0  0.48500  0.46220  0.07270  1.0000 0.1096935655
H   H143      1.0  0.53780  0.51500  0.57270  1.0000 0.1096935655
H   H144      1.0  0.51500  0.53780  0.92730  1.0000 0.1096935655
H   H145      1.0  0.39610  0.44790  0.49050  1.0000 0.1096935655
H   H146      1.0  0.44790  0.39610  0.00950  1.0000 0.1096935655
H   H147      1.0  0.60390  0.55210  0.50950  1.0000 0.1096935655
H   H148      1.0  0.55210  0.60390  0.99050  1.0000 0.1096935655
H   H149      1.0  0.82770  0.08250  0.90610  1.0000 0.1014348567
H   H150      1.0  0.08250  0.82770  0.59390  1.0000 0.1014348567
H   H151      1.0  0.17230  0.91750  0.09390  1.0000 0.1014348567
H   H152      1.0  0.91750  0.17230  0.40610  1.0000 0.1096935655
H   H153      1.0  0.71080  0.01980  0.87970  1.0000 0.1096935655
H   H154      1.0  0.01980  0.71080  0.62030  1.0000 0.1096935655
H   H155      1.0  0.28920  0.98020  0.12030  1.0000 0.1096935655
H   H156      1.0  0.98020  0.28920  0.37970  1.0000 0.1096935655
C   C1        1.0  0.45307  0.93593  0.01919  1.0000 -0.1809549787
C   C2        1.0  0.93593  0.45307  0.48081  1.0000 -0.1809549787
C   C3        1.0  0.54693  0.06407  0.98081  1.0000 -0.1726186072
C   C4        1.0  0.06407  0.54693  0.51919  1.0000 -0.1809549787
C   C5        1.0  0.03538  0.34542  0.92608  1.0000 0.1307180153
C   C6        1.0  0.34542  0.03538  0.57392  1.0000 0.1307180153
C   C7        1.0  0.96462  0.65458  0.07392  1.0000 0.1307180153
C   C8        1.0  0.65458  0.96462  0.42608  1.0000 0.1307180153
C   C9        1.0  0.92534  0.25426  0.80512  1.0000 -0.1103161776
C   C10       1.0  0.25426  0.92534  0.69488  1.0000 -0.1103161776
C   C11       1.0  0.07466  0.74574  0.19488  1.0000 -0.1103161776
C   C12       1.0  0.74574  0.07466  0.30512  1.0000 -0.1103161776
C   C13       1.0  0.83430  0.12230  0.79986  1.0000 -0.1809549787
C   C14       1.0  0.12230  0.83430  0.70014  1.0000 -0.1809549787
C   C15       1.0  0.16570  0.87770  0.20014  1.0000 -0.1809549787
C   C16       1.0  0.87770  0.16570  0.29986  1.0000 -0.1809549787
C   C17       1.0  0.47539  0.77241  0.79236  1.0000 0.0893574721
C   C18       1.0  0.77241  0.47539  0.70764  1.0000 0.0893574721
C   C19       1.0  0.52461  0.22759  0.20764  1.0000 0.0893574721
C   C20       1.0  0.22759  0.52461  0.29236  1.0000 0.0893574721
C   C21       1.0  0.43652  0.74488  0.72040  1.0000 0.1392415902
C   C22       1.0  0.74488  0.43652  0.77960  1.0000 0.1392415902
C   C23       1.0  0.56348  0.25512  0.27960  1.0000 0.1392415902
C   C24       1.0  0.25512  0.56348  0.22040  1.0000 0.1392415902
C   C25       1.0  0.32143  0.67117  0.69674  1.0000 -0.141215586
C   C26       1.0  0.67117  0.32143  0.80326  1.0000 -0.141215586
C   C27       1.0  0.67857  0.32883  0.30326  1.0000 -0.141215586
C   C28       1.0  0.32883  0.67857  0.19674  1.0000 -0.141215586
C   C29       1.0  0.25277  0.63323  0.74586  1.0000 -0.1103161776
C   C30       1.0  0.63323  0.25277  0.75414  1.0000 -0.1103161776
C   C31       1.0  0.74723  0.36677  0.25414  1.0000 -0.1103161776
C   C32       1.0  0.36677  0.74723  0.24586  1.0000 -0.1103161776
C   C33       1.0  0.29673  0.66707  0.81650  1.0000 -0.1103161776
C   C34       1.0  0.66707  0.29673  0.68350  1.0000 -0.1103161776
C   C35       1.0  0.70327  0.33293  0.18350  1.0000 -0.1103161776
C   C36       1.0  0.33293  0.70327  0.31650  1.0000 -0.1103161776
C   C37       1.0  0.40693  0.73507  0.84171  1.0000 -0.1726186072
C   C38       1.0  0.73507  0.40693  0.65829  1.0000 -0.1726186072
C   C39       1.0  0.59307  0.26493  0.15829  1.0000 -0.1726186072
C   C40       1.0  0.26493  0.59307  0.34171  1.0000 -0.1726186072
C   C41       1.0  0.61179  0.85101  0.73359  1.0000 0.1392415902
C   C42       1.0  0.85101  0.61179  0.76641  1.0000 0.1392415902
C   C43       1.0  0.38821  0.14899  0.26641  1.0000 0.1392415902
C   C44       1.0  0.14899  0.38821  0.23359  1.0000 0.1392415902
C   C45       1.0  0.67738  0.90762  0.86157  1.0000 -0.1103161776
C   C46       1.0  0.90762  0.67738  0.63843  1.0000 -0.1103161776
C   C47       1.0  0.32262  0.09238  0.13843  1.0000 -0.1103161776
C   C48       1.0  0.09238  0.32262  0.36157  1.0000 -0.1103161776
C   C49       1.0  0.13730  0.39290  0.85128  1.0000 0.0799876592
C   C50       1.0  0.39290  0.13730  0.64872  1.0000 0.0799876592
C   C51       1.0  0.86270  0.60710  0.14872  1.0000 0.0799876592
C   C52       1.0  0.60710  0.86270  0.35128  1.0000 0.0799876592
C   C53       1.0  0.20208  0.44092  0.91820  1.0000 0.1307180153
C   C54       1.0  0.44092  0.20208  0.58180  1.0000 0.1307180153
C   C55       1.0  0.79792  0.55908  0.08180  1.0000 0.1307180153
C   C56       1.0  0.55908  0.79792  0.41820  1.0000 0.1307180153
C   C57       1.0  0.31396  0.50704  0.92873  1.0000 -0.1630881686
C   C58       1.0  0.50704  0.31396  0.57127  1.0000 -0.1630881686
C   C59       1.0  0.68604  0.49296  0.07127  1.0000 -0.1630881686
C   C60       1.0  0.49296  0.68604  0.42873  1.0000 -0.1630881686
C   C61       1.0  0.35802  0.52478  0.87122  1.0000 -0.1174815718
C   C62       1.0  0.52478  0.35802  0.62878  1.0000 -0.1174815718
C   C63       1.0  0.64198  0.47522  0.12878  1.0000 -0.1174815718
C   C64       1.0  0.47522  0.64198  0.37122  1.0000 -0.1174815718
C   C65       1.0  0.29311  0.47789  0.80483  1.0000 -0.0799080217
C   C66       1.0  0.47789  0.29311  0.69517  1.0000 -0.0799080217
C   C67       1.0  0.70689  0.52211  0.19517  1.0000 -0.0799080217
C   C68       1.0  0.52211  0.70689  0.30483  1.0000 -0.0799080217
C   C69       1.0  0.18166  0.41054  0.79355  1.0000 -0.1630881686
C   C70       1.0  0.41054  0.18166  0.70645  1.0000 -0.1630881686
C   C71       1.0  0.81834  0.58946  0.20645  1.0000 -0.1630881686
C   C72       1.0  0.58946  0.81834  0.29355  1.0000 -0.1630881686
C   C73       1.0  0.15905  0.62635  0.05311  1.0000 0.0893574721
C   C74       1.0  0.62635  0.15905  0.44689  1.0000 0.0893574721
C   C75       1.0  0.84095  0.37365  0.94689  1.0000 0.0893574721
C   C76       1.0  0.37365  0.84095  0.55311  1.0000 0.0893574721
C   C77       1.0  0.10544  0.52436  0.08038  1.0000 0.1307180153
C   C78       1.0  0.52436  0.10544  0.41962  1.0000 0.1307180153
C   C79       1.0  0.89456  0.47564  0.91962  1.0000 0.1307180153
C   C80       1.0  0.47564  0.89456  0.58038  1.0000 0.1307180153
C   C81       1.0  0.01112  0.43608  0.13037  1.0000 -0.1292812361
C   C82       1.0  0.43608  0.01112  0.36963  1.0000 -0.1292812361
C   C83       1.0  0.98888  0.56392  0.86963  1.0000 -0.1292812361
C   C84       1.0  0.56392  0.98888  0.63037  1.0000 -0.1292812361
C   C85       1.0  0.97152  0.45108  0.15098  1.0000 -0.1174815718
C   C86       1.0  0.45108  0.97152  0.34902  1.0000 -0.1174815718
C   C87       1.0  0.02848  0.54892  0.84902  1.0000 -0.1174815718
C   C88       1.0  0.54892  0.02848  0.65098  1.0000 -0.1103161776
C   C89       1.0  0.02481  0.55239  0.12240  1.0000 -0.1103161776
C   C90       1.0  0.55239  0.02481  0.37760  1.0000 -0.1103161776
C   C91       1.0  0.97519  0.44761  0.87760  1.0000 -0.1103161776
C   C92       1.0  0.44761  0.97519  0.62240  1.0000 -0.1103161776
C   C93       1.0  0.11945  0.64235  0.07360  1.0000 -0.1726186072
C   C94       1.0  0.64235  0.11945  0.42640  1.0000 -0.1726186072
C   C95       1.0  0.88055  0.35765  0.92640  1.0000 -0.1726186072
C   C96       1.0  0.35765  0.88055  0.57360  1.0000 -0.1726186072
C   C97       1.0  0.25219  0.64121  0.00838  1.0000 0.1307180153
C   C98       1.0  0.64121  0.25219  0.49162  1.0000 0.1307180153
C   C99       1.0  0.74781  0.35879  0.99162  1.0000 0.1307180153
C   C100      1.0  0.35879  0.74781  0.50838  1.0000 0.1307180153
C   C101      1.0  0.34368  0.82332  0.96957  1.0000 -0.1008838293
C   C102      1.0  0.82332  0.34368  0.53043  1.0000 -0.1008838293
C   C103      1.0  0.65632  0.17668  0.03043  1.0000 -0.1008838293
C   C104      1.0  0.17668  0.65632  0.46957  1.0000 -0.1008838293
C   C105      1.0  0.62227  0.88573  0.08322  1.0000 -0.1174815718
C   C106      1.0  0.88573  0.62227  0.41678  1.0000 -0.1174815718
C   C107      1.0  0.37773  0.11427  0.91678  1.0000 -0.1174815718
C   C108      1.0  0.11427  0.37773  0.58322  1.0000 -0.1174815718
C   C109      1.0  0.58213  0.79227  0.10509  1.0000 -0.0136530259
C   C110      1.0  0.79227  0.58213  0.39491  1.0000 -0.0136530259
C   C111      1.0  0.41787  0.20773  0.89491  1.0000 -0.0136530259
C   C112      1.0  0.20773  0.41787  0.60509  1.0000 -0.0136530259
C   C113      1.0  0.67233  0.83267  0.13961  1.0000 -0.1292812361
C   C114      1.0  0.83267  0.67233  0.36039  1.0000 -0.1292812361
C   C115      1.0  0.32767  0.16733  0.86039  1.0000 -0.1292812361
C   C116      1.0  0.16733  0.32767  0.63961  1.0000 -0.1292812361
C   C117      1.0  0.79933  0.96247  0.15409  1.0000 -0.0285608498
C   C118      1.0  0.96247  0.79933  0.34591  1.0000 -0.0285608498
C   C119      1.0  0.20067  0.03753  0.84591  1.0000 -0.0285608498
C   C120      1.0  0.03753  0.20067  0.65409  1.0000 -0.0285608498
C   C121      1.0  0.83707  0.05353  0.13255  1.0000 -0.1292812361
C   C122      1.0  0.05353  0.83707  0.36745  1.0000 -0.1292812361
C   C123      1.0  0.16293  0.94647  0.86745  1.0000 -0.1292812361
C   C124      1.0  0.94647  0.16293  0.63255  1.0000 -0.1292812361
C   C125      1.0  0.75007  0.01613  0.09717  1.0000 -0.1008838293
C   C126      1.0  0.01613  0.75007  0.40283  1.0000 -0.1008838293
C   C127      1.0  0.24993  0.98387  0.90283  1.0000 -0.1008838293
C   C128      1.0  0.98387  0.24993  0.59717  1.0000 -0.1008838293
C   C129      1.0  0.44228  0.64972  0.09286  1.0000 0.5498978412
C   C130      1.0  0.64972  0.44228  0.40714  1.0000 0.5498978412
C   C131      1.0  0.55772  0.35028  0.90714  1.0000 0.5498978412
C   C132      1.0  0.35028  0.55772  0.59286  1.0000 0.5498978412
C   C133      1.0  0.89950  0.01010  0.19040  1.0000 0.5297559417
C   C134      1.0  0.01010  0.89950  0.30960  1.0000 0.5297559417
C   C135      1.0  0.10050  0.98990  0.80960  1.0000 0.5297559417
C   C136      1.0  0.98990  0.10050  0.69040  1.0000 0.5297559417
C   C137      1.0  0.11843  0.16017  0.44713  1.0000 0.0799876592
C   C138      1.0  0.16017  0.11843  0.05287  1.0000 0.0799876592
C   C139      1.0  0.88157  0.83983  0.55287  1.0000 0.0799876592
C   C140      1.0  0.83983  0.88157  0.94713  1.0000 0.0799876592
C   C141      1.0  0.03665  0.08775  0.38627  1.0000 0.1392415902
C   C142      1.0  0.08775  0.03665  0.11373  1.0000 0.1392415902
C   C143      1.0  0.96335  0.91225  0.61373  1.0000 0.1392415902
C   C144      1.0  0.91225  0.96335  0.88627  1.0000 0.1392415902
C   C145      1.0  0.91517  0.00523  0.38165  1.0000 -0.1630881686
C   C146      1.0  0.00523  0.91517  0.11835  1.0000 -0.1630881686
C   C147      1.0  0.08483  0.99477  0.61835  1.0000 -0.1630881686
C   C148      1.0  0.99477  0.08483  0.88165  1.0000 -0.1630881686
C   C149      1.0  0.87984  0.99876  0.43808  1.0000 -0.1174815718
C   C150      1.0  0.99876  0.87984  0.06192  1.0000 -0.1174815718
C   C151      1.0  0.12016  0.00124  0.56192  1.0000 -0.1174815718
C   C152      1.0  0.00124  0.12016  0.93808  1.0000 -0.1174815718
C   C153      1.0  0.96206  0.07134  0.49810  1.0000 -0.0907491976
C   C154      1.0  0.07134  0.96206  0.00190  1.0000 -0.0907491976
C   C155      1.0  0.03794  0.92866  0.50190  1.0000 -0.0907491976
C   C156      1.0  0.92866  0.03794  0.99810  1.0000 -0.0907491976
C   C157      1.0  0.08166  0.15234  0.50377  1.0000 -0.1726186072
C   C158      1.0  0.15234  0.08166  0.99623  1.0000 -0.1726186072
C   C159      1.0  0.91834  0.84766  0.49623  1.0000 -0.1726186072
C   C160      1.0  0.84766  0.91834  0.00377  1.0000 -0.1726186072
C   C161      1.0  0.20996  0.19564  0.37093  1.0000 0.1392415902
C   C162      1.0  0.19564  0.20996  0.12907  1.0000 0.1392415902
C   C163      1.0  0.79004  0.80436  0.62907  1.0000 0.1392415902
C   C164      1.0  0.80436  0.79004  0.87093  1.0000 0.1392415902
C   C165      1.0  0.34400  0.31800  0.48220  1.0000 -0.1103161776
C   C166      1.0  0.31800  0.34400  0.01780  1.0000 -0.1103161776
C   C167      1.0  0.65600  0.68200  0.51780  1.0000 -0.1103161776
C   C168      1.0  0.68200  0.65600  0.98220  1.0000 -0.1103161776
C   C169      1.0  0.43824  0.45256  0.47640  1.0000 -0.1873367895
C   C170      1.0  0.45256  0.43824  0.02360  1.0000 -0.1873367895
C   C171      1.0  0.56176  0.54744  0.52360  1.0000 -0.1873367895
C   C172      1.0  0.54744  0.56176  0.97640  1.0000 -0.1873367895
C   C173      1.0  0.76356  0.03604  0.86758  1.0000 -0.1809549787
C   C174      1.0  0.03604  0.76356  0.63242  1.0000 -0.1873367895
C   C175      1.0  0.23644  0.96396  0.13242  1.0000 -0.1873367895
C   C176      1.0  0.96396  0.23644  0.36758  1.0000 -0.1873367895
S   S1        1.0  0.80511  0.13791  0.07412  1.0000 1.1573462403
S   S2        1.0  0.13791  0.80511  0.42588  1.0000 1.1573462403
S   S3        1.0  0.19489  0.86209  0.92588  1.0000 1.1573462403
S   S4        1.0  0.86209  0.19489  0.57412  1.0000 1.1573462403
N   N1        1.0  0.13479  0.40921  0.96475  1.0000 -0.3673550458
N   N2        1.0  0.40921  0.13479  0.53525  1.0000 -0.3673550458
N   N3        1.0  0.86521  0.59079  0.03525  1.0000 -0.3673550458
N   N4        1.0  0.59079  0.86521  0.46475  1.0000 -0.3673550458
N   N5        1.0  0.03144  0.33276  0.85807  1.0000 -0.0211881387
N   N6        1.0  0.33276  0.03144  0.64193  1.0000 -0.0211881387
N   N7        1.0  0.96856  0.66724  0.14193  1.0000 -0.0211881387
N   N8        1.0  0.66724  0.96856  0.35807  1.0000 -0.0211881387
N   N9        1.0  0.52740  0.79920  0.68412  1.0000 -0.3500901581
N   N10       1.0  0.79920  0.52740  0.81588  1.0000 -0.3500901581
N   N11       1.0  0.47260  0.20080  0.31588  1.0000 -0.3500901581
N   N12       1.0  0.20080  0.47260  0.18412  1.0000 -0.3500901581
N   N13       1.0  0.58675  0.83825  0.79940  1.0000 -0.0211881387
N   N14       1.0  0.83825  0.58675  0.70060  1.0000 -0.0211881387
N   N15       1.0  0.41325  0.16175  0.20060  1.0000 -0.0211881387
N   N16       1.0  0.16175  0.41325  0.29940  1.0000 -0.0211881387
N   N17       1.0  0.16688  0.53652  0.05024  1.0000 -0.3500901581
N   N18       1.0  0.53652  0.16688  0.44976  1.0000 -0.3500901581
N   N19       1.0  0.83312  0.46348  0.94976  1.0000 -0.3500901581
N   N20       1.0  0.46348  0.83312  0.55024  1.0000 -0.3500901581
N   N21       1.0  0.25270  0.69950  0.00662  1.0000 -0.0211881387
N   N22       1.0  0.69950  0.25270  0.49338  1.0000 -0.0211881387
N   N23       1.0  0.74730  0.30050  0.99338  1.0000 -0.0211881387
N   N24       1.0  0.30050  0.74730  0.50662  1.0000 -0.0211881387
N   N25       1.0  0.09738  0.11242  0.33879  1.0000 -0.3673550458
N   N26       1.0  0.11242  0.09738  0.16121  1.0000 -0.3673550458
N   N27       1.0  0.90262  0.88758  0.66121  1.0000 -0.3673550458
N   N28       1.0  0.88758  0.90262  0.83879  1.0000 -0.3673550458
N   N29       1.0  0.22803  0.22757  0.43501  1.0000 -0.0211881387
N   N30       1.0  0.22757  0.22803  0.06499  1.0000 -0.0211881387
N   N31       1.0  0.77197  0.77243  0.56499  1.0000 -0.0211881387
N   N32       1.0  0.77243  0.77197  0.93501  1.0000 -0.0211881387
O   O1        1.0  0.36576  0.62046  0.06288  1.0000 -0.5844230139
O   O2        1.0  0.62046  0.36576  0.43712  1.0000 -0.5844230139
O   O3        1.0  0.63424  0.37954  0.93712  1.0000 -0.5844230139
O   O4        1.0  0.37954  0.63424  0.56288  1.0000 -0.5844230139
O   O5        1.0  0.41165  0.57069  0.11354  1.0000 -0.5844230139
O   O6        1.0  0.57069  0.41165  0.38646  1.0000 -0.5844230139
O   O7        1.0  0.58835  0.42931  0.88646  1.0000 -0.5844230139
O   O8        1.0  0.42931  0.58835  0.61354  1.0000 -0.5844230139
O   O9        1.0  0.01530  0.12870  0.19560  1.0000 -0.5693908417
O   O10       1.0  0.12870  0.01530  0.30440  1.0000 -0.5693908417
O   O11       1.0  0.98470  0.87130  0.80440  1.0000 -0.5693908417
O   O12       1.0  0.87130  0.98470  0.69560  1.0000 -0.5693908417
O   O13       1.0  0.86020  0.92360  0.21489  1.0000 -0.5353046143
O   O14       1.0  0.92360  0.86020  0.28511  1.0000 -0.5353046143
O   O15       1.0  0.13980  0.07640  0.78511  1.0000 -0.5353046143
O   O16       1.0  0.07640  0.13980  0.71489  1.0000 -0.5353046143
O   O17       1.0  0.94723  0.25977  0.08079  1.0000 -0.6444202745
O   O18       1.0  0.25977  0.94723  0.41921  1.0000 -0.6444202745
O   O19       1.0  0.05277  0.74023  0.91921  1.0000 -0.6444202745
O   O20       1.0  0.74023  0.05277  0.58079  1.0000 -0.6444202745
O   O21       1.0  0.75224  0.12156  0.12541  1.0000 -0.6103667104
O   O22       1.0  0.12156  0.75224  0.37459  1.0000 -0.6103667104
O   O23       1.0  0.24776  0.87844  0.87459  1.0000 -0.6103667104
O   O24       1.0  0.87844  0.24776  0.62541  1.0000 -0.6103667104
O   O25       1.0  0.75856  0.11644  0.00198  1.0000 -0.6175663852
O   O26       1.0  0.11644  0.75856  0.49802  1.0000 -0.6175663852
O   O27       1.0  0.24144  0.88356  0.99802  1.0000 -0.6175663852
O   O28       1.0  0.88356  0.24144  0.50198  1.0000 -0.6175663852
