# DDEC6 charges by PACMAN v1.1 (https://github.com/mtap-research/PACMAN-charge/)
data_2012[Tb][mog]3[ASR]1
_chemical_formula_sum              "Tb2 H12 C18 O24"
_cell_length_a       6.0783
_cell_length_b       8.6457
_cell_length_c       16.1954
_cell_angle_alpha    77.801
_cell_angle_beta     88.351
_cell_angle_gamma    83.637

_symmetry_space_group_name_H-M    "P 1"
_symmetry_Int_Tables_number       1

loop_
  _symmetry_equiv_pos_as_xyz
  'x, y, z'

loop_
  _atom_site_type_symbol
  _atom_site_label
  _atom_site_symmetry_multiplicity
  _atom_site_fract_x
  _atom_site_fract_y
  _atom_site_fract_z
  _atom_site_occupancy
  _atom_site_charge
Tb  Tb1       1.0  0.11990  0.89737  0.78191  1.0000 1.9522408812
Tb  Tb2       1.0  0.88010  0.10263  0.21809  1.0000 1.9522408812
H   H1        1.0  0.56840  0.51040  0.85750  1.0000 0.1581231623
H   H2        1.0  0.43160  0.48960  0.14250  1.0000 0.1581231623
H   H3        1.0  0.72330  0.53350  0.98310  1.0000 0.1307082878
H   H4        1.0  0.27670  0.46650  0.01690  1.0000 0.1307082878
H   H5        1.0  0.87260  0.24210  0.91590  1.0000 0.1523557796
H   H6        1.0  0.12740  0.75790  0.08410  1.0000 0.1523557796
H   H7        1.0  0.18780  0.08850  0.99490  1.0000 0.1382006264
H   H8        1.0  0.81220  0.91150  0.00510  1.0000 0.1382006264
H   H9        1.0  0.14330  0.98070  0.53810  1.0000 0.1307082878
H   H10       1.0  0.85670  0.01930  0.46190  1.0000 0.1307082878
H   H11       1.0  0.45500  0.85500  0.48010  1.0000 0.1307082878
H   H12       1.0  0.54500  0.14500  0.51990  1.0000 0.1307082878
C   C1        1.0  0.63130  0.74660  0.83450  1.0000 0.648015198
C   C2        1.0  0.36870  0.25340  0.16550  1.0000 0.648015198
C   C3        1.0  0.51490  0.60360  0.88080  1.0000 0.001688902
C   C4        1.0  0.48510  0.39640  0.11920  1.0000 0.0092018045
C   C5        1.0  0.56460  0.56660  0.97520  1.0000 0.0912412654
C   C6        1.0  0.43540  0.43340  0.02480  1.0000 0.0912412654
C   C7        1.0  0.14270  0.22970  0.83560  1.0000 0.595599678
C   C8        1.0  0.85730  0.77030  0.16440  1.0000 0.595599678
C   C9        1.0  0.96600  0.15890  0.89470  1.0000 -0.0206553893
C   C10       1.0  0.03400  0.84110  0.10530  1.0000 -0.0206553893
C   C11       1.0  0.08150  0.03820  0.96760  1.0000 0.1196823536
C   C12       1.0  0.91850  0.96180  0.03240  1.0000 0.1196823536
C   C13       1.0  0.19980  0.75670  0.61230  1.0000 0.5831060379
C   C14       1.0  0.80020  0.24330  0.38770  1.0000 0.5831060379
C   C15       1.0  0.26310  0.92340  0.57540  1.0000 0.0092018045
C   C16       1.0  0.73690  0.07660  0.42460  1.0000 0.0092018045
C   C17       1.0  0.47510  0.91740  0.52270  1.0000 0.0912412654
C   C18       1.0  0.52490  0.08260  0.47730  1.0000 0.0912412654
O   O1        1.0  0.51030  0.86480  0.79520  1.0000 -0.5333409638
O   O2        1.0  0.48970  0.13520  0.20480  1.0000 -0.5333409638
O   O3        1.0  0.83870  0.73370  0.83800  1.0000 -0.5838453204
O   O4        1.0  0.16130  0.26630  0.16200  1.0000 -0.5838453204
O   O5        1.0  0.28320  0.63940  0.86600  1.0000 -0.2970547856
O   O6        1.0  0.71680  0.36060  0.13400  1.0000 -0.2970547856
O   O7        1.0  0.50960  0.70830  0.00730  1.0000 -0.2190970437
O   O8        1.0  0.49040  0.29170  0.99270  1.0000 -0.2190970437
O   O9        1.0  0.18990  0.16990  0.77200  1.0000 -0.5129116506
O   O10       1.0  0.81010  0.83010  0.22800  1.0000 -0.5129116506
O   O11       1.0  0.23580  0.33950  0.85460  1.0000 -0.393501553
O   O12       1.0  0.76420  0.66050  0.14540  1.0000 -0.393501553
O   O13       1.0  0.83540  0.07050  0.85360  1.0000 -0.3488401056
O   O14       1.0  0.16460  0.92950  0.14640  1.0000 -0.3488401056
O   O15       1.0  0.19490  0.91860  0.92760  1.0000 -0.4436357052
O   O16       1.0  0.80510  0.08140  0.07240  1.0000 -0.4436357052
O   O17       1.0  0.15220  0.72330  0.69040  1.0000 -0.5591289134
O   O18       1.0  0.84780  0.27670  0.30960  1.0000 -0.5591289134
O   O19       1.0  0.19370  0.66600  0.56330  1.0000 -0.3639696421
O   O20       1.0  0.80630  0.33400  0.43670  1.0000 -0.3639696421
O   O21       1.0  0.28280  0.00790  0.64160  1.0000 -0.3702707918
O   O22       1.0  0.71720  0.99210  0.35840  1.0000 -0.3702707918
O   O23       1.0  0.65700  0.84170  0.57360  1.0000 -0.2903264047
O   O24       1.0  0.34300  0.15830  0.42640  1.0000 -0.2903264047
