# DDEC6 charges by PACMAN v1.1 (https://github.com/mtap-research/PACMAN-charge/)
data_2012[Ag][srs]3[ASR]2
_chemical_formula_sum              "Ag6 H144 C156 N40"
_cell_length_a       21.9806
_cell_length_b       21.9806
_cell_length_c       21.9806
_cell_angle_alpha    109.471
_cell_angle_beta     109.471
_cell_angle_gamma    109.471

_symmetry_space_group_name_H-M    "P 1"
_symmetry_Int_Tables_number       1

loop_
  _symmetry_equiv_pos_as_xyz
  'x, y, z'

loop_
  _atom_site_type_symbol
  _atom_site_label
  _atom_site_symmetry_multiplicity
  _atom_site_fract_x
  _atom_site_fract_y
  _atom_site_fract_z
  _atom_site_occupancy
  _atom_site_charge
Ag  Ag1       1.0  0.75000  0.36225  0.61225  1.0000 0.2428610349
Ag  Ag2       1.0  0.25000  0.13775  0.88775  1.0000 0.2428610349
Ag  Ag3       1.0  0.61225  0.75000  0.36225  1.0000 0.2428610349
Ag  Ag4       1.0  0.88775  0.25000  0.13775  1.0000 0.2428610349
Ag  Ag5       1.0  0.36225  0.61225  0.75000  1.0000 0.2428610349
Ag  Ag6       1.0  0.13775  0.88775  0.25000  1.0000 0.2428610349
H   H1        1.0  0.57710  0.24860  0.40750  1.0000 0.24626786
H   H2        1.0  0.34110  0.16960  0.09250  1.0000 0.24626786
H   H3        1.0  0.15890  0.25140  0.82850  1.0000 0.24626786
H   H4        1.0  0.92290  0.33040  0.67150  1.0000 0.24626786
H   H5        1.0  0.40750  0.57710  0.24860  1.0000 0.24626786
H   H6        1.0  0.09250  0.34110  0.16960  1.0000 0.24626786
H   H7        1.0  0.82850  0.15890  0.25140  1.0000 0.24626786
H   H8        1.0  0.67150  0.92290  0.33040  1.0000 0.24626786
H   H9        1.0  0.24860  0.40750  0.57710  1.0000 0.24626786
H   H10       1.0  0.16960  0.09250  0.34110  1.0000 0.24626786
H   H11       1.0  0.25140  0.82850  0.15890  1.0000 0.24626786
H   H12       1.0  0.33040  0.67150  0.92290  1.0000 0.24626786
H   H13       1.0  0.64620  0.38380  0.67300  1.0000 0.1004698036
H   H14       1.0  0.21080  0.97320  0.82700  1.0000 0.1004698036
H   H15       1.0  0.28920  0.11620  0.76240  1.0000 0.1004698036
H   H16       1.0  0.85380  0.52680  0.73760  1.0000 0.1004698036
H   H17       1.0  0.67300  0.64620  0.38380  1.0000 0.1004698036
H   H18       1.0  0.82700  0.21080  0.97320  1.0000 0.1004698036
H   H19       1.0  0.76240  0.28920  0.11620  1.0000 0.1004698036
H   H20       1.0  0.73760  0.85380  0.52680  1.0000 0.1004698036
H   H21       1.0  0.38380  0.67300  0.64620  1.0000 0.1004698036
H   H22       1.0  0.97320  0.82700  0.21080  1.0000 0.1004698036
H   H23       1.0  0.11620  0.76240  0.28920  1.0000 0.1004698036
H   H24       1.0  0.52680  0.73760  0.85380  1.0000 0.1004698036
H   H25       1.0  0.52390  0.36270  0.63540  1.0000 0.1206882822
H   H26       1.0  0.22730  0.88850  0.86460  1.0000 0.1206882822
H   H27       1.0  0.27270  0.13730  0.66120  1.0000 0.1206882822
H   H28       1.0  0.97610  0.61150  0.83880  1.0000 0.1206882822
H   H29       1.0  0.63540  0.52390  0.36270  1.0000 0.1206882822
H   H30       1.0  0.86460  0.22730  0.88850  1.0000 0.1206882822
H   H31       1.0  0.66120  0.27270  0.13730  1.0000 0.1206882822
H   H32       1.0  0.83880  0.97610  0.61150  1.0000 0.1206882822
H   H33       1.0  0.36270  0.63540  0.52390  1.0000 0.1206882822
H   H34       1.0  0.88850  0.86460  0.22730  1.0000 0.1206882822
H   H35       1.0  0.13730  0.66120  0.27270  1.0000 0.1206882822
H   H36       1.0  0.61150  0.83880  0.97610  1.0000 0.1206882822
H   H37       1.0  0.44590  0.31460  0.50930  1.0000 0.1095793767
H   H38       1.0  0.30530  0.93660  0.99070  1.0000 0.1095793767
H   H39       1.0  0.19470  0.18540  0.63130  1.0000 0.1095793767
H   H40       1.0  0.05410  0.56340  0.86870  1.0000 0.1095793767
H   H41       1.0  0.50930  0.44590  0.31460  1.0000 0.1095793767
H   H42       1.0  0.99070  0.30530  0.93660  1.0000 0.1095793767
H   H43       1.0  0.63130  0.19470  0.18540  1.0000 0.1095793767
H   H44       1.0  0.86870  0.05410  0.56340  1.0000 0.1095793767
H   H45       1.0  0.31460  0.50930  0.44590  1.0000 0.1095793767
H   H46       1.0  0.93660  0.99070  0.30530  1.0000 0.1095793767
H   H47       1.0  0.18540  0.63130  0.19470  1.0000 0.1095793767
H   H48       1.0  0.56340  0.86870  0.05410  1.0000 0.1095793767
H   H49       1.0  0.48080  0.26910  0.42590  1.0000 0.1347043935
H   H50       1.0  0.34320  0.05490  0.07410  1.0000 0.1347043935
H   H51       1.0  0.15680  0.23090  0.71170  1.0000 0.1347043935
H   H52       1.0  0.01920  0.44510  0.78830  1.0000 0.1347043935
H   H53       1.0  0.42590  0.48080  0.26910  1.0000 0.1347043935
H   H54       1.0  0.07410  0.34320  0.05490  1.0000 0.1347043935
H   H55       1.0  0.71170  0.15680  0.23090  1.0000 0.1347043935
H   H56       1.0  0.78830  0.01920  0.44510  1.0000 0.1347043935
H   H57       1.0  0.26910  0.42590  0.48080  1.0000 0.1347043935
H   H58       1.0  0.05490  0.07410  0.34320  1.0000 0.1347043935
H   H59       1.0  0.23090  0.71170  0.15680  1.0000 0.1347043935
H   H60       1.0  0.44510  0.78830  0.01920  1.0000 0.1347043935
H   H61       1.0  0.58940  0.19380  0.34500  1.0000 0.1206882822
H   H62       1.0  0.34880  0.24440  0.15500  1.0000 0.1206882822
H   H63       1.0  0.15120  0.30620  0.89560  1.0000 0.1206882822
H   H64       1.0  0.91060  0.25560  0.60440  1.0000 0.1206882822
H   H65       1.0  0.34500  0.58940  0.19380  1.0000 0.1206882822
H   H66       1.0  0.15500  0.34880  0.24440  1.0000 0.1206882822
H   H67       1.0  0.89560  0.15120  0.30620  1.0000 0.1206882822
H   H68       1.0  0.60440  0.91060  0.25560  1.0000 0.1206882822
H   H69       1.0  0.19380  0.34500  0.58940  1.0000 0.1206882822
H   H70       1.0  0.24440  0.15500  0.34880  1.0000 0.1206882822
H   H71       1.0  0.30620  0.89560  0.15120  1.0000 0.1206882822
H   H72       1.0  0.25560  0.60440  0.91060  1.0000 0.1206882822
H   H73       1.0  0.64580  0.16470  0.34630  1.0000 0.1401712699
H   H74       1.0  0.31840  0.29950  0.15370  1.0000 0.1401712699
H   H75       1.0  0.18160  0.33530  0.98110  1.0000 0.1401712699
H   H76       1.0  0.85420  0.20050  0.51890  1.0000 0.1401712699
H   H77       1.0  0.34630  0.64580  0.16470  1.0000 0.1401712699
H   H78       1.0  0.15370  0.31840  0.29950  1.0000 0.1401712699
H   H79       1.0  0.98110  0.18160  0.33530  1.0000 0.1401712699
H   H80       1.0  0.51890  0.85420  0.20050  1.0000 0.1401712699
H   H81       1.0  0.16470  0.34630  0.64580  1.0000 0.1401712699
H   H82       1.0  0.29950  0.15370  0.31840  1.0000 0.1401712699
H   H83       1.0  0.33530  0.98110  0.18160  1.0000 0.1401712699
H   H84       1.0  0.20050  0.51890  0.85420  1.0000 0.1401712699
H   H85       1.0  0.64370  0.21950  0.31580  1.0000 0.1401712699
H   H86       1.0  0.40370  0.32790  0.18420  1.0000 0.1401712699
H   H87       1.0  0.09630  0.28050  0.92420  1.0000 0.1401712699
H   H88       1.0  0.85630  0.17210  0.57580  1.0000 0.1401712699
H   H89       1.0  0.31580  0.64370  0.21950  1.0000 0.1401712699
H   H90       1.0  0.18420  0.40370  0.32790  1.0000 0.1401712699
H   H91       1.0  0.92420  0.09630  0.28050  1.0000 0.1401712699
H   H92       1.0  0.57580  0.85630  0.17210  1.0000 0.1401712699
H   H93       1.0  0.21950  0.31580  0.64370  1.0000 0.1401712699
H   H94       1.0  0.32790  0.18420  0.40370  1.0000 0.1401712699
H   H95       1.0  0.28050  0.92420  0.09630  1.0000 0.1401712699
H   H96       1.0  0.17210  0.57580  0.85630  1.0000 0.1401712699
H   H97       1.0  0.76580  0.20840  0.37740  1.0000 0.1004698036
H   H98       1.0  0.33100  0.38840  0.12260  1.0000 0.1004698036
H   H99       1.0  0.16900  0.29160  0.05740  1.0000 0.1004698036
H   H100      1.0  0.73420  0.11160  0.44260  1.0000 0.1004698036
H   H101      1.0  0.37740  0.76580  0.20840  1.0000 0.1004698036
H   H102      1.0  0.12260  0.33100  0.38840  1.0000 0.1004698036
H   H103      1.0  0.05740  0.16900  0.29160  1.0000 0.1004698036
H   H104      1.0  0.44260  0.73420  0.11160  1.0000 0.1004698036
H   H105      1.0  0.20840  0.37740  0.76580  1.0000 0.1004698036
H   H106      1.0  0.38840  0.12260  0.33100  1.0000 0.1004698036
H   H107      1.0  0.29160  0.05740  0.16900  1.0000 0.1004698036
H   H108      1.0  0.11160  0.44260  0.73420  1.0000 0.1004698036
H   H109      1.0  0.88820  0.25640  0.40200  1.0000 0.1095793767
H   H110      1.0  0.35440  0.48620  0.09800  1.0000 0.1095793767
H   H111      1.0  0.14560  0.24360  0.13180  1.0000 0.1095793767
H   H112      1.0  0.61180  0.01380  0.36820  1.0000 0.1095793767
H   H113      1.0  0.40200  0.88820  0.25640  1.0000 0.1095793767
H   H114      1.0  0.09800  0.35440  0.48620  1.0000 0.1095793767
H   H115      1.0  0.13180  0.14560  0.24360  1.0000 0.1095793767
H   H116      1.0  0.36820  0.61180  0.01380  1.0000 0.1095793767
H   H117      1.0  0.25640  0.40200  0.88820  1.0000 0.1095793767
H   H118      1.0  0.48620  0.09800  0.35440  1.0000 0.1095793767
H   H119      1.0  0.24360  0.13180  0.14560  1.0000 0.1095793767
H   H120      1.0  0.01380  0.36820  0.61180  1.0000 0.1095793767
H   H121      1.0  0.93760  0.44800  0.56200  1.0000 0.1206882822
H   H122      1.0  0.38600  0.37560  0.93800  1.0000 0.1206882822
H   H123      1.0  0.11400  0.05200  0.98960  1.0000 0.1206882822
H   H124      1.0  0.56240  0.12440  0.51040  1.0000 0.1206882822
H   H125      1.0  0.56200  0.93760  0.44800  1.0000 0.1206882822
H   H126      1.0  0.93800  0.38600  0.37560  1.0000 0.1206882822
H   H127      1.0  0.98960  0.11400  0.05200  1.0000 0.1206882822
H   H128      1.0  0.51040  0.56240  0.12440  1.0000 0.1206882822
H   H129      1.0  0.44800  0.56200  0.93760  1.0000 0.1206882822
H   H130      1.0  0.37560  0.93800  0.38600  1.0000 0.1206882822
H   H131      1.0  0.05200  0.98960  0.11400  1.0000 0.1206882822
H   H132      1.0  0.12440  0.51040  0.56240  1.0000 0.1206882822
H   H133      1.0  0.81710  0.40110  0.53320  1.0000 0.1095793767
H   H134      1.0  0.36790  0.28390  0.96680  1.0000 0.1095793767
H   H135      1.0  0.13210  0.09890  0.91600  1.0000 0.1095793767
H   H136      1.0  0.68290  0.21610  0.58400  1.0000 0.1095793767
H   H137      1.0  0.53320  0.81710  0.40110  1.0000 0.1095793767
H   H138      1.0  0.96680  0.36790  0.28390  1.0000 0.1095793767
H   H139      1.0  0.91600  0.13210  0.09890  1.0000 0.1095793767
H   H140      1.0  0.58400  0.68290  0.21610  1.0000 0.1095793767
H   H141      1.0  0.40110  0.53320  0.81710  1.0000 0.1095793767
H   H142      1.0  0.28390  0.96680  0.36790  1.0000 0.1095793767
H   H143      1.0  0.09890  0.91600  0.13210  1.0000 0.1095793767
H   H144      1.0  0.21610  0.58400  0.68290  1.0000 0.1095793767
C   C1        1.0  0.61200  0.35870  0.62250  1.0000 0.0918067345
C   C2        1.0  0.23620  0.98950  0.87750  1.0000 0.0918067345
C   C3        1.0  0.26380  0.14130  0.75330  1.0000 0.0918067345
C   C4        1.0  0.88800  0.51050  0.74670  1.0000 0.0918067345
C   C5        1.0  0.62250  0.61200  0.35870  1.0000 0.0918067345
C   C6        1.0  0.87750  0.23620  0.98950  1.0000 0.0918067345
C   C7        1.0  0.75330  0.26380  0.14130  1.0000 0.0918067345
C   C8        1.0  0.74670  0.88800  0.51050  1.0000 0.0918067345
C   C9        1.0  0.35870  0.62250  0.61200  1.0000 0.0918067345
C   C10       1.0  0.98950  0.87750  0.23620  1.0000 0.0918067345
C   C11       1.0  0.14130  0.75330  0.26380  1.0000 0.0918067345
C   C12       1.0  0.51050  0.74670  0.88800  1.0000 0.0918067345
C   C13       1.0  0.53890  0.34880  0.60070  1.0000 -0.1829484603
C   C14       1.0  0.24810  0.93820  0.89930  1.0000 -0.1829484603
C   C15       1.0  0.25190  0.15120  0.69010  1.0000 -0.1829484603
C   C16       1.0  0.96110  0.56180  0.80990  1.0000 -0.1829484603
C   C17       1.0  0.60070  0.53890  0.34880  1.0000 -0.1829484603
C   C18       1.0  0.89930  0.24810  0.93820  1.0000 -0.1829484603
C   C19       1.0  0.69010  0.25190  0.15120  1.0000 -0.1829484603
C   C20       1.0  0.80990  0.96110  0.56180  1.0000 -0.1829484603
C   C21       1.0  0.34880  0.60070  0.53890  1.0000 -0.1829484603
C   C22       1.0  0.93820  0.89930  0.24810  1.0000 -0.1829484603
C   C23       1.0  0.15120  0.69010  0.25190  1.0000 -0.1829484603
C   C24       1.0  0.56180  0.80990  0.96110  1.0000 -0.1829484603
C   C25       1.0  0.49230  0.31790  0.52600  1.0000 -0.0416449108
C   C26       1.0  0.29190  0.96630  0.97400  1.0000 -0.0416449108
C   C27       1.0  0.20810  0.18210  0.67440  1.0000 -0.0416449108
C   C28       1.0  0.00770  0.53370  0.82560  1.0000 -0.0416449108
C   C29       1.0  0.52600  0.49230  0.31790  1.0000 -0.0416449108
C   C30       1.0  0.97400  0.29190  0.96630  1.0000 -0.0416449108
C   C31       1.0  0.67440  0.20810  0.18210  1.0000 -0.0416449108
C   C32       1.0  0.82560  0.00770  0.53370  1.0000 -0.0416449108
C   C33       1.0  0.31790  0.52600  0.49230  1.0000 -0.0416449108
C   C34       1.0  0.96630  0.97400  0.29190  1.0000 -0.0416449108
C   C35       1.0  0.18210  0.67440  0.20810  1.0000 -0.0416449108
C   C36       1.0  0.53370  0.82560  0.00770  1.0000 -0.0416449108
C   C37       1.0  0.51410  0.29210  0.47640  1.0000 -0.2296513681
C   C38       1.0  0.31570  0.03770  0.02360  1.0000 -0.2296513681
C   C39       1.0  0.18430  0.20790  0.72200  1.0000 -0.2296513681
C   C40       1.0  0.98590  0.46230  0.77800  1.0000 -0.2296513681
C   C41       1.0  0.47640  0.51410  0.29210  1.0000 -0.2296513681
C   C42       1.0  0.02360  0.31570  0.03770  1.0000 -0.2296513681
C   C43       1.0  0.72200  0.18430  0.20790  1.0000 -0.2296513681
C   C44       1.0  0.77800  0.98590  0.46230  1.0000 -0.2296513681
C   C45       1.0  0.29210  0.47640  0.51410  1.0000 -0.2296513681
C   C46       1.0  0.03770  0.02360  0.31570  1.0000 -0.2296513681
C   C47       1.0  0.20790  0.72200  0.18430  1.0000 -0.2296513681
C   C48       1.0  0.46230  0.77800  0.98590  1.0000 -0.2296513681
C   C49       1.0  0.58390  0.29890  0.49860  1.0000 0.2856510702
C   C50       1.0  0.30030  0.08530  0.00140  1.0000 0.2848798755
C   C51       1.0  0.19970  0.20110  0.78500  1.0000 0.2848798755
C   C52       1.0  0.91610  0.41470  0.71500  1.0000 0.2856510702
C   C53       1.0  0.49860  0.58390  0.29890  1.0000 0.2856510702
C   C54       1.0  0.00140  0.30030  0.08530  1.0000 0.2848798755
C   C55       1.0  0.78500  0.19970  0.20110  1.0000 0.2848798755
C   C56       1.0  0.71500  0.91610  0.41470  1.0000 0.2848798755
C   C57       1.0  0.29890  0.49860  0.58390  1.0000 0.2856510702
C   C58       1.0  0.08530  0.00140  0.30030  1.0000 0.2848798755
C   C59       1.0  0.20110  0.78500  0.19970  1.0000 0.2856510702
C   C60       1.0  0.41470  0.71500  0.91610  1.0000 0.2856510702
C   C61       1.0  0.69560  0.27180  0.42900  1.0000 0.1866595173
C   C62       1.0  0.34280  0.26660  0.07100  1.0000 0.1866595173
C   C63       1.0  0.15720  0.22820  0.92380  1.0000 0.1866595173
C   C64       1.0  0.80440  0.23340  0.57620  1.0000 0.1866595173
C   C65       1.0  0.42900  0.69560  0.27180  1.0000 0.1866595173
C   C66       1.0  0.07100  0.34280  0.26660  1.0000 0.1866595173
C   C67       1.0  0.92380  0.15720  0.22820  1.0000 0.1866595173
C   C68       1.0  0.57620  0.80440  0.23340  1.0000 0.1866595173
C   C69       1.0  0.27180  0.42900  0.69560  1.0000 0.1866595173
C   C70       1.0  0.26660  0.07100  0.34280  1.0000 0.1866595173
C   C71       1.0  0.22820  0.92380  0.15720  1.0000 0.1866595173
C   C72       1.0  0.23340  0.57620  0.80440  1.0000 0.1866595173
C   C73       1.0  0.63850  0.20660  0.35210  1.0000 -0.5017165021
C   C74       1.0  0.35450  0.28640  0.14790  1.0000 -0.5017165021
C   C75       1.0  0.14550  0.29340  0.93190  1.0000 -0.5017165021
C   C76       1.0  0.86150  0.21360  0.56810  1.0000 -0.5017165021
C   C77       1.0  0.35210  0.63850  0.20660  1.0000 -0.5017165021
C   C78       1.0  0.14790  0.35450  0.28640  1.0000 -0.5017165021
C   C79       1.0  0.93190  0.14550  0.29340  1.0000 -0.5017165021
C   C80       1.0  0.56810  0.86150  0.21360  1.0000 -0.5017165021
C   C81       1.0  0.20660  0.35210  0.63850  1.0000 -0.5017165021
C   C82       1.0  0.28640  0.14790  0.35450  1.0000 -0.5017165021
C   C83       1.0  0.29340  0.93190  0.14550  1.0000 -0.5017165021
C   C84       1.0  0.21360  0.56810  0.86150  1.0000 -0.5017165021
C   C85       1.0  0.77450  0.30200  0.44750  1.0000 0.0215857823
C   C86       1.0  0.35450  0.32700  0.05250  1.0000 0.0215857823
C   C87       1.0  0.14550  0.19800  0.97250  1.0000 0.0215857823
C   C88       1.0  0.72550  0.17300  0.52750  1.0000 0.0215857823
C   C89       1.0  0.44750  0.77450  0.30200  1.0000 0.0215857823
C   C90       1.0  0.05250  0.35450  0.32700  1.0000 0.0215857823
C   C91       1.0  0.97250  0.14550  0.19800  1.0000 0.0215857823
C   C92       1.0  0.52750  0.72550  0.17300  1.0000 0.0215857823
C   C93       1.0  0.30200  0.44750  0.77450  1.0000 0.0215857823
C   C94       1.0  0.32700  0.05250  0.35450  1.0000 0.0215857823
C   C95       1.0  0.19800  0.97250  0.14550  1.0000 0.0215857823
C   C96       1.0  0.17300  0.52750  0.72550  1.0000 0.0215857823
C   C97       1.0  0.79990  0.25820  0.41290  1.0000 -0.191722048
C   C98       1.0  0.34530  0.38700  0.08710  1.0000 -0.191722048
C   C99       1.0  0.15470  0.24180  0.04170  1.0000 -0.191722048
C   C100      1.0  0.70010  0.11300  0.45830  1.0000 -0.191722048
C   C101      1.0  0.41290  0.79990  0.25820  1.0000 -0.191722048
C   C102      1.0  0.08710  0.34530  0.38700  1.0000 -0.191722048
C   C103      1.0  0.04170  0.15470  0.24180  1.0000 -0.191722048
C   C104      1.0  0.45830  0.70010  0.11300  1.0000 -0.191722048
C   C105      1.0  0.25820  0.41290  0.79990  1.0000 -0.191722048
C   C106      1.0  0.38700  0.08710  0.34530  1.0000 -0.191722048
C   C107      1.0  0.24180  0.04170  0.15470  1.0000 -0.191722048
C   C108      1.0  0.11300  0.45830  0.70010  1.0000 -0.191722048
C   C109      1.0  0.87390  0.28540  0.42890  1.0000 -0.191722048
C   C110      1.0  0.35650  0.44500  0.07110  1.0000 -0.191722048
C   C111      1.0  0.14350  0.21460  0.08850  1.0000 -0.191722048
C   C112      1.0  0.62610  0.05500  0.41150  1.0000 -0.191722048
C   C113      1.0  0.42890  0.87390  0.28540  1.0000 -0.191722048
C   C114      1.0  0.07110  0.35650  0.44500  1.0000 -0.191722048
C   C115      1.0  0.08850  0.14350  0.21460  1.0000 -0.191722048
C   C116      1.0  0.41150  0.62610  0.05500  1.0000 -0.191722048
C   C117      1.0  0.28540  0.42890  0.87390  1.0000 -0.191722048
C   C118      1.0  0.44500  0.07110  0.35650  1.0000 -0.191722048
C   C119      1.0  0.21460  0.08850  0.14350  1.0000 -0.191722048
C   C120      1.0  0.05500  0.41150  0.62610  1.0000 -0.191722048
C   C121      1.0  0.92150  0.35300  0.48310  1.0000 0.1401712699
C   C122      1.0  0.36990  0.43840  0.01690  1.0000 0.1401712699
C   C123      1.0  0.13010  0.14700  0.06850  1.0000 0.1401712699
C   C124      1.0  0.57850  0.06160  0.43150  1.0000 0.1401712699
C   C125      1.0  0.48310  0.92150  0.35300  1.0000 0.1401712699
C   C126      1.0  0.01690  0.36990  0.43840  1.0000 0.1401712699
C   C127      1.0  0.06850  0.13010  0.14700  1.0000 0.1401712699
C   C128      1.0  0.43150  0.57850  0.06160  1.0000 0.1401712699
C   C129      1.0  0.35300  0.48310  0.92150  1.0000 0.1401712699
C   C130      1.0  0.43840  0.01690  0.36990  1.0000 0.1401712699
C   C131      1.0  0.14700  0.06850  0.13010  1.0000 0.1401712699
C   C132      1.0  0.06160  0.43150  0.57850  1.0000 0.1401712699
C   C133      1.0  0.90210  0.39950  0.52360  1.0000 -0.1676162296
C   C134      1.0  0.37590  0.37850  0.97640  1.0000 -0.1676162296
C   C135      1.0  0.12410  0.10050  0.00260  1.0000 -0.1676162296
C   C136      1.0  0.59790  0.12150  0.49740  1.0000 -0.1676162296
C   C137      1.0  0.52360  0.90210  0.39950  1.0000 -0.1676162296
C   C138      1.0  0.97640  0.37590  0.37850  1.0000 -0.1676162296
C   C139      1.0  0.00260  0.12410  0.10050  1.0000 -0.1676162296
C   C140      1.0  0.49740  0.59790  0.12150  1.0000 -0.1676162296
C   C141      1.0  0.39950  0.52360  0.90210  1.0000 -0.1676162296
C   C142      1.0  0.37850  0.97640  0.37590  1.0000 -0.1676162296
C   C143      1.0  0.10050  0.00260  0.12410  1.0000 -0.1676162296
C   C144      1.0  0.12150  0.49740  0.59790  1.0000 -0.1676162296
C   C145      1.0  0.83000  0.37130  0.50490  1.0000 -0.1375376807
C   C146      1.0  0.36640  0.32510  0.99510  1.0000 -0.1375376807
C   C147      1.0  0.13360  0.12870  0.95870  1.0000 -0.1375376807
C   C148      1.0  0.67000  0.17490  0.54130  1.0000 -0.1375376807
C   C149      1.0  0.50490  0.83000  0.37130  1.0000 -0.1375376807
C   C150      1.0  0.99510  0.36640  0.32510  1.0000 -0.1375376807
C   C151      1.0  0.95870  0.13360  0.12870  1.0000 -0.1375376807
C   C152      1.0  0.54130  0.67000  0.17490  1.0000 -0.1375376807
C   C153      1.0  0.37130  0.50490  0.83000  1.0000 -0.1375376807
C   C154      1.0  0.32510  0.99510  0.36640  1.0000 -0.1375376807
C   C155      1.0  0.12870  0.95870  0.13360  1.0000 -0.1375376807
C   C156      1.0  0.17490  0.54130  0.67000  1.0000 -0.1375376807
N   N1        1.0  0.63340  0.33420  0.57480  1.0000 -0.2931398477
N   N2        1.0  0.25940  0.05860  0.92520  1.0000 -0.2962646585
N   N3        1.0  0.24060  0.16580  0.79920  1.0000 -0.2962646585
N   N4        1.0  0.86660  0.44140  0.70080  1.0000 -0.2962646585
N   N5        1.0  0.57480  0.63340  0.33420  1.0000 -0.2931398477
N   N6        1.0  0.92520  0.25940  0.05860  1.0000 -0.2931398477
N   N7        1.0  0.79920  0.24060  0.16580  1.0000 -0.2962646585
N   N8        1.0  0.70080  0.86660  0.44140  1.0000 -0.2931398477
N   N9        1.0  0.33420  0.57480  0.63340  1.0000 -0.2962646585
N   N10       1.0  0.05860  0.92520  0.25940  1.0000 -0.2962646585
N   N11       1.0  0.16580  0.79920  0.24060  1.0000 -0.2962646585
N   N12       1.0  0.44140  0.70080  0.86660  1.0000 -0.2962646585
N   N13       1.0  0.60840  0.27870  0.45430  1.0000 -0.1676162296
N   N14       1.0  0.32440  0.15410  0.04570  1.0000 -0.1676162296
N   N15       1.0  0.17560  0.22130  0.82970  1.0000 -0.1676162296
N   N16       1.0  0.89160  0.34590  0.67030  1.0000 -0.1676162296
N   N17       1.0  0.45430  0.60840  0.27870  1.0000 -0.1676162296
N   N18       1.0  0.04570  0.32440  0.15410  1.0000 -0.1676162296
N   N19       1.0  0.82970  0.17560  0.22130  1.0000 -0.1676162296
N   N20       1.0  0.67030  0.89160  0.34590  1.0000 -0.1676162296
N   N21       1.0  0.27870  0.45430  0.60840  1.0000 -0.1676162296
N   N22       1.0  0.15410  0.04570  0.32440  1.0000 -0.1676162296
N   N23       1.0  0.22130  0.82970  0.17560  1.0000 -0.1676162296
N   N24       1.0  0.34590  0.67030  0.89160  1.0000 -0.1676162296
N   N25       1.0  0.68060  0.30300  0.47860  1.0000 -0.2026431139
N   N26       1.0  0.32440  0.20200  0.02140  1.0000 -0.2026431139
N   N27       1.0  0.17560  0.19700  0.87760  1.0000 -0.2026431139
N   N28       1.0  0.81940  0.29800  0.62240  1.0000 -0.2026431139
N   N29       1.0  0.47860  0.68060  0.30300  1.0000 -0.2026431139
N   N30       1.0  0.02140  0.32440  0.20200  1.0000 -0.2026431139
N   N31       1.0  0.87760  0.17560  0.19700  1.0000 -0.2026431139
N   N32       1.0  0.62240  0.81940  0.29800  1.0000 -0.2026431139
N   N33       1.0  0.30300  0.47860  0.68060  1.0000 -0.2026431139
N   N34       1.0  0.20200  0.02140  0.32440  1.0000 -0.2026431139
N   N35       1.0  0.19700  0.87760  0.17560  1.0000 -0.2026431139
N   N36       1.0  0.29800  0.62240  0.81940  1.0000 -0.2026431139
N   N37       1.0  0.00000  0.38700  0.50000  1.0000 -0.2698050764
N   N38       1.0  0.38700  0.50000  0.00000  1.0000 -0.2698050764
N   N39       1.0  0.11300  0.11300  0.11300  1.0000 -0.2698050764
N   N40       1.0  0.50000  0.00000  0.38700  1.0000 -0.2698050764
