# DDEC6 charges by PACMAN v1.1 (https://github.com/mtap-research/PACMAN-charge/)
data_2012[Zn][raa]3[ASR]5
_chemical_formula_sum              "Zn8 H64 C56 N48"
_cell_length_a       10.6825
_cell_length_b       12.3388
_cell_length_c       19.305
_cell_angle_alpha    90
_cell_angle_beta     117.979
_cell_angle_gamma    90

_symmetry_space_group_name_H-M    "P 1"
_symmetry_Int_Tables_number       1

loop_
  _symmetry_equiv_pos_as_xyz
  'x, y, z'

loop_
  _atom_site_type_symbol
  _atom_site_label
  _atom_site_symmetry_multiplicity
  _atom_site_fract_x
  _atom_site_fract_y
  _atom_site_fract_z
  _atom_site_occupancy
  _atom_site_charge
Zn  Zn1       1.0  0.87401  0.73659  0.60091  1.0000 0.676949049
Zn  Zn2       1.0  0.12599  0.23659  0.89909  1.0000 0.676949049
Zn  Zn3       1.0  0.12599  0.26341  0.39909  1.0000 0.676949049
Zn  Zn4       1.0  0.87401  0.76341  0.10091  1.0000 0.676949049
Zn  Zn5       1.0  0.24967  0.74499  0.45659  1.0000 0.676949049
Zn  Zn6       1.0  0.75033  0.24499  0.04341  1.0000 0.676949049
Zn  Zn7       1.0  0.75033  0.25501  0.54341  1.0000 0.676949049
Zn  Zn8       1.0  0.24967  0.75501  0.95659  1.0000 0.676949049
H   H1        1.0  0.14580  0.63680  0.21270  1.0000 0.1613797512
H   H2        1.0  0.85420  0.13680  0.28730  1.0000 0.1613797512
H   H3        1.0  0.85420  0.36320  0.78730  1.0000 0.1613797512
H   H4        1.0  0.14580  0.86320  0.71270  1.0000 0.1613797512
H   H5        1.0  0.28020  0.68180  0.28920  1.0000 0.1613797512
H   H6        1.0  0.71980  0.18180  0.21080  1.0000 0.1613797512
H   H7        1.0  0.71980  0.31820  0.71080  1.0000 0.1613797512
H   H8        1.0  0.28020  0.81820  0.78920  1.0000 0.1613797512
H   H9        1.0  0.18130  0.59080  0.29750  1.0000 0.1613797512
H   H10       1.0  0.81870  0.09080  0.20250  1.0000 0.1613797512
H   H11       1.0  0.81870  0.40920  0.70250  1.0000 0.1613797512
H   H12       1.0  0.18130  0.90920  0.79750  1.0000 0.1613797512
H   H13       1.0  0.87620  0.94450  0.35580  1.0000 0.1613797512
H   H14       1.0  0.12380  0.44450  0.14420  1.0000 0.1613797512
H   H15       1.0  0.12380  0.05550  0.64420  1.0000 0.1613797512
H   H16       1.0  0.87620  0.55550  0.85580  1.0000 0.1613797512
H   H17       1.0  0.03710  0.98480  0.39530  1.0000 0.15145491
H   H18       1.0  0.96290  0.48480  0.10470  1.0000 0.15145491
H   H19       1.0  0.96290  0.01520  0.60470  1.0000 0.15145491
H   H20       1.0  0.03710  0.51520  0.89530  1.0000 0.15145491
H   H21       1.0  0.19020  0.68160  0.66180  1.0000 0.15145491
H   H22       1.0  0.80980  0.18160  0.83820  1.0000 0.15145491
H   H23       1.0  0.80980  0.31840  0.33820  1.0000 0.15145491
H   H24       1.0  0.19020  0.81840  0.16180  1.0000 0.15145491
H   H25       1.0  0.24530  0.63890  0.60260  1.0000 0.1613797512
H   H26       1.0  0.75470  0.13890  0.89740  1.0000 0.1613797512
H   H27       1.0  0.75470  0.36110  0.39740  1.0000 0.1613797512
H   H28       1.0  0.24530  0.86110  0.10260  1.0000 0.1613797512
H   H29       1.0  0.31110  0.74680  0.65260  1.0000 0.1702626074
H   H30       1.0  0.68890  0.24680  0.84740  1.0000 0.1702626074
H   H31       1.0  0.68890  0.25320  0.34740  1.0000 0.1702626074
H   H32       1.0  0.31110  0.75320  0.15260  1.0000 0.1702626074
H   H33       1.0  0.65420  0.99370  0.67380  1.0000 0.1613797512
H   H34       1.0  0.34580  0.49370  0.82620  1.0000 0.1613797512
H   H35       1.0  0.34580  0.00630  0.32620  1.0000 0.1613797512
H   H36       1.0  0.65420  0.50630  0.17380  1.0000 0.1613797512
H   H37       1.0  0.77930  0.90610  0.70680  1.0000 0.15145491
H   H38       1.0  0.22070  0.40610  0.79320  1.0000 0.15145491
H   H39       1.0  0.22070  0.09390  0.29320  1.0000 0.15145491
H   H40       1.0  0.77930  0.59390  0.20680  1.0000 0.15145491
H   H41       1.0  0.77190  0.99510  0.64470  1.0000 0.15145491
H   H42       1.0  0.22810  0.49510  0.85530  1.0000 0.15145491
H   H43       1.0  0.22810  0.00490  0.35530  1.0000 0.15145491
H   H44       1.0  0.77190  0.50490  0.14470  1.0000 0.15145491
H   H45       1.0  0.46920  0.63260  0.42600  1.0000 0.15145491
H   H46       1.0  0.53080  0.13260  0.07400  1.0000 0.15145491
H   H47       1.0  0.53080  0.36740  0.57400  1.0000 0.15145491
H   H48       1.0  0.46920  0.86740  0.92600  1.0000 0.15145491
H   H49       1.0  0.59080  0.69600  0.41650  1.0000 0.1613797512
H   H50       1.0  0.40920  0.19600  0.08350  1.0000 0.1613797512
H   H51       1.0  0.40920  0.30400  0.58350  1.0000 0.1613797512
H   H52       1.0  0.59080  0.80400  0.91650  1.0000 0.1613797512
H   H53       1.0  0.01900  0.38510  0.63630  1.0000 0.15145491
H   H54       1.0  0.98100  0.88510  0.86370  1.0000 0.15145491
H   H55       1.0  0.98100  0.61490  0.36370  1.0000 0.15145491
H   H56       1.0  0.01900  0.11490  0.13630  1.0000 0.15145491
H   H57       1.0  0.07020  0.48800  0.60590  1.0000 0.1613797512
H   H58       1.0  0.92980  0.98800  0.89410  1.0000 0.1613797512
H   H59       1.0  0.92980  0.51200  0.39410  1.0000 0.1613797512
H   H60       1.0  0.07020  0.01200  0.10590  1.0000 0.1613797512
H   H61       1.0  0.03500  0.50050  0.67740  1.0000 0.1613797512
H   H62       1.0  0.96500  0.00050  0.82260  1.0000 0.1613797512
H   H63       1.0  0.96500  0.49950  0.32260  1.0000 0.1613797512
H   H64       1.0  0.03500  0.99950  0.17740  1.0000 0.1613797512
C   C1        1.0  0.18262  0.65530  0.26822  1.0000 -0.5340047454
C   C2        1.0  0.81738  0.15530  0.23178  1.0000 -0.5340047454
C   C3        1.0  0.81738  0.34470  0.73178  1.0000 -0.5340047454
C   C4        1.0  0.18262  0.84470  0.76822  1.0000 -0.5340047454
C   C5        1.0  0.09251  0.74134  0.27631  1.0000 0.3942811514
C   C6        1.0  0.90749  0.24134  0.22369  1.0000 0.3942811514
C   C7        1.0  0.90749  0.25866  0.72369  1.0000 0.3942811514
C   C8        1.0  0.09251  0.75866  0.77631  1.0000 0.3942811514
C   C9        1.0  0.00093  0.85260  0.32413  1.0000 0.3524102593
C   C10       1.0  0.99907  0.35260  0.17587  1.0000 0.3524102593
C   C11       1.0  0.99907  0.14740  0.67587  1.0000 0.3524102593
C   C12       1.0  0.00093  0.64740  0.82413  1.0000 0.3524102593
C   C13       1.0  0.97601  0.91960  0.38161  1.0000 -0.3698579048
C   C14       1.0  0.02399  0.41960  0.11839  1.0000 -0.3698579048
C   C15       1.0  0.02399  0.08040  0.61839  1.0000 -0.3698579048
C   C16       1.0  0.97601  0.58040  0.88161  1.0000 -0.3698579048
C   C17       1.0  0.00504  0.86096  0.45584  1.0000 0.3615265625
C   C18       1.0  0.99496  0.36096  0.04416  1.0000 0.3615265625
C   C19       1.0  0.99496  0.13904  0.54416  1.0000 0.3615265625
C   C20       1.0  0.00504  0.63904  0.95584  1.0000 0.3615265625
C   C21       1.0  0.11426  0.76944  0.56086  1.0000 0.4065093721
C   C22       1.0  0.88574  0.26944  0.93914  1.0000 0.4065093721
C   C23       1.0  0.88574  0.23056  0.43914  1.0000 0.4065093721
C   C24       1.0  0.11426  0.73056  0.06086  1.0000 0.4065093721
C   C25       1.0  0.22463  0.70360  0.62493  1.0000 -0.5388281097
C   C26       1.0  0.77537  0.20360  0.87507  1.0000 -0.5388281097
C   C27       1.0  0.77537  0.29640  0.37507  1.0000 -0.5388281097
C   C28       1.0  0.22463  0.79640  0.12493  1.0000 -0.5388281097
C   C29       1.0  0.71570  0.94860  0.66080  1.0000 -0.5175232416
C   C30       1.0  0.28430  0.44860  0.83920  1.0000 -0.5175232416
C   C31       1.0  0.28430  0.05140  0.33920  1.0000 -0.5175232416
C   C32       1.0  0.71570  0.55140  0.16080  1.0000 -0.5175232416
C   C33       1.0  0.62735  0.87410  0.59555  1.0000 0.4065093721
C   C34       1.0  0.37265  0.37410  0.90445  1.0000 0.4065093721
C   C35       1.0  0.37265  0.12590  0.40445  1.0000 0.4065093721
C   C36       1.0  0.62735  0.62590  0.09555  1.0000 0.4065093721
C   C37       1.0  0.56405  0.75051  0.50855  1.0000 0.3689186001
C   C38       1.0  0.43595  0.25051  0.99145  1.0000 0.3689186001
C   C39       1.0  0.43595  0.24949  0.49145  1.0000 0.3689186001
C   C40       1.0  0.56405  0.74949  0.00855  1.0000 0.3689186001
C   C41       1.0  0.56576  0.66334  0.45526  1.0000 -0.3821601396
C   C42       1.0  0.43424  0.16334  0.04474  1.0000 -0.3821601396
C   C43       1.0  0.43424  0.33666  0.54474  1.0000 -0.3821601396
C   C44       1.0  0.56576  0.83666  0.95526  1.0000 -0.3821601396
C   C45       1.0  0.66776  0.57316  0.49696  1.0000 0.3615265625
C   C46       1.0  0.33224  0.07316  0.00304  1.0000 0.3615265625
C   C47       1.0  0.33224  0.42684  0.50304  1.0000 0.3615265625
C   C48       1.0  0.66776  0.92684  0.99696  1.0000 0.3615265625
C   C49       1.0  0.85687  0.48942  0.57077  1.0000 0.4065093721
C   C50       1.0  0.14313  0.98942  0.92923  1.0000 0.4065093721
C   C51       1.0  0.14313  0.51058  0.42923  1.0000 0.4065093721
C   C52       1.0  0.85687  0.01058  0.07077  1.0000 0.4065093721
C   C53       1.0  0.00855  0.46350  0.62755  1.0000 -0.5388281097
C   C54       1.0  0.99145  0.96350  0.87245  1.0000 -0.5388281097
C   C55       1.0  0.99145  0.53650  0.37245  1.0000 -0.5388281097
C   C56       1.0  0.00855  0.03650  0.12755  1.0000 -0.5388281097
N   N1        1.0  0.68107  0.79953  0.56428  1.0000 -0.4395158714
N   N2        1.0  0.31893  0.29953  0.93572  1.0000 -0.4395158714
N   N3        1.0  0.31893  0.20047  0.43572  1.0000 -0.4395158714
N   N4        1.0  0.68107  0.70047  0.06428  1.0000 -0.4395158714
N   N5        1.0  0.48773  0.87308  0.56223  1.0000 -0.2952816462
N   N6        1.0  0.51227  0.37308  0.93777  1.0000 -0.2952816462
N   N7        1.0  0.51227  0.12692  0.43777  1.0000 -0.2952816462
N   N8        1.0  0.48773  0.62692  0.06223  1.0000 -0.2952816462
N   N9        1.0  0.44752  0.79223  0.50553  1.0000 -0.2793572123
N   N10       1.0  0.55248  0.29223  0.99447  1.0000 -0.2793572123
N   N11       1.0  0.55248  0.20777  0.49447  1.0000 -0.2793572123
N   N12       1.0  0.44752  0.70777  0.00553  1.0000 -0.2793572123
N   N13       1.0  0.80590  0.59022  0.55065  1.0000 -0.4395158714
N   N14       1.0  0.19410  0.09022  0.94935  1.0000 -0.4395158714
N   N15       1.0  0.19410  0.40978  0.44935  1.0000 -0.4395158714
N   N16       1.0  0.80590  0.90978  0.05065  1.0000 -0.4395158714
N   N17       1.0  0.63305  0.47008  0.48414  1.0000 -0.2906220978
N   N18       1.0  0.36695  0.97008  0.01586  1.0000 -0.2906220978
N   N19       1.0  0.36695  0.52992  0.51586  1.0000 -0.2906220978
N   N20       1.0  0.63305  0.02992  0.98414  1.0000 -0.2906220978
N   N21       1.0  0.75769  0.41577  0.53336  1.0000 -0.2793572123
N   N22       1.0  0.24231  0.91577  0.96664  1.0000 -0.2793572123
N   N23       1.0  0.24231  0.58423  0.46664  1.0000 -0.2793572123
N   N24       1.0  0.75769  0.08423  0.03336  1.0000 -0.2793572123
N   N25       1.0  0.98984  0.79903  0.55525  1.0000 -0.2906220978
N   N26       1.0  0.01016  0.29903  0.94475  1.0000 -0.2906220978
N   N27       1.0  0.01016  0.20097  0.44475  1.0000 -0.2906220978
N   N28       1.0  0.98984  0.70097  0.05525  1.0000 -0.2906220978
N   N29       1.0  0.91805  0.85881  0.48654  1.0000 -0.2906220978
N   N30       1.0  0.08195  0.35881  0.01346  1.0000 -0.2906220978
N   N31       1.0  0.08195  0.14119  0.51346  1.0000 -0.2906220978
N   N32       1.0  0.91805  0.64119  0.98654  1.0000 -0.2906220978
N   N33       1.0  0.12888  0.80692  0.49965  1.0000 -0.4332379674
N   N34       1.0  0.87112  0.30692  0.00035  1.0000 -0.4332379674
N   N35       1.0  0.87112  0.19308  0.50035  1.0000 -0.4332379674
N   N36       1.0  0.12888  0.69308  0.99965  1.0000 -0.4332379674
N   N37       1.0  0.11379  0.78417  0.34494  1.0000 -0.454185543
N   N38       1.0  0.88621  0.28417  0.15506  1.0000 -0.454185543
N   N39       1.0  0.88621  0.21583  0.65506  1.0000 -0.454185543
N   N40       1.0  0.11379  0.71583  0.84494  1.0000 -0.454185543
N   N41       1.0  0.91703  0.85559  0.24826  1.0000 -0.2906220978
N   N42       1.0  0.08297  0.35559  0.25174  1.0000 -0.2906220978
N   N43       1.0  0.08297  0.14441  0.75174  1.0000 -0.2906220978
N   N44       1.0  0.91703  0.64441  0.74826  1.0000 -0.2906220978
N   N45       1.0  0.97680  0.78242  0.21716  1.0000 -0.2793572123
N   N46       1.0  0.02320  0.28242  0.28284  1.0000 -0.2793572123
N   N47       1.0  0.02320  0.21758  0.78284  1.0000 -0.2793572123
N   N48       1.0  0.97680  0.71758  0.71716  1.0000 -0.2793572123
