# DDEC6 charges by PACMAN v1.1 (https://github.com/mtap-research/PACMAN-charge/)
data_2012[Cu][nan]3[ASR]1
_chemical_formula_sum              "Cu12 H136 C192 N8 O48"
_cell_length_a       33.506
_cell_length_b       33.506
_cell_length_c       33.506
_cell_angle_alpha    146.78
_cell_angle_beta     146.78
_cell_angle_gamma    47.6902

_symmetry_space_group_name_H-M    "P 1"
_symmetry_Int_Tables_number       1

loop_
  _symmetry_equiv_pos_as_xyz
  'x, y, z'

loop_
  _atom_site_type_symbol
  _atom_site_label
  _atom_site_symmetry_multiplicity
  _atom_site_fract_x
  _atom_site_fract_y
  _atom_site_fract_z
  _atom_site_occupancy
  _atom_site_charge
Cu  Cu1       1.0  0.37723  0.55853  0.18130  1.0000 0.7010729712
Cu  Cu2       1.0  0.37723  0.19593  0.81870  1.0000 0.7010729712
Cu  Cu3       1.0  0.37277  0.05407  0.68130  1.0000 0.7010729712
Cu  Cu4       1.0  0.37277  0.69147  0.31870  1.0000 0.7010729712
Cu  Cu5       1.0  0.44147  0.62277  0.81870  1.0000 0.7010729712
Cu  Cu6       1.0  0.80407  0.62277  0.18130  1.0000 0.7010729712
Cu  Cu7       1.0  0.94593  0.62723  0.31870  1.0000 0.7010729712
Cu  Cu8       1.0  0.30853  0.62723  0.68130  1.0000 0.7010729712
Cu  Cu9       1.0  0.77143  0.27143  0.50000  1.0000 0.858222003
Cu  Cu10      1.0  0.97857  0.97857  0.00000  1.0000 0.858222003
Cu  Cu11      1.0  0.72857  0.22857  0.50000  1.0000 0.858222003
Cu  Cu12      1.0  0.02143  0.02143  0.00000  1.0000 0.858222003
H   H1        1.0  0.45880  0.65580  0.47900  1.0000 0.1271789169
H   H2        1.0  0.17680  0.97980  0.52100  1.0000 0.1271789169
H   H3        1.0  0.29120  0.27020  0.69700  1.0000 0.1271789169
H   H4        1.0  0.57320  0.59420  0.30300  1.0000 0.1271789169
H   H5        1.0  0.34420  0.54120  0.52100  1.0000 0.1271789169
H   H6        1.0  0.02020  0.82320  0.47900  1.0000 0.1271789169
H   H7        1.0  0.72980  0.70880  0.30300  1.0000 0.1271789169
H   H8        1.0  0.40580  0.42680  0.69700  1.0000 0.1271789169
H   H9        1.0  0.29120  0.59420  0.02100  1.0000 0.1271789169
H   H10       1.0  0.57320  0.27020  0.97900  1.0000 0.1271789169
H   H11       1.0  0.45880  0.97980  0.80300  1.0000 0.1271789169
H   H12       1.0  0.17680  0.65580  0.19700  1.0000 0.1271789169
H   H13       1.0  0.40580  0.70880  0.97900  1.0000 0.1271789169
H   H14       1.0  0.72980  0.42680  0.02100  1.0000 0.1271789169
H   H15       1.0  0.02020  0.54120  0.19700  1.0000 0.1271789169
H   H16       1.0  0.34420  0.82320  0.80300  1.0000 0.1271789169
H   H17       1.0  0.49550  0.61160  0.53330  1.0000 0.1201346276
H   H18       1.0  0.07830  0.96220  0.46670  1.0000 0.1201346276
H   H19       1.0  0.25450  0.28780  0.61610  1.0000 0.1201346276
H   H20       1.0  0.67170  0.63840  0.38390  1.0000 0.1201346276
H   H21       1.0  0.38840  0.50450  0.46670  1.0000 0.1201346276
H   H22       1.0  0.03780  0.92170  0.53330  1.0000 0.1201346276
H   H23       1.0  0.71220  0.74550  0.38390  1.0000 0.1201346276
H   H24       1.0  0.36160  0.32830  0.61610  1.0000 0.1201346276
H   H25       1.0  0.25450  0.63840  0.96670  1.0000 0.1201346276
H   H26       1.0  0.67170  0.28780  0.03330  1.0000 0.1201346276
H   H27       1.0  0.49550  0.96220  0.88390  1.0000 0.1201346276
H   H28       1.0  0.07830  0.61160  0.11610  1.0000 0.1201346276
H   H29       1.0  0.36160  0.74550  0.03330  1.0000 0.1201346276
H   H30       1.0  0.71220  0.32830  0.96670  1.0000 0.1201346276
H   H31       1.0  0.03780  0.50450  0.11610  1.0000 0.1201346276
H   H32       1.0  0.38840  0.92170  0.88390  1.0000 0.1201346276
H   H33       1.0  0.51060  0.41560  0.33260  1.0000 0.1201346276
H   H34       1.0  0.08300  0.17800  0.66740  1.0000 0.1201346276
H   H35       1.0  0.23940  0.07200  0.40500  1.0000 0.1201346276
H   H36       1.0  0.66700  0.83440  0.59500  1.0000 0.1201346276
H   H37       1.0  0.58440  0.48940  0.66740  1.0000 0.1201346276
H   H38       1.0  0.82200  0.91700  0.33260  1.0000 0.1201346276
H   H39       1.0  0.92800  0.76060  0.59500  1.0000 0.1201346276
H   H40       1.0  0.16560  0.33300  0.40500  1.0000 0.1201346276
H   H41       1.0  0.23940  0.83440  0.16740  1.0000 0.1201346276
H   H42       1.0  0.66700  0.07200  0.83260  1.0000 0.1201346276
H   H43       1.0  0.51060  0.17800  0.09500  1.0000 0.1201346276
H   H44       1.0  0.08300  0.41560  0.90500  1.0000 0.1201346276
H   H45       1.0  0.16560  0.76060  0.83260  1.0000 0.1201346276
H   H46       1.0  0.92800  0.33300  0.16740  1.0000 0.1201346276
H   H47       1.0  0.82200  0.48940  0.90500  1.0000 0.1201346276
H   H48       1.0  0.58440  0.91700  0.09500  1.0000 0.1201346276
H   H49       1.0  0.47280  0.45880  0.27680  1.0000 0.1201346276
H   H50       1.0  0.18200  0.19600  0.72320  1.0000 0.1201346276
H   H51       1.0  0.27720  0.05400  0.48600  1.0000 0.1201346276
H   H52       1.0  0.56800  0.79120  0.51400  1.0000 0.1201346276
H   H53       1.0  0.54120  0.52720  0.72320  1.0000 0.1201346276
H   H54       1.0  0.80400  0.81800  0.27680  1.0000 0.1201346276
H   H55       1.0  0.94600  0.72280  0.51400  1.0000 0.1201346276
H   H56       1.0  0.20880  0.43200  0.48600  1.0000 0.1201346276
H   H57       1.0  0.27720  0.79120  0.22320  1.0000 0.1201346276
H   H58       1.0  0.56800  0.05400  0.77680  1.0000 0.1201346276
H   H59       1.0  0.47280  0.19600  0.01400  1.0000 0.1201346276
H   H60       1.0  0.18200  0.45880  0.98600  1.0000 0.1201346276
H   H61       1.0  0.20880  0.72280  0.77680  1.0000 0.1201346276
H   H62       1.0  0.94600  0.43200  0.22320  1.0000 0.1201346276
H   H63       1.0  0.80400  0.52720  0.98600  1.0000 0.1201346276
H   H64       1.0  0.54120  0.81800  0.01400  1.0000 0.1201346276
H   H65       1.0  0.46610  0.53390  0.50000  1.0000 0.1113963423
H   H66       1.0  0.03390  0.96610  0.50000  1.0000 0.1113963423
H   H67       1.0  0.28390  0.28390  0.56780  1.0000 0.1113963423
H   H68       1.0  0.71610  0.71610  0.43220  1.0000 0.1113963423
H   H69       1.0  0.28390  0.71610  0.00000  1.0000 0.1113963423
H   H70       1.0  0.71610  0.28390  0.00000  1.0000 0.1113963423
H   H71       1.0  0.46610  0.96610  0.93220  1.0000 0.1113963423
H   H72       1.0  0.03390  0.53390  0.06780  1.0000 0.1113963423
H   H73       1.0  0.60420  0.41590  0.45750  1.0000 0.1271789169
H   H74       1.0  0.95840  0.14670  0.54250  1.0000 0.1271789169
H   H75       1.0  0.14580  0.10330  0.31170  1.0000 0.1271789169
H   H76       1.0  0.79160  0.83410  0.68830  1.0000 0.1271789169
H   H77       1.0  0.58410  0.39580  0.54250  1.0000 0.1271789169
H   H78       1.0  0.85330  0.04160  0.45750  1.0000 0.1271789169
H   H79       1.0  0.89670  0.85420  0.68830  1.0000 0.1271789169
H   H80       1.0  0.16590  0.20840  0.31170  1.0000 0.1271789169
H   H81       1.0  0.14580  0.83410  0.04250  1.0000 0.1271789169
H   H82       1.0  0.79160  0.10330  0.95750  1.0000 0.1271789169
H   H83       1.0  0.60420  0.14670  0.18830  1.0000 0.1271789169
H   H84       1.0  0.95840  0.41590  0.81170  1.0000 0.1271789169
H   H85       1.0  0.16590  0.85420  0.95750  1.0000 0.1271789169
H   H86       1.0  0.89670  0.20840  0.04250  1.0000 0.1271789169
H   H87       1.0  0.85330  0.39580  0.81170  1.0000 0.1271789169
H   H88       1.0  0.58410  0.04160  0.18830  1.0000 0.1271789169
H   H89       1.0  0.46340  0.46070  0.11710  1.0000 0.1201346276
H   H90       1.0  0.34360  0.34630  0.88290  1.0000 0.1201346276
H   H91       1.0  0.28660  0.90370  0.49730  1.0000 0.1201346276
H   H92       1.0  0.40640  0.78930  0.50270  1.0000 0.1201346276
H   H93       1.0  0.53930  0.53660  0.88290  1.0000 0.1201346276
H   H94       1.0  0.65370  0.65640  0.11710  1.0000 0.1201346276
H   H95       1.0  0.09630  0.71340  0.50270  1.0000 0.1201346276
H   H96       1.0  0.21070  0.59360  0.49730  1.0000 0.1201346276
H   H97       1.0  0.28660  0.78930  0.38290  1.0000 0.1201346276
H   H98       1.0  0.40640  0.90370  0.61710  1.0000 0.1201346276
H   H99       1.0  0.46340  0.34630  0.00270  1.0000 0.1201346276
H   H100      1.0  0.34360  0.46070  0.99730  1.0000 0.1201346276
H   H101      1.0  0.21070  0.71340  0.61710  1.0000 0.1201346276
H   H102      1.0  0.09630  0.59360  0.38290  1.0000 0.1201346276
H   H103      1.0  0.65370  0.53660  0.99730  1.0000 0.1201346276
H   H104      1.0  0.53930  0.65640  0.00270  1.0000 0.1201346276
H   H105      1.0  0.48190  0.43850  0.15780  1.0000 0.1271789169
H   H106      1.0  0.28070  0.32410  0.84220  1.0000 0.1271789169
H   H107      1.0  0.26810  0.92590  0.45660  1.0000 0.1271789169
H   H108      1.0  0.46930  0.81150  0.54340  1.0000 0.1271789169
H   H109      1.0  0.56150  0.51810  0.84220  1.0000 0.1271789169
H   H110      1.0  0.67590  0.71930  0.15780  1.0000 0.1271789169
H   H111      1.0  0.07410  0.73190  0.54340  1.0000 0.1271789169
H   H112      1.0  0.18850  0.53070  0.45660  1.0000 0.1271789169
H   H113      1.0  0.26810  0.81150  0.34220  1.0000 0.1271789169
H   H114      1.0  0.46930  0.92590  0.65780  1.0000 0.1271789169
H   H115      1.0  0.48190  0.32410  0.04340  1.0000 0.1271789169
H   H116      1.0  0.28070  0.43850  0.95660  1.0000 0.1271789169
H   H117      1.0  0.18850  0.73190  0.65780  1.0000 0.1271789169
H   H118      1.0  0.07410  0.53070  0.34220  1.0000 0.1271789169
H   H119      1.0  0.67590  0.51810  0.95660  1.0000 0.1271789169
H   H120      1.0  0.56150  0.71930  0.04340  1.0000 0.1271789169
H   H121      1.0  0.30840  0.40680  0.01720  1.0000 0.1201346276
H   H122      1.0  0.38960  0.29120  0.98280  1.0000 0.1201346276
H   H123      1.0  0.44160  0.95880  0.59840  1.0000 0.1201346276
H   H124      1.0  0.36040  0.84320  0.40160  1.0000 0.1201346276
H   H125      1.0  0.59320  0.69160  0.98280  1.0000 0.1201346276
H   H126      1.0  0.70880  0.61040  0.01720  1.0000 0.1201346276
H   H127      1.0  0.04120  0.55840  0.40160  1.0000 0.1201346276
H   H128      1.0  0.15680  0.63960  0.59840  1.0000 0.1201346276
H   H129      1.0  0.44160  0.84320  0.48280  1.0000 0.1201346276
H   H130      1.0  0.36040  0.95880  0.51720  1.0000 0.1201346276
H   H131      1.0  0.30840  0.29120  0.90160  1.0000 0.1201346276
H   H132      1.0  0.38960  0.40680  0.09840  1.0000 0.1201346276
H   H133      1.0  0.15680  0.55840  0.51720  1.0000 0.1201346276
H   H134      1.0  0.04120  0.63960  0.48280  1.0000 0.1201346276
H   H135      1.0  0.70880  0.69160  0.09840  1.0000 0.1201346276
H   H136      1.0  0.59320  0.61040  0.90160  1.0000 0.1201346276
C   C1        1.0  0.43466  0.58879  0.33329  1.0000 0.5525543232
C   C2        1.0  0.25550  0.10137  0.66667  1.0000 0.5525543232
C   C3        1.0  0.31534  0.14863  0.65413  1.0000 0.5525543232
C   C4        1.0  0.49450  0.66121  0.34587  1.0000 0.5525543232
C   C5        1.0  0.41121  0.56534  0.66667  1.0000 0.5525543232
C   C6        1.0  0.89863  0.74450  0.33329  1.0000 0.5525543232
C   C7        1.0  0.85137  0.68466  0.34587  1.0000 0.5525543232
C   C8        1.0  0.33879  0.50550  0.65413  1.0000 0.5525543232
C   C9        1.0  0.31534  0.66121  0.16671  1.0000 0.5525543232
C   C10       1.0  0.49450  0.14863  0.83329  1.0000 0.5525543232
C   C11       1.0  0.43466  0.10137  0.84587  1.0000 0.5525543232
C   C12       1.0  0.25550  0.58879  0.15413  1.0000 0.5525543232
C   C13       1.0  0.33879  0.68466  0.83329  1.0000 0.5525543232
C   C14       1.0  0.85137  0.50550  0.16671  1.0000 0.5525543232
C   C15       1.0  0.89863  0.56534  0.15413  1.0000 0.5525543232
C   C16       1.0  0.41121  0.74450  0.84587  1.0000 0.5525543232
C   C17       1.0  0.46170  0.56177  0.37203  1.0000 -0.0319830428
C   C18       1.0  0.18974  0.08967  0.62797  1.0000 -0.0319830428
C   C19       1.0  0.28830  0.16033  0.60007  1.0000 -0.0319830428
C   C20       1.0  0.56026  0.68823  0.39993  1.0000 -0.0319830428
C   C21       1.0  0.43823  0.53830  0.62797  1.0000 -0.0319830428
C   C22       1.0  0.91033  0.81026  0.37203  1.0000 -0.0319830428
C   C23       1.0  0.83967  0.71170  0.39993  1.0000 -0.0319830428
C   C24       1.0  0.31177  0.43974  0.60007  1.0000 -0.0319830428
C   C25       1.0  0.28830  0.68823  0.12797  1.0000 -0.0319830428
C   C26       1.0  0.56026  0.16033  0.87203  1.0000 -0.0319830428
C   C27       1.0  0.46170  0.08967  0.89993  1.0000 -0.0319830428
C   C28       1.0  0.18974  0.56177  0.10007  1.0000 -0.0319830428
C   C29       1.0  0.31177  0.71170  0.87203  1.0000 -0.0319830428
C   C30       1.0  0.83967  0.43974  0.12797  1.0000 -0.0319830428
C   C31       1.0  0.91033  0.53830  0.10007  1.0000 -0.0319830428
C   C32       1.0  0.43823  0.81026  0.89993  1.0000 -0.0319830428
C   C33       1.0  0.46894  0.60720  0.44904  1.0000 -0.1055468854
C   C34       1.0  0.15816  0.01990  0.55096  1.0000 -0.1055468854
C   C35       1.0  0.28106  0.23010  0.63826  1.0000 -0.1055468854
C   C36       1.0  0.59184  0.64280  0.36174  1.0000 -0.1055468854
C   C37       1.0  0.39280  0.53106  0.55096  1.0000 -0.1055468854
C   C38       1.0  0.98010  0.84184  0.44904  1.0000 -0.1055468854
C   C39       1.0  0.76990  0.71894  0.36174  1.0000 -0.1055468854
C   C40       1.0  0.35720  0.40816  0.63826  1.0000 -0.1055468854
C   C41       1.0  0.28106  0.64280  0.05096  1.0000 -0.1055468854
C   C42       1.0  0.59184  0.23010  0.94904  1.0000 -0.1046222422
C   C43       1.0  0.46894  0.01990  0.86174  1.0000 -0.1055468854
C   C44       1.0  0.15816  0.60720  0.13826  1.0000 -0.1055468854
C   C45       1.0  0.35720  0.71894  0.94904  1.0000 -0.1046222422
C   C46       1.0  0.76990  0.40816  0.05096  1.0000 -0.1055468854
C   C47       1.0  0.98010  0.53106  0.13826  1.0000 -0.1055468854
C   C48       1.0  0.39280  0.84184  0.86174  1.0000 -0.1055468854
C   C49       1.0  0.49124  0.58075  0.48187  1.0000 -0.1488540845
C   C50       1.0  0.09888  0.00937  0.51813  1.0000 -0.1488540845
C   C51       1.0  0.25876  0.24063  0.58951  1.0000 -0.1488540845
C   C52       1.0  0.65112  0.66925  0.41049  1.0000 -0.1488540845
C   C53       1.0  0.41925  0.50876  0.51813  1.0000 -0.1488540845
C   C54       1.0  0.99063  0.90112  0.48187  1.0000 -0.1488540845
C   C55       1.0  0.75937  0.74124  0.41049  1.0000 -0.1488540845
C   C56       1.0  0.33075  0.34888  0.58951  1.0000 -0.1488540845
C   C57       1.0  0.25876  0.66925  0.01813  1.0000 -0.1488540845
C   C58       1.0  0.65112  0.24063  0.98187  1.0000 -0.1488540845
C   C59       1.0  0.49124  0.00937  0.91049  1.0000 -0.1488540845
C   C60       1.0  0.09888  0.58075  0.08951  1.0000 -0.1488540845
C   C61       1.0  0.33075  0.74124  0.98187  1.0000 -0.1488540845
C   C62       1.0  0.75937  0.34888  0.01813  1.0000 -0.1488540845
C   C63       1.0  0.99063  0.50876  0.08951  1.0000 -0.1488540845
C   C64       1.0  0.41925  0.90112  0.91049  1.0000 -0.1488540845
C   C65       1.0  0.50722  0.50881  0.43887  1.0000 0.0768334329
C   C66       1.0  0.06994  0.06835  0.56113  1.0000 0.0768334329
C   C67       1.0  0.24278  0.18165  0.50159  1.0000 0.0768334329
C   C68       1.0  0.68006  0.74119  0.49841  1.0000 0.0768334329
C   C69       1.0  0.49119  0.49278  0.56113  1.0000 0.0768334329
C   C70       1.0  0.93165  0.93006  0.43887  1.0000 0.0768334329
C   C71       1.0  0.81835  0.75722  0.49841  1.0000 0.0768334329
C   C72       1.0  0.25881  0.31994  0.50159  1.0000 0.0768334329
C   C73       1.0  0.24278  0.74119  0.06113  1.0000 0.0768334329
C   C74       1.0  0.68006  0.18165  0.93887  1.0000 0.0768334329
C   C75       1.0  0.50722  0.06835  0.99841  1.0000 0.0768334329
C   C76       1.0  0.06994  0.50881  0.00159  1.0000 0.0768334329
C   C77       1.0  0.25881  0.75722  0.93887  1.0000 0.0768334329
C   C78       1.0  0.81835  0.31994  0.06113  1.0000 0.0768334329
C   C79       1.0  0.93165  0.49278  0.00159  1.0000 0.0768334329
C   C80       1.0  0.49119  0.93006  0.99841  1.0000 0.0768334329
C   C81       1.0  0.50003  0.46408  0.36223  1.0000 -0.1488540845
C   C82       1.0  0.10185  0.13780  0.63777  1.0000 -0.1488540845
C   C83       1.0  0.24997  0.11220  0.46405  1.0000 -0.1488540845
C   C84       1.0  0.64815  0.78592  0.53595  1.0000 -0.1488540845
C   C85       1.0  0.53592  0.49997  0.63777  1.0000 -0.1488540845
C   C86       1.0  0.86220  0.89815  0.36223  1.0000 -0.1488540845
C   C87       1.0  0.88780  0.75003  0.53595  1.0000 -0.1488540845
C   C88       1.0  0.21408  0.35185  0.46405  1.0000 -0.1488540845
C   C89       1.0  0.24997  0.78592  0.13777  1.0000 -0.1488540845
C   C90       1.0  0.64815  0.11220  0.86223  1.0000 -0.1488540845
C   C91       1.0  0.50003  0.13780  0.03595  1.0000 -0.1488540845
C   C92       1.0  0.10185  0.46408  0.96405  1.0000 -0.1488540845
C   C93       1.0  0.21408  0.75003  0.86223  1.0000 -0.1488540845
C   C94       1.0  0.88780  0.35185  0.13777  1.0000 -0.1488540845
C   C95       1.0  0.86220  0.49997  0.96405  1.0000 -0.1488540845
C   C96       1.0  0.53592  0.89815  0.03595  1.0000 -0.1488540845
C   C97       1.0  0.47742  0.48981  0.32859  1.0000 -0.1055468854
C   C98       1.0  0.16122  0.14883  0.67141  1.0000 -0.1046222422
C   C99       1.0  0.27258  0.10117  0.51239  1.0000 -0.1055468854
C   C100      1.0  0.58878  0.76019  0.48761  1.0000 -0.1055468854
C   C101      1.0  0.51019  0.52258  0.67141  1.0000 -0.1055468854
C   C102      1.0  0.85117  0.83878  0.32859  1.0000 -0.1055468854
C   C103      1.0  0.89883  0.72742  0.48761  1.0000 -0.1055468854
C   C104      1.0  0.23981  0.41122  0.51239  1.0000 -0.1055468854
C   C105      1.0  0.27258  0.76019  0.17141  1.0000 -0.1055468854
C   C106      1.0  0.58878  0.10117  0.82859  1.0000 -0.1046222422
C   C107      1.0  0.47742  0.14883  0.98761  1.0000 -0.1055468854
C   C108      1.0  0.16122  0.48981  0.01239  1.0000 -0.1055468854
C   C109      1.0  0.23981  0.72742  0.82859  1.0000 -0.1055468854
C   C110      1.0  0.89883  0.41122  0.17141  1.0000 -0.1055468854
C   C111      1.0  0.85117  0.52258  0.01239  1.0000 -0.1055468854
C   C112      1.0  0.51019  0.83878  0.98761  1.0000 -0.1055468854
C   C113      1.0  0.53043  0.47885  0.47168  1.0000 0.0703902755
C   C114      1.0  0.00717  0.05875  0.52832  1.0000 0.0703902755
C   C115      1.0  0.21957  0.19125  0.44842  1.0000 0.0703902755
C   C116      1.0  0.74283  0.77115  0.55158  1.0000 0.0703902755
C   C117      1.0  0.52115  0.46957  0.52832  1.0000 0.0703902755
C   C118      1.0  0.94125  0.99283  0.47168  1.0000 0.0703902755
C   C119      1.0  0.80875  0.78043  0.55158  1.0000 0.0703902755
C   C120      1.0  0.22885  0.25717  0.44842  1.0000 0.0703902755
C   C121      1.0  0.21957  0.77115  0.02832  1.0000 0.0703902755
C   C122      1.0  0.74283  0.19125  0.97168  1.0000 0.0703902755
C   C123      1.0  0.53043  0.05875  0.05158  1.0000 0.0703902755
C   C124      1.0  0.00717  0.47885  0.94842  1.0000 0.0703902755
C   C125      1.0  0.22885  0.78043  0.97168  1.0000 0.0703902755
C   C126      1.0  0.80875  0.25717  0.02832  1.0000 0.0703902755
C   C127      1.0  0.94125  0.46957  0.94842  1.0000 0.0703902755
C   C128      1.0  0.52115  0.99283  0.05158  1.0000 0.0703902755
C   C129      1.0  0.50039  0.49961  0.50000  1.0000 -0.1897126317
C   C130      1.0  0.99961  0.00039  0.50000  1.0000 -0.1897126317
C   C131      1.0  0.24961  0.24961  0.49922  1.0000 -0.1897126317
C   C132      1.0  0.75039  0.75039  0.50078  1.0000 -0.1897126317
C   C133      1.0  0.24961  0.75039  0.00000  1.0000 -0.1897126317
C   C134      1.0  0.75039  0.24961  0.00000  1.0000 -0.1897126317
C   C135      1.0  0.50039  0.00039  0.00078  1.0000 -0.1897126317
C   C136      1.0  0.99961  0.49961  0.99922  1.0000 -0.1897126317
C   C137      1.0  0.58242  0.42880  0.47380  1.0000 -0.1657788599
C   C138      1.0  0.95500  0.10862  0.52620  1.0000 -0.1657788599
C   C139      1.0  0.16758  0.14138  0.34638  1.0000 -0.1657788599
C   C140      1.0  0.79500  0.82120  0.65362  1.0000 -0.1657788599
C   C141      1.0  0.57120  0.41758  0.52620  1.0000 -0.1657788599
C   C142      1.0  0.89138  0.04500  0.47380  1.0000 -0.1657788599
C   C143      1.0  0.85862  0.83242  0.65362  1.0000 -0.1657788599
C   C144      1.0  0.17880  0.20500  0.34638  1.0000 -0.1657788599
C   C145      1.0  0.16758  0.82120  0.02620  1.0000 -0.1657788599
C   C146      1.0  0.79500  0.14138  0.97380  1.0000 -0.1645158727
C   C147      1.0  0.58242  0.10862  0.15362  1.0000 -0.1645158727
C   C148      1.0  0.95500  0.42880  0.84638  1.0000 -0.1657788599
C   C149      1.0  0.17880  0.83242  0.97380  1.0000 -0.1657788599
C   C150      1.0  0.85862  0.20500  0.02620  1.0000 -0.1657788599
C   C151      1.0  0.89138  0.41758  0.84638  1.0000 -0.1657788599
C   C152      1.0  0.57120  0.04500  0.15362  1.0000 -0.1657788599
C   C153      1.0  0.60229  0.39771  0.50000  1.0000 -0.0086676782
C   C154      1.0  0.89771  0.10229  0.50000  1.0000 -0.0086676782
C   C155      1.0  0.14771  0.14771  0.29542  1.0000 -0.0086676782
C   C156      1.0  0.85229  0.85229  0.70458  1.0000 -0.0086676782
C   C157      1.0  0.14771  0.85229  0.00000  1.0000 -0.0086676782
C   C158      1.0  0.85229  0.14771  0.00000  1.0000 -0.0086676782
C   C159      1.0  0.60229  0.10229  0.20458  1.0000 -0.0086676782
C   C160      1.0  0.89771  0.39771  0.79542  1.0000 -0.0086676782
C   C161      1.0  0.65753  0.34247  0.50000  1.0000 0.5793849032
C   C162      1.0  0.84247  0.15753  0.50000  1.0000 0.5793849032
C   C163      1.0  0.09247  0.09247  0.18494  1.0000 0.5793849032
C   C164      1.0  0.90753  0.90753  0.81506  1.0000 0.5793849032
C   C165      1.0  0.09247  0.90753  0.00000  1.0000 0.5793849032
C   C166      1.0  0.90753  0.09247  0.00000  1.0000 0.5793849032
C   C167      1.0  0.65753  0.15753  0.31506  1.0000 0.5793849032
C   C168      1.0  0.84247  0.34247  0.68494  1.0000 0.5793849032
C   C169      1.0  0.44751  0.42902  0.09931  1.0000 -0.1412424841
C   C170      1.0  0.32971  0.34820  0.90069  1.0000 -0.1412424841
C   C171      1.0  0.30249  0.90180  0.48151  1.0000 -0.1412424841
C   C172      1.0  0.42029  0.82098  0.51849  1.0000 -0.1412424841
C   C173      1.0  0.57098  0.55249  0.90069  1.0000 -0.1412424841
C   C174      1.0  0.65180  0.67029  0.09931  1.0000 -0.1412424841
C   C175      1.0  0.09820  0.69751  0.51849  1.0000 -0.1412424841
C   C176      1.0  0.17902  0.57971  0.48151  1.0000 -0.1412424841
C   C177      1.0  0.30249  0.82098  0.40069  1.0000 -0.1412424841
C   C178      1.0  0.42029  0.90180  0.59931  1.0000 -0.1412424841
C   C179      1.0  0.44751  0.34820  0.01849  1.0000 -0.1412424841
C   C180      1.0  0.32971  0.42902  0.98151  1.0000 -0.1412424841
C   C181      1.0  0.17902  0.69751  0.59931  1.0000 -0.1412424841
C   C182      1.0  0.09820  0.57971  0.40069  1.0000 -0.1412424841
C   C183      1.0  0.65180  0.55249  0.98151  1.0000 -0.1412424841
C   C184      1.0  0.57098  0.67029  0.01849  1.0000 -0.1412424841
C   C185      1.0  0.35664  0.39764  0.04100  1.0000 -0.1412424841
C   C186      1.0  0.35664  0.31564  0.95900  1.0000 -0.1412424841
C   C187      1.0  0.39336  0.93436  0.54100  1.0000 -0.1412424841
C   C188      1.0  0.39336  0.85236  0.45900  1.0000 -0.1412424841
C   C189      1.0  0.60236  0.64336  0.95900  1.0000 -0.1412424841
C   C190      1.0  0.68436  0.64336  0.04100  1.0000 -0.1412424841
C   C191      1.0  0.06564  0.60664  0.45900  1.0000 -0.1412424841
C   C192      1.0  0.14764  0.60664  0.54100  1.0000 -0.1412424841
N   N1        1.0  0.37806  0.44526  0.06720  1.0000 -0.0771750185
N   N2        1.0  0.37806  0.31086  0.93280  1.0000 -0.0771750185
N   N3        1.0  0.37194  0.93914  0.56720  1.0000 -0.0771750185
N   N4        1.0  0.37194  0.80474  0.43280  1.0000 -0.0771750185
N   N5        1.0  0.55474  0.62194  0.93280  1.0000 -0.0771750185
N   N6        1.0  0.68914  0.62194  0.06720  1.0000 -0.0771750185
N   N7        1.0  0.06086  0.62806  0.43280  1.0000 -0.0771750185
N   N8        1.0  0.19526  0.62806  0.56720  1.0000 -0.0771750185
O   O1        1.0  0.42590  0.54317  0.26003  1.0000 -0.5168549467
O   O2        1.0  0.28314  0.16587  0.73997  1.0000 -0.5168549467
O   O3        1.0  0.32410  0.08413  0.61727  1.0000 -0.5168549467
O   O4        1.0  0.46686  0.70683  0.38273  1.0000 -0.5168549467
O   O5        1.0  0.45683  0.57410  0.73997  1.0000 -0.5168549467
O   O6        1.0  0.83413  0.71686  0.26003  1.0000 -0.5168549467
O   O7        1.0  0.91587  0.67590  0.38273  1.0000 -0.5168549467
O   O8        1.0  0.29317  0.53314  0.61727  1.0000 -0.5168549467
O   O9        1.0  0.32410  0.70683  0.23997  1.0000 -0.5168549467
O   O10       1.0  0.46686  0.08413  0.76003  1.0000 -0.5168549467
O   O11       1.0  0.42590  0.16587  0.88273  1.0000 -0.5168549467
O   O12       1.0  0.28314  0.54317  0.11727  1.0000 -0.5168549467
O   O13       1.0  0.29317  0.67590  0.76003  1.0000 -0.5168549467
O   O14       1.0  0.91587  0.53314  0.23997  1.0000 -0.5168549467
O   O15       1.0  0.83413  0.57410  0.11727  1.0000 -0.5168549467
O   O16       1.0  0.45683  0.71686  0.88273  1.0000 -0.5168549467
O   O17       1.0  0.42096  0.65436  0.37490  1.0000 -0.502944437
O   O18       1.0  0.27946  0.04606  0.62510  1.0000 -0.502944437
O   O19       1.0  0.32904  0.20394  0.73340  1.0000 -0.502944437
O   O20       1.0  0.47054  0.59564  0.26660  1.0000 -0.502944437
O   O21       1.0  0.34564  0.57904  0.62510  1.0000 -0.502944437
O   O22       1.0  0.95394  0.72054  0.37490  1.0000 -0.502944437
O   O23       1.0  0.79606  0.67096  0.26660  1.0000 -0.502944437
O   O24       1.0  0.40436  0.52946  0.73340  1.0000 -0.502944437
O   O25       1.0  0.32904  0.59564  0.12510  1.0000 -0.502944437
O   O26       1.0  0.47054  0.20394  0.87490  1.0000 -0.502944437
O   O27       1.0  0.42096  0.04606  0.76660  1.0000 -0.502944437
O   O28       1.0  0.27946  0.65436  0.23340  1.0000 -0.502944437
O   O29       1.0  0.40436  0.67096  0.87490  1.0000 -0.502944437
O   O30       1.0  0.79606  0.52946  0.12510  1.0000 -0.502944437
O   O31       1.0  0.95394  0.57904  0.23340  1.0000 -0.502944437
O   O32       1.0  0.34564  0.72054  0.76660  1.0000 -0.502944437
O   O33       1.0  0.69649  0.33944  0.49939  1.0000 -0.5168549467
O   O34       1.0  0.84005  0.19710  0.50061  1.0000 -0.5168549467
O   O35       1.0  0.05351  0.05290  0.14295  1.0000 -0.5168549467
O   O36       1.0  0.90995  0.91056  0.85705  1.0000 -0.5168549467
O   O37       1.0  0.66056  0.30351  0.50061  1.0000 -0.5168549467
O   O38       1.0  0.80290  0.15995  0.49939  1.0000 -0.5168549467
O   O39       1.0  0.94710  0.94649  0.85705  1.0000 -0.5168549467
O   O40       1.0  0.08944  0.09005  0.14295  1.0000 -0.5168549467
O   O41       1.0  0.05351  0.91056  0.00061  1.0000 -0.5168549467
O   O42       1.0  0.90995  0.05290  0.99939  1.0000 -0.5168549467
O   O43       1.0  0.69649  0.19710  0.35705  1.0000 -0.5168549467
O   O44       1.0  0.84005  0.33944  0.64295  1.0000 -0.5168549467
O   O45       1.0  0.08944  0.94649  0.99939  1.0000 -0.5168549467
O   O46       1.0  0.94710  0.09005  0.00061  1.0000 -0.5168549467
O   O47       1.0  0.80290  0.30351  0.64295  1.0000 -0.5168549467
O   O48       1.0  0.66056  0.15995  0.35705  1.0000 -0.5168549467
