# DDEC6 charges by PACMAN v1.1 (https://github.com/mtap-research/PACMAN-charge/)
data_2012[Zn][idp]3[ASR]1
_chemical_formula_sum              "Zn18 H40 C108 O76"
_cell_length_a       20.3179
_cell_length_b       20.3179
_cell_length_c       20.3179
_cell_angle_alpha    109.471
_cell_angle_beta     109.471
_cell_angle_gamma    109.471

_symmetry_space_group_name_H-M    "P 1"
_symmetry_Int_Tables_number       1

loop_
  _symmetry_equiv_pos_as_xyz
  'x, y, z'

loop_
  _atom_site_type_symbol
  _atom_site_label
  _atom_site_symmetry_multiplicity
  _atom_site_fract_x
  _atom_site_fract_y
  _atom_site_fract_z
  _atom_site_occupancy
  _atom_site_charge
Zn  Zn1       1.0  0.52079  0.05620  0.94613  1.0000 0.9282163858
Zn  Zn2       1.0  0.11007  0.57466  0.05387  1.0000 0.9282163858
Zn  Zn3       1.0  0.88993  0.94380  0.46459  1.0000 0.9246808766
Zn  Zn4       1.0  0.47921  0.42534  0.53541  1.0000 0.9282163858
Zn  Zn5       1.0  0.94613  0.52079  0.05620  1.0000 0.9282163858
Zn  Zn6       1.0  0.05387  0.11007  0.57466  1.0000 0.9282163858
Zn  Zn7       1.0  0.46459  0.88993  0.94380  1.0000 0.9246808766
Zn  Zn8       1.0  0.53541  0.47921  0.42534  1.0000 0.9282163858
Zn  Zn9       1.0  0.05620  0.94613  0.52079  1.0000 0.9246808766
Zn  Zn10      1.0  0.57466  0.05387  0.11007  1.0000 0.9282163858
Zn  Zn11      1.0  0.94380  0.46459  0.88993  1.0000 0.9282163858
Zn  Zn12      1.0  0.42534  0.53541  0.47921  1.0000 0.9282163858
Zn  Zn13      1.0  0.93658  0.43658  0.50000  1.0000 0.9282163858
Zn  Zn14      1.0  0.06342  0.56342  0.50000  1.0000 0.9282163858
Zn  Zn15      1.0  0.50000  0.93658  0.43658  1.0000 0.9282163858
Zn  Zn16      1.0  0.50000  0.06342  0.56342  1.0000 0.9282163858
Zn  Zn17      1.0  0.43658  0.50000  0.93658  1.0000 0.9282163858
Zn  Zn18      1.0  0.56342  0.50000  0.06342  1.0000 0.9282163858
H   H1        1.0  0.78980  0.27580  0.24540  1.0000 0.1371670096
H   H2        1.0  0.74740  0.25830  0.03230  1.0000 0.1311385326
H   H3        1.0  0.93510  0.45890  0.23760  1.0000 0.1311385326
H   H4        1.0  0.03040  0.54440  0.75460  1.0000 0.1371670096
H   H5        1.0  0.22600  0.71510  0.96770  1.0000 0.1311385326
H   H6        1.0  0.22130  0.69750  0.76240  1.0000 0.1311385326
H   H7        1.0  0.96960  0.72420  0.51400  1.0000 0.1371670096
H   H8        1.0  0.77400  0.74170  0.48910  1.0000 0.1311385326
H   H9        1.0  0.77870  0.54110  0.47620  1.0000 0.1311385326
H   H10       1.0  0.21020  0.45560  0.48600  1.0000 0.1371670096
H   H11       1.0  0.25260  0.28490  0.51090  1.0000 0.1311385326
H   H12       1.0  0.06490  0.30250  0.52380  1.0000 0.1311385326
H   H13       1.0  0.24540  0.78980  0.27580  1.0000 0.1371670096
H   H14       1.0  0.03230  0.74740  0.25830  1.0000 0.1311385326
H   H15       1.0  0.23760  0.93510  0.45890  1.0000 0.1311385326
H   H16       1.0  0.75460  0.03040  0.54440  1.0000 0.1371670096
H   H17       1.0  0.96770  0.22600  0.71510  1.0000 0.1311385326
H   H18       1.0  0.76240  0.22130  0.69750  1.0000 0.1311385326
H   H19       1.0  0.51400  0.96960  0.72420  1.0000 0.1371670096
H   H20       1.0  0.48910  0.77400  0.74170  1.0000 0.1311385326
H   H21       1.0  0.47620  0.77870  0.54110  1.0000 0.1311385326
H   H22       1.0  0.48600  0.21020  0.45560  1.0000 0.1371670096
H   H23       1.0  0.51090  0.25260  0.28490  1.0000 0.1311385326
H   H24       1.0  0.52380  0.06490  0.30250  1.0000 0.1311385326
H   H25       1.0  0.27580  0.24540  0.78980  1.0000 0.1371670096
H   H26       1.0  0.25830  0.03230  0.74740  1.0000 0.1311385326
H   H27       1.0  0.45890  0.23760  0.93510  1.0000 0.1311385326
H   H28       1.0  0.54440  0.75460  0.03040  1.0000 0.1371670096
H   H29       1.0  0.71510  0.96770  0.22600  1.0000 0.1311385326
H   H30       1.0  0.69750  0.76240  0.22130  1.0000 0.1311385326
H   H31       1.0  0.72420  0.51400  0.96960  1.0000 0.1371670096
H   H32       1.0  0.74170  0.48910  0.77400  1.0000 0.1311385326
H   H33       1.0  0.54110  0.47620  0.77870  1.0000 0.1311385326
H   H34       1.0  0.45560  0.48600  0.21020  1.0000 0.1371670096
H   H35       1.0  0.28490  0.51090  0.25260  1.0000 0.1311385326
H   H36       1.0  0.30250  0.52380  0.06490  1.0000 0.1311385326
H   H37       1.0  0.44088  0.00000  0.00000  1.0000 0.4174564957
H   H38       1.0  0.00000  0.44088  0.00000  1.0000 0.4174564957
H   H39       1.0  0.00000  0.00000  0.44088  1.0000 0.4174564957
H   H40       1.0  0.55912  0.55912  0.55912  1.0000 0.4174564957
C   C1        1.0  0.80402  0.29839  0.21583  1.0000 -0.0801799078
C   C2        1.0  0.75741  0.25489  0.13194  1.0000 -0.0214386507
C   C3        1.0  0.77809  0.28754  0.08829  1.0000 -0.0857792468
C   C4        1.0  0.84471  0.36434  0.12635  1.0000 -0.0214386507
C   C5        1.0  0.89078  0.40750  0.21124  1.0000 -0.0801799078
C   C6        1.0  0.87065  0.37403  0.25602  1.0000 -0.0442777769
C   C7        1.0  0.68127  0.17488  0.09151  1.0000 0.60293186
C   C8        1.0  0.92014  0.42114  0.34508  1.0000 0.5945308088
C   C9        1.0  0.86460  0.40120  0.07740  1.0000 0.5465837547
C   C10       1.0  0.08256  0.58819  0.78417  1.0000 -0.0801799078
C   C11       1.0  0.12295  0.62547  0.86806  1.0000 -0.0214386507
C   C12       1.0  0.19925  0.68980  0.91171  1.0000 -0.0857792468
C   C13       1.0  0.23799  0.71836  0.87365  1.0000 -0.0214386507
C   C14       1.0  0.19626  0.67954  0.78876  1.0000 -0.0801799078
C   C15       1.0  0.11801  0.61463  0.74398  1.0000 -0.0460114031
C   C16       1.0  0.08337  0.58976  0.90849  1.0000 0.60293186
C   C17       1.0  0.07606  0.57506  0.65492  1.0000 0.5945308088
C   C18       1.0  0.32380  0.78720  0.92260  1.0000 0.5465837547
C   C19       1.0  0.91744  0.70161  0.50563  1.0000 -0.0801799078
C   C20       1.0  0.87705  0.74511  0.50252  1.0000 -0.0214386507
C   C21       1.0  0.80075  0.71246  0.49055  1.0000 -0.0857792468
C   C22       1.0  0.76201  0.63566  0.48037  1.0000 -0.0214386507
C   C23       1.0  0.80374  0.59250  0.48328  1.0000 -0.0801799078
C   C24       1.0  0.88199  0.62597  0.49662  1.0000 -0.0460114031
C   C25       1.0  0.91663  0.82512  0.50639  1.0000 0.6057805895
C   C26       1.0  0.92394  0.57886  0.49900  1.0000 0.60293186
C   C27       1.0  0.67620  0.59880  0.46340  1.0000 0.5465837547
C   C28       1.0  0.19598  0.41181  0.49437  1.0000 -0.0801799078
C   C29       1.0  0.24259  0.37453  0.49748  1.0000 -0.0214386507
C   C30       1.0  0.22191  0.31020  0.50945  1.0000 -0.0801799078
C   C31       1.0  0.15529  0.28164  0.51963  1.0000 -0.0214386507
C   C32       1.0  0.10922  0.32046  0.51672  1.0000 -0.0801799078
C   C33       1.0  0.12935  0.38537  0.50338  1.0000 -0.0460114031
C   C34       1.0  0.31873  0.41024  0.49361  1.0000 0.60293186
C   C35       1.0  0.07986  0.42494  0.50100  1.0000 0.60293186
C   C36       1.0  0.13540  0.21280  0.53660  1.0000 0.5465837547
C   C37       1.0  0.21583  0.80402  0.29839  1.0000 -0.0801799078
C   C38       1.0  0.13194  0.75741  0.25489  1.0000 -0.0214386507
C   C39       1.0  0.08829  0.77809  0.28754  1.0000 -0.0857792468
C   C40       1.0  0.12635  0.84471  0.36434  1.0000 -0.0214386507
C   C41       1.0  0.21124  0.89078  0.40750  1.0000 -0.0801799078
C   C42       1.0  0.25602  0.87065  0.37403  1.0000 -0.0460114031
C   C43       1.0  0.09151  0.68127  0.17488  1.0000 0.60293186
C   C44       1.0  0.34508  0.92014  0.42114  1.0000 0.5945308088
C   C45       1.0  0.07740  0.86460  0.40120  1.0000 0.5465837547
C   C46       1.0  0.78417  0.08256  0.58819  1.0000 -0.0801799078
C   C47       1.0  0.86806  0.12295  0.62547  1.0000 -0.0214386507
C   C48       1.0  0.91171  0.19925  0.68980  1.0000 -0.0857792468
C   C49       1.0  0.87365  0.23799  0.71836  1.0000 -0.0214386507
C   C50       1.0  0.78876  0.19626  0.67954  1.0000 -0.0801799078
C   C51       1.0  0.74398  0.11801  0.61463  1.0000 -0.0460114031
C   C52       1.0  0.90849  0.08337  0.58976  1.0000 0.60293186
C   C53       1.0  0.65492  0.07606  0.57506  1.0000 0.5945308088
C   C54       1.0  0.92260  0.32380  0.78720  1.0000 0.5465837547
C   C55       1.0  0.50563  0.91744  0.70161  1.0000 -0.0801799078
C   C56       1.0  0.50252  0.87705  0.74511  1.0000 -0.0214386507
C   C57       1.0  0.49055  0.80075  0.71246  1.0000 -0.0857792468
C   C58       1.0  0.48037  0.76201  0.63566  1.0000 -0.0214386507
C   C59       1.0  0.48328  0.80374  0.59250  1.0000 -0.0801799078
C   C60       1.0  0.49662  0.88199  0.62597  1.0000 -0.0460114031
C   C61       1.0  0.50639  0.91663  0.82512  1.0000 0.60293186
C   C62       1.0  0.49900  0.92394  0.57886  1.0000 0.5945308088
C   C63       1.0  0.46340  0.67620  0.59880  1.0000 0.5465837547
C   C64       1.0  0.49437  0.19598  0.41181  1.0000 -0.0801799078
C   C65       1.0  0.49748  0.24259  0.37453  1.0000 -0.0214386507
C   C66       1.0  0.50945  0.22191  0.31020  1.0000 -0.0857792468
C   C67       1.0  0.51963  0.15529  0.28164  1.0000 -0.0214386507
C   C68       1.0  0.51672  0.10922  0.32046  1.0000 -0.0801799078
C   C69       1.0  0.50338  0.12935  0.38537  1.0000 -0.0460114031
C   C70       1.0  0.49361  0.31873  0.41024  1.0000 0.60293186
C   C71       1.0  0.50100  0.07986  0.42494  1.0000 0.5945308088
C   C72       1.0  0.53660  0.13540  0.21280  1.0000 0.5465837547
C   C73       1.0  0.29839  0.21583  0.80402  1.0000 -0.0801799078
C   C74       1.0  0.25489  0.13194  0.75741  1.0000 -0.0214386507
C   C75       1.0  0.28754  0.08829  0.77809  1.0000 -0.0857792468
C   C76       1.0  0.36434  0.12635  0.84471  1.0000 -0.0214386507
C   C77       1.0  0.40750  0.21124  0.89078  1.0000 -0.0801799078
C   C78       1.0  0.37403  0.25602  0.87065  1.0000 -0.0460114031
C   C79       1.0  0.17488  0.09151  0.68127  1.0000 0.60293186
C   C80       1.0  0.42114  0.34508  0.92014  1.0000 0.5945308088
C   C81       1.0  0.40120  0.07740  0.86460  1.0000 0.5465837547
C   C82       1.0  0.58819  0.78417  0.08256  1.0000 -0.0801799078
C   C83       1.0  0.62547  0.86806  0.12295  1.0000 -0.0214386507
C   C84       1.0  0.68980  0.91171  0.19925  1.0000 -0.0857792468
C   C85       1.0  0.71836  0.87365  0.23799  1.0000 -0.0214386507
C   C86       1.0  0.67954  0.78876  0.19626  1.0000 -0.0801799078
C   C87       1.0  0.61463  0.74398  0.11801  1.0000 -0.0460114031
C   C88       1.0  0.58976  0.90849  0.08337  1.0000 0.60293186
C   C89       1.0  0.57506  0.65492  0.07606  1.0000 0.5945308088
C   C90       1.0  0.78720  0.92260  0.32380  1.0000 0.5465837547
C   C91       1.0  0.70161  0.50563  0.91744  1.0000 -0.0801799078
C   C92       1.0  0.74511  0.50252  0.87705  1.0000 -0.0214386507
C   C93       1.0  0.71246  0.49055  0.80075  1.0000 -0.0857792468
C   C94       1.0  0.63566  0.48037  0.76201  1.0000 -0.0214386507
C   C95       1.0  0.59250  0.48328  0.80374  1.0000 -0.0801799078
C   C96       1.0  0.62597  0.49662  0.88199  1.0000 -0.0460114031
C   C97       1.0  0.82512  0.50639  0.91663  1.0000 0.60293186
C   C98       1.0  0.57886  0.49900  0.92394  1.0000 0.5945308088
C   C99       1.0  0.59880  0.46340  0.67620  1.0000 0.5465837547
C   C100      1.0  0.41181  0.49437  0.19598  1.0000 -0.0801799078
C   C101      1.0  0.37453  0.49748  0.24259  1.0000 -0.0214386507
C   C102      1.0  0.31020  0.50945  0.22191  1.0000 -0.0857792468
C   C103      1.0  0.28164  0.51963  0.15529  1.0000 -0.0214386507
C   C104      1.0  0.32046  0.51672  0.10922  1.0000 -0.0801799078
C   C105      1.0  0.38537  0.50338  0.12935  1.0000 -0.0460114031
C   C106      1.0  0.41024  0.49361  0.31873  1.0000 0.6057805895
C   C107      1.0  0.42494  0.50100  0.07986  1.0000 0.5945308088
C   C108      1.0  0.21280  0.53660  0.13540  1.0000 0.5465837547
O   O1        1.0  0.63616  0.14366  0.01804  1.0000 -0.5085842423
O   O2        1.0  0.67116  0.14507  0.13509  1.0000 -0.5317845763
O   O3        1.0  0.97936  0.48877  0.37721  1.0000 -0.5085842423
O   O4        1.0  0.89602  0.38737  0.38107  1.0000 -0.5370180777
O   O5        1.0  0.92421  0.47168  0.11759  1.0000 -0.5085842423
O   O6        1.0  0.82646  0.36352  0.00504  1.0000 -0.4615238528
O   O7        1.0  0.12562  0.61812  0.98196  1.0000 -0.5085842423
O   O8        1.0  0.00998  0.53607  0.86491  1.0000 -0.5317845763
O   O9        1.0  0.11156  0.60215  0.62279  1.0000 -0.5085842423
O   O10       1.0  0.00630  0.51495  0.61893  1.0000 -0.5370180777
O   O11       1.0  0.35409  0.80662  0.88241  1.0000 -0.5085842423
O   O12       1.0  0.35848  0.82142  0.99496  1.0000 -0.46614062
O   O13       1.0  0.87438  0.85634  0.49250  1.0000 -0.5085842423
O   O14       1.0  0.99002  0.85493  0.52609  1.0000 -0.5317845763
O   O15       1.0  0.88844  0.51123  0.49059  1.0000 -0.5048525454
O   O16       1.0  0.99370  0.61263  0.50865  1.0000 -0.5370180777
O   O17       1.0  0.64591  0.52832  0.45253  1.0000 -0.5085842423
O   O18       1.0  0.64152  0.63648  0.46294  1.0000 -0.4615238528
O   O19       1.0  0.36384  0.38188  0.50750  1.0000 -0.5085842423
O   O20       1.0  0.32884  0.46393  0.47391  1.0000 -0.5317845763
O   O21       1.0  0.02064  0.39785  0.50941  1.0000 -0.5085842423
O   O22       1.0  0.10398  0.48505  0.49135  1.0000 -0.5370180777
O   O23       1.0  0.07579  0.19338  0.54747  1.0000 -0.5085842423
O   O24       1.0  0.17354  0.17858  0.53706  1.0000 -0.46614062
O   O25       1.0  0.01804  0.63616  0.14366  1.0000 -0.5085842423
O   O26       1.0  0.13509  0.67116  0.14507  1.0000 -0.5317845763
O   O27       1.0  0.37721  0.97936  0.48877  1.0000 -0.5085842423
O   O28       1.0  0.38107  0.89602  0.38737  1.0000 -0.5370180777
O   O29       1.0  0.11759  0.92421  0.47168  1.0000 -0.5085842423
O   O30       1.0  0.00504  0.82646  0.36352  1.0000 -0.46614062
O   O31       1.0  0.98196  0.12562  0.61812  1.0000 -0.5085842423
O   O32       1.0  0.86491  0.00998  0.53607  1.0000 -0.5317845763
O   O33       1.0  0.62279  0.11156  0.60215  1.0000 -0.5085842423
O   O34       1.0  0.61893  0.00630  0.51495  1.0000 -0.5370180777
O   O35       1.0  0.88241  0.35409  0.80662  1.0000 -0.5085842423
O   O36       1.0  0.99496  0.35848  0.82142  1.0000 -0.46614062
O   O37       1.0  0.49250  0.87438  0.85634  1.0000 -0.5085842423
O   O38       1.0  0.52609  0.99002  0.85493  1.0000 -0.5317845763
O   O39       1.0  0.49059  0.88844  0.51123  1.0000 -0.5085842423
O   O40       1.0  0.50865  0.99370  0.61263  1.0000 -0.5370180777
O   O41       1.0  0.45253  0.64591  0.52832  1.0000 -0.5085842423
O   O42       1.0  0.46294  0.64152  0.63648  1.0000 -0.46614062
O   O43       1.0  0.50750  0.36384  0.38188  1.0000 -0.5085842423
O   O44       1.0  0.47391  0.32884  0.46393  1.0000 -0.5317845763
O   O45       1.0  0.50941  0.02064  0.39785  1.0000 -0.5085842423
O   O46       1.0  0.49135  0.10398  0.48505  1.0000 -0.5370180777
O   O47       1.0  0.54747  0.07579  0.19338  1.0000 -0.5085842423
O   O48       1.0  0.53706  0.17354  0.17858  1.0000 -0.46614062
O   O49       1.0  0.14366  0.01804  0.63616  1.0000 -0.5085842423
O   O50       1.0  0.14507  0.13509  0.67116  1.0000 -0.5317845763
O   O51       1.0  0.48877  0.37721  0.97936  1.0000 -0.5085842423
O   O52       1.0  0.38737  0.38107  0.89602  1.0000 -0.5370180777
O   O53       1.0  0.47168  0.11759  0.92421  1.0000 -0.5085842423
O   O54       1.0  0.36352  0.00504  0.82646  1.0000 -0.46614062
O   O55       1.0  0.61812  0.98196  0.12562  1.0000 -0.5085842423
O   O56       1.0  0.53607  0.86491  0.00998  1.0000 -0.5317845763
O   O57       1.0  0.60215  0.62279  0.11156  1.0000 -0.5085842423
O   O58       1.0  0.51495  0.61893  0.00630  1.0000 -0.5370180777
O   O59       1.0  0.80662  0.88241  0.35409  1.0000 -0.5085842423
O   O60       1.0  0.82142  0.99496  0.35848  1.0000 -0.46614062
O   O61       1.0  0.85634  0.49250  0.87438  1.0000 -0.5085842423
O   O62       1.0  0.85493  0.52609  0.99002  1.0000 -0.5317845763
O   O63       1.0  0.51123  0.49059  0.88844  1.0000 -0.5085842423
O   O64       1.0  0.61263  0.50865  0.99370  1.0000 -0.5370180777
O   O65       1.0  0.52832  0.45253  0.64591  1.0000 -0.5085842423
O   O66       1.0  0.63648  0.46294  0.64152  1.0000 -0.4615238528
O   O67       1.0  0.38188  0.50750  0.36384  1.0000 -0.5085842423
O   O68       1.0  0.46393  0.47391  0.32884  1.0000 -0.5317845763
O   O69       1.0  0.39785  0.50941  0.02064  1.0000 -0.5085842423
O   O70       1.0  0.48505  0.49135  0.10398  1.0000 -0.5370180777
O   O71       1.0  0.19338  0.54747  0.07579  1.0000 -0.5085842423
O   O72       1.0  0.17858  0.53706  0.17354  1.0000 -0.46614062
O   O73       1.0  0.48908  0.00000  0.00000  1.0000 -0.8469324232
O   O74       1.0  0.00000  0.48908  0.00000  1.0000 -0.8469324232
O   O75       1.0  0.00000  0.00000  0.48908  1.0000 -0.8469324232
O   O76       1.0  0.51092  0.51092  0.51092  1.0000 -0.8469324232
