# DDEC6 charges by PACMAN v1.1 (https://github.com/mtap-research/PACMAN-charge/)
data_2012[Zn][lig]3[ASR]1
_chemical_formula_sum              "Zn4 H12 C20 N16"
_cell_length_a       11.6489
_cell_length_b       11.6489
_cell_length_c       11.6489
_cell_angle_alpha    99.7141
_cell_angle_beta     99.7141
_cell_angle_gamma    131.494

_symmetry_space_group_name_H-M    "P 1"
_symmetry_Int_Tables_number       1

loop_
  _symmetry_equiv_pos_as_xyz
  'x, y, z'

loop_
  _atom_site_type_symbol
  _atom_site_label
  _atom_site_symmetry_multiplicity
  _atom_site_fract_x
  _atom_site_fract_y
  _atom_site_fract_z
  _atom_site_occupancy
  _atom_site_charge
Zn  Zn1       1.0  0.22179  0.38924  0.52471  1.0000 0.5422319408
Zn  Zn2       1.0  0.30292  0.77821  0.16745  1.0000 0.5422319408
Zn  Zn3       1.0  0.86453  0.69708  0.47529  1.0000 0.5296972032
Zn  Zn4       1.0  0.61076  0.13547  0.83255  1.0000 0.5296972032
H   H1        1.0  0.56850  0.51800  0.56610  1.0000 0.0899293122
H   H2        1.0  0.99760  0.43150  0.94950  1.0000 0.0899293122
H   H3        1.0  0.95190  0.00240  0.43390  1.0000 0.0899293122
H   H4        1.0  0.48200  0.04810  0.05050  1.0000 0.0899293122
H   H5        1.0  0.58790  0.81870  0.17980  1.0000 0.0899293122
H   H6        1.0  0.59190  0.41210  0.23080  1.0000 0.0899293122
H   H7        1.0  0.63890  0.40810  0.82020  1.0000 0.0899293122
H   H8        1.0  0.18130  0.36110  0.76920  1.0000 0.0899293122
H   H9        1.0  0.25820  0.59890  0.33630  1.0000 0.0899293122
H   H10       1.0  0.07810  0.74180  0.34070  1.0000 0.0899293122
H   H11       1.0  0.26260  0.92190  0.66370  1.0000 0.0899293122
H   H12       1.0  0.40110  0.73740  0.65930  1.0000 0.0899293122
C   C1        1.0  0.55050  0.55610  0.50860  1.0000 0.1582837003
C   C2        1.0  0.95810  0.44950  0.00560  1.0000 0.1582837003
C   C3        1.0  0.04750  0.04190  0.49140  1.0000 0.1582837003
C   C4        1.0  0.44390  0.95250  0.99440  1.0000 0.1582837003
C   C5        1.0  0.58320  0.66770  0.37330  1.0000 0.2395696204
C   C6        1.0  0.79010  0.41680  0.08450  1.0000 0.2395696204
C   C7        1.0  0.29440  0.20990  0.62670  1.0000 0.2395696204
C   C8        1.0  0.33230  0.70560  0.91550  1.0000 0.2395696204
C   C9        1.0  0.55360  0.76700  0.23660  1.0000 0.1541337456
C   C10       1.0  0.68300  0.44640  0.21340  1.0000 0.1541337456
C   C11       1.0  0.53040  0.31700  0.76340  1.0000 0.1541337456
C   C12       1.0  0.23300  0.46960  0.78660  1.0000 0.1541337456
C   C13       1.0  0.35410  0.63540  0.32730  1.0000 -0.0014051715
C   C14       1.0  0.97320  0.64590  0.28130  1.0000 -0.0014051715
C   C15       1.0  0.30810  0.02680  0.67270  1.0000 -0.0014051715
C   C16       1.0  0.36460  0.69190  0.71870  1.0000 -0.0014051715
C   C17       1.0  0.44090  0.60740  0.39270  1.0000 0.0322093322
C   C18       1.0  0.95180  0.55910  0.16650  1.0000 0.0322093322
C   C19       1.0  0.21470  0.04820  0.60730  1.0000 0.0322093322
C   C20       1.0  0.39260  0.78530  0.83350  1.0000 0.0322093322
N   N1        1.0  0.41890  0.53460  0.47770  1.0000 -0.3533838158
N   N2        1.0  0.05880  0.58110  0.11570  1.0000 -0.3533838158
N   N3        1.0  0.05690  0.94120  0.52230  1.0000 -0.3533838158
N   N4        1.0  0.46540  0.94310  0.88430  1.0000 -0.3533838158
N   N5        1.0  0.65250  0.63640  0.45010  1.0000 -0.3780441249
N   N6        1.0  0.79760  0.34750  0.98390  1.0000 -0.3780441249
N   N7        1.0  0.18630  0.20240  0.54990  1.0000 -0.3780441249
N   N8        1.0  0.36360  0.81370  0.01610  1.0000 -0.3780441249
N   N9        1.0  0.64290  0.74750  0.29700  1.0000 -0.3780441249
N   N10       1.0  0.65410  0.35710  0.10460  1.0000 -0.3780441249
N   N11       1.0  0.45050  0.34590  0.70300  1.0000 -0.3745304708
N   N12       1.0  0.25250  0.54950  0.89540  1.0000 -0.3745304708
N   N13       1.0  0.41540  0.71700  0.25120  1.0000 -0.2808284973
N   N14       1.0  0.83580  0.58460  0.30160  1.0000 -0.2808284973
N   N15       1.0  0.46580  0.16420  0.74880  1.0000 -0.2808284973
N   N16       1.0  0.28300  0.53420  0.69840  1.0000 -0.2808284973
