# DDEC6 charges by PACMAN v1.1 (https://github.com/mtap-research/PACMAN-charge/)
data_2012[Zn][scu]3[ASR]1
_chemical_formula_sum              "Zn16 H80 C148 O80"
_cell_length_a       12.383
_cell_length_b       26.271
_cell_length_c       26.278
_cell_angle_alpha    90
_cell_angle_beta     90
_cell_angle_gamma    90

_symmetry_space_group_name_H-M    "P 1"
_symmetry_Int_Tables_number       1

loop_
  _symmetry_equiv_pos_as_xyz
  'x, y, z'

loop_
  _atom_site_type_symbol
  _atom_site_label
  _atom_site_symmetry_multiplicity
  _atom_site_fract_x
  _atom_site_fract_y
  _atom_site_fract_z
  _atom_site_occupancy
  _atom_site_charge
Zn  Zn1       1.0  0.02119  0.30081  0.75000  1.0000 0.9605237362
Zn  Zn2       1.0  0.97881  0.69919  0.25000  1.0000 0.9605237362
Zn  Zn3       1.0  0.02119  0.19919  0.25000  1.0000 0.9605237362
Zn  Zn4       1.0  0.97881  0.80081  0.75000  1.0000 0.9605237362
Zn  Zn5       1.0  0.85335  0.21893  0.75000  1.0000 0.9542704689
Zn  Zn6       1.0  0.14665  0.78107  0.25000  1.0000 0.9542704689
Zn  Zn7       1.0  0.85335  0.28107  0.25000  1.0000 0.9542704689
Zn  Zn8       1.0  0.14665  0.71893  0.75000  1.0000 0.9542704689
Zn  Zn9       1.0  0.08257  0.00568  0.04084  1.0000 0.9605237362
Zn  Zn10      1.0  0.91743  0.99432  0.54084  1.0000 0.9605237362
Zn  Zn11      1.0  0.08257  0.49432  0.95916  1.0000 0.9605237362
Zn  Zn12      1.0  0.91743  0.50568  0.45916  1.0000 0.9605237362
Zn  Zn13      1.0  0.91743  0.99432  0.95916  1.0000 0.9605237362
Zn  Zn14      1.0  0.08257  0.00568  0.45916  1.0000 0.9605237362
Zn  Zn15      1.0  0.91743  0.50568  0.04084  1.0000 0.9605237362
Zn  Zn16      1.0  0.08257  0.49432  0.54084  1.0000 0.9605237362
H   H1        1.0  0.43450  0.17660  0.97560  1.0000 0.1026540644
H   H2        1.0  0.56550  0.82340  0.47560  1.0000 0.1026540644
H   H3        1.0  0.43450  0.32340  0.02440  1.0000 0.1026540644
H   H4        1.0  0.56550  0.67660  0.52440  1.0000 0.1026540644
H   H5        1.0  0.56550  0.82340  0.02440  1.0000 0.1026540644
H   H6        1.0  0.43450  0.17660  0.52440  1.0000 0.1026540644
H   H7        1.0  0.56550  0.67660  0.97560  1.0000 0.1026540644
H   H8        1.0  0.43450  0.32340  0.47560  1.0000 0.1026540644
H   H9        1.0  0.34210  0.19690  0.01130  1.0000 0.1026540644
H   H10       1.0  0.65790  0.80310  0.51130  1.0000 0.1026540644
H   H11       1.0  0.34210  0.30310  0.98870  1.0000 0.1026540644
H   H12       1.0  0.65790  0.69690  0.48870  1.0000 0.1026540644
H   H13       1.0  0.65790  0.80310  0.98870  1.0000 0.1026540644
H   H14       1.0  0.34210  0.19690  0.48870  1.0000 0.1026540644
H   H15       1.0  0.65790  0.69690  0.01130  1.0000 0.1026540644
H   H16       1.0  0.34210  0.30310  0.51130  1.0000 0.1026540644
H   H17       1.0  0.25070  0.13250  0.97240  1.0000 0.1318986582
H   H18       1.0  0.74930  0.86750  0.47240  1.0000 0.1318986582
H   H19       1.0  0.25070  0.36750  0.02760  1.0000 0.1318986582
H   H20       1.0  0.74930  0.63250  0.52760  1.0000 0.1318986582
H   H21       1.0  0.74930  0.86750  0.02760  1.0000 0.1318986582
H   H22       1.0  0.25070  0.13250  0.52760  1.0000 0.1318986582
H   H23       1.0  0.74930  0.63250  0.97240  1.0000 0.1318986582
H   H24       1.0  0.25070  0.36750  0.47240  1.0000 0.1318986582
H   H25       1.0  0.21500  0.24290  0.86740  1.0000 0.1464951503
H   H26       1.0  0.78500  0.75710  0.36740  1.0000 0.1464951503
H   H27       1.0  0.21500  0.25710  0.13260  1.0000 0.1464951503
H   H28       1.0  0.78500  0.74290  0.63260  1.0000 0.1464951503
H   H29       1.0  0.78500  0.75710  0.13260  1.0000 0.1464951503
H   H30       1.0  0.21500  0.24290  0.63260  1.0000 0.1464951503
H   H31       1.0  0.78500  0.74290  0.86740  1.0000 0.1464951503
H   H32       1.0  0.21500  0.25710  0.36740  1.0000 0.1464951503
H   H33       1.0  0.01160  0.12550  0.86980  1.0000 0.1415096539
H   H34       1.0  0.98840  0.87450  0.36980  1.0000 0.1415096539
H   H35       1.0  0.01160  0.37450  0.13020  1.0000 0.1415096539
H   H36       1.0  0.98840  0.62550  0.63020  1.0000 0.1415096539
H   H37       1.0  0.98840  0.87450  0.13020  1.0000 0.1415096539
H   H38       1.0  0.01160  0.12550  0.63020  1.0000 0.1415096539
H   H39       1.0  0.98840  0.62550  0.86980  1.0000 0.1415096539
H   H40       1.0  0.01160  0.37450  0.36980  1.0000 0.1415096539
H   H41       1.0  0.70280  0.38490  0.99200  1.0000 0.1464951503
H   H42       1.0  0.29720  0.61510  0.49200  1.0000 0.1464951503
H   H43       1.0  0.70280  0.11510  0.00800  1.0000 0.1464951503
H   H44       1.0  0.29720  0.88490  0.50800  1.0000 0.1464951503
H   H45       1.0  0.29720  0.61510  0.00800  1.0000 0.1464951503
H   H46       1.0  0.70280  0.38490  0.50800  1.0000 0.1464951503
H   H47       1.0  0.29720  0.88490  0.99200  1.0000 0.1464951503
H   H48       1.0  0.70280  0.11510  0.49200  1.0000 0.1464951503
H   H49       1.0  0.58340  0.23930  0.94600  1.0000 0.1026540644
H   H50       1.0  0.41660  0.76070  0.44600  1.0000 0.1026540644
H   H51       1.0  0.58340  0.26070  0.05400  1.0000 0.1026540644
H   H52       1.0  0.41660  0.73930  0.55400  1.0000 0.1026540644
H   H53       1.0  0.41660  0.76070  0.05400  1.0000 0.1026540644
H   H54       1.0  0.58340  0.23930  0.55400  1.0000 0.1026540644
H   H55       1.0  0.41660  0.73930  0.94600  1.0000 0.1026540644
H   H56       1.0  0.58340  0.26070  0.44600  1.0000 0.1026540644
H   H57       1.0  0.48910  0.27400  0.92550  1.0000 0.1026540644
H   H58       1.0  0.51090  0.72600  0.42550  1.0000 0.1026540644
H   H59       1.0  0.48910  0.22600  0.07450  1.0000 0.1026540644
H   H60       1.0  0.51090  0.77400  0.57450  1.0000 0.1026540644
H   H61       1.0  0.51090  0.72600  0.07450  1.0000 0.1026540644
H   H62       1.0  0.48910  0.27400  0.57450  1.0000 0.1026540644
H   H63       1.0  0.51090  0.77400  0.92550  1.0000 0.1026540644
H   H64       1.0  0.48910  0.22600  0.42550  1.0000 0.1026540644
H   H65       1.0  0.66910  0.27950  0.88170  1.0000 0.1318986582
H   H66       1.0  0.33090  0.72050  0.38170  1.0000 0.1318986582
H   H67       1.0  0.66910  0.22050  0.11830  1.0000 0.1318986582
H   H68       1.0  0.33090  0.77950  0.61830  1.0000 0.1318986582
H   H69       1.0  0.33090  0.72050  0.11830  1.0000 0.1318986582
H   H70       1.0  0.66910  0.27950  0.61830  1.0000 0.1318986582
H   H71       1.0  0.33090  0.77950  0.88170  1.0000 0.1318986582
H   H72       1.0  0.66910  0.22050  0.38170  1.0000 0.1318986582
H   H73       1.0  0.90420  0.38440  0.87320  1.0000 0.1415096539
H   H74       1.0  0.09580  0.61560  0.37320  1.0000 0.1415096539
H   H75       1.0  0.90420  0.11560  0.12680  1.0000 0.1415096539
H   H76       1.0  0.09580  0.88440  0.62680  1.0000 0.1415096539
H   H77       1.0  0.09580  0.61560  0.12680  1.0000 0.1415096539
H   H78       1.0  0.90420  0.38440  0.62680  1.0000 0.1415096539
H   H79       1.0  0.09580  0.88440  0.87320  1.0000 0.1415096539
H   H80       1.0  0.90420  0.11560  0.37320  1.0000 0.1415096539
C   C1        1.0  0.12460  0.12278  0.92481  1.0000 -0.0101445176
C   C2        1.0  0.87540  0.87722  0.42481  1.0000 -0.0101445176
C   C3        1.0  0.12460  0.37722  0.07519  1.0000 -0.0101445176
C   C4        1.0  0.87540  0.62278  0.57519  1.0000 -0.0101445176
C   C5        1.0  0.87540  0.87722  0.07519  1.0000 -0.0101445176
C   C6        1.0  0.12460  0.12278  0.57519  1.0000 -0.0101445176
C   C7        1.0  0.87540  0.62278  0.92481  1.0000 -0.0101445176
C   C8        1.0  0.12460  0.37722  0.42481  1.0000 -0.0101445176
C   C9        1.0  0.46220  0.25000  0.00000  1.0000 0.0243237641
C   C10       1.0  0.53780  0.75000  0.50000  1.0000 0.0243237641
C   C11       1.0  0.53780  0.75000  0.00000  1.0000 0.0243237641
C   C12       1.0  0.46220  0.25000  0.50000  1.0000 0.0243237641
C   C13       1.0  0.10360  0.18801  0.86225  1.0000 -0.0181478436
C   C14       1.0  0.89640  0.81199  0.36225  1.0000 -0.0181478436
C   C15       1.0  0.10360  0.31199  0.13775  1.0000 -0.0181478436
C   C16       1.0  0.89640  0.68801  0.63775  1.0000 -0.0181478436
C   C17       1.0  0.89640  0.81199  0.13775  1.0000 -0.0181478436
C   C18       1.0  0.10360  0.18801  0.63775  1.0000 -0.0181478436
C   C19       1.0  0.89640  0.68801  0.86225  1.0000 -0.0181478436
C   C20       1.0  0.10360  0.31199  0.36225  1.0000 -0.0181478436
C   C21       1.0  0.39070  0.20602  0.98389  1.0000 -0.0795454715
C   C22       1.0  0.60930  0.79398  0.48389  1.0000 -0.0795454715
C   C23       1.0  0.39070  0.29398  0.01611  1.0000 -0.0795454715
C   C24       1.0  0.60930  0.70602  0.51611  1.0000 -0.0795454715
C   C25       1.0  0.60930  0.79398  0.01611  1.0000 -0.0795454715
C   C26       1.0  0.39070  0.20602  0.51611  1.0000 -0.0795454715
C   C27       1.0  0.60930  0.70602  0.98389  1.0000 -0.0795454715
C   C28       1.0  0.39070  0.29398  0.48389  1.0000 -0.0795454715
C   C29       1.0  0.21380  0.14668  0.94502  1.0000 -0.2281209549
C   C30       1.0  0.78620  0.85332  0.44502  1.0000 -0.2281209549
C   C31       1.0  0.21380  0.35332  0.05498  1.0000 -0.2281209549
C   C32       1.0  0.78620  0.64668  0.55498  1.0000 -0.2281209549
C   C33       1.0  0.78620  0.85332  0.05498  1.0000 -0.2281209549
C   C34       1.0  0.21380  0.14668  0.55498  1.0000 -0.2281209549
C   C35       1.0  0.78620  0.64668  0.94502  1.0000 -0.2281209549
C   C36       1.0  0.21380  0.35332  0.44502  1.0000 -0.2281209549
C   C37       1.0  0.08200  0.07468  0.95033  1.0000 0.6004702206
C   C38       1.0  0.91800  0.92532  0.45033  1.0000 0.6004702206
C   C39       1.0  0.08200  0.42532  0.04967  1.0000 0.6004702206
C   C40       1.0  0.91800  0.57468  0.54967  1.0000 0.6004702206
C   C41       1.0  0.91800  0.92532  0.04967  1.0000 0.6004702206
C   C42       1.0  0.08200  0.07468  0.54967  1.0000 0.6004702206
C   C43       1.0  0.91800  0.57468  0.95033  1.0000 0.6004702206
C   C44       1.0  0.08200  0.42532  0.45033  1.0000 0.6004702206
C   C45       1.0  0.24710  0.19209  0.92378  1.0000 0.2529104965
C   C46       1.0  0.75290  0.80791  0.42378  1.0000 0.2529104965
C   C47       1.0  0.24710  0.30791  0.07622  1.0000 0.2529104965
C   C48       1.0  0.75290  0.69209  0.57622  1.0000 0.2529104965
C   C49       1.0  0.75290  0.80791  0.07622  1.0000 0.2529104965
C   C50       1.0  0.24710  0.19209  0.57622  1.0000 0.2529104965
C   C51       1.0  0.75290  0.69209  0.92378  1.0000 0.2529104965
C   C52       1.0  0.24710  0.30791  0.42378  1.0000 0.2529104965
C   C53       1.0  0.19170  0.21254  0.88190  1.0000 -0.2007822228
C   C54       1.0  0.80830  0.78746  0.38190  1.0000 -0.2007822228
C   C55       1.0  0.19170  0.28746  0.11810  1.0000 -0.2007822228
C   C56       1.0  0.80830  0.71254  0.61810  1.0000 -0.2007822228
C   C57       1.0  0.80830  0.78746  0.11810  1.0000 -0.2007822228
C   C58       1.0  0.19170  0.21254  0.61810  1.0000 -0.2007822228
C   C59       1.0  0.80830  0.71254  0.88190  1.0000 -0.2007822228
C   C60       1.0  0.19170  0.28746  0.38190  1.0000 -0.2007822228
C   C61       1.0  0.04380  0.21340  0.81981  1.0000 0.6004702206
C   C62       1.0  0.95620  0.78660  0.31981  1.0000 0.6004702206
C   C63       1.0  0.04380  0.28660  0.18019  1.0000 0.6004702206
C   C64       1.0  0.95620  0.71340  0.68019  1.0000 0.6004702206
C   C65       1.0  0.95620  0.78660  0.18019  1.0000 0.6004702206
C   C66       1.0  0.04380  0.21340  0.68019  1.0000 0.6004702206
C   C67       1.0  0.95620  0.71340  0.81981  1.0000 0.6004702206
C   C68       1.0  0.04380  0.28660  0.31981  1.0000 0.6004702206
C   C69       1.0  0.07050  0.14273  0.88343  1.0000 -0.1144871065
C   C70       1.0  0.92950  0.85727  0.38343  1.0000 -0.1144871065
C   C71       1.0  0.07050  0.35727  0.11657  1.0000 -0.1144871065
C   C72       1.0  0.92950  0.64273  0.61657  1.0000 -0.1144871065
C   C73       1.0  0.92950  0.85727  0.11657  1.0000 -0.1144871065
C   C74       1.0  0.07050  0.14273  0.61657  1.0000 -0.1144871065
C   C75       1.0  0.92950  0.64273  0.88343  1.0000 -0.1144871065
C   C76       1.0  0.07050  0.35727  0.38343  1.0000 -0.1144871065
C   C77       1.0  0.72560  0.37056  0.96145  1.0000 -0.2099066508
C   C78       1.0  0.27440  0.62944  0.46145  1.0000 -0.2099066508
C   C79       1.0  0.72560  0.12944  0.03855  1.0000 -0.2099066508
C   C80       1.0  0.27440  0.87056  0.53855  1.0000 -0.2099066508
C   C81       1.0  0.27440  0.62944  0.03855  1.0000 -0.2099066508
C   C82       1.0  0.72560  0.37056  0.53855  1.0000 -0.2099066508
C   C83       1.0  0.27440  0.87056  0.96145  1.0000 -0.2099066508
C   C84       1.0  0.72560  0.12944  0.46145  1.0000 -0.2099066508
C   C85       1.0  0.53330  0.26628  0.95496  1.0000 -0.0795454715
C   C86       1.0  0.46670  0.73372  0.45496  1.0000 -0.0795454715
C   C87       1.0  0.53330  0.23372  0.04504  1.0000 -0.0795454715
C   C88       1.0  0.46670  0.76628  0.54504  1.0000 -0.0795454715
C   C89       1.0  0.46670  0.73372  0.04504  1.0000 -0.0795454715
C   C90       1.0  0.53330  0.26628  0.54504  1.0000 -0.0795454715
C   C91       1.0  0.46670  0.76628  0.95496  1.0000 -0.0795454715
C   C92       1.0  0.53330  0.23372  0.45496  1.0000 -0.0795454715
C   C93       1.0  0.67250  0.32860  0.94147  1.0000 0.2529104965
C   C94       1.0  0.32750  0.67140  0.44147  1.0000 0.2529104965
C   C95       1.0  0.67250  0.17140  0.05853  1.0000 0.2529104965
C   C96       1.0  0.32750  0.82860  0.55853  1.0000 0.2529104965
C   C97       1.0  0.32750  0.67140  0.05853  1.0000 0.2529104965
C   C98       1.0  0.67250  0.32860  0.55853  1.0000 0.2529104965
C   C99       1.0  0.32750  0.82860  0.94147  1.0000 0.2529104965
C   C100      1.0  0.67250  0.17140  0.44147  1.0000 0.2529104965
C   C101      1.0  0.70530  0.30729  0.89534  1.0000 -0.2418949289
C   C102      1.0  0.29470  0.69271  0.39534  1.0000 -0.2418949289
C   C103      1.0  0.70530  0.19271  0.10466  1.0000 -0.2418949289
C   C104      1.0  0.29470  0.80729  0.60466  1.0000 -0.2418949289
C   C105      1.0  0.29470  0.69271  0.10466  1.0000 -0.2418949289
C   C106      1.0  0.70530  0.30729  0.60466  1.0000 -0.2418949289
C   C107      1.0  0.29470  0.80729  0.89534  1.0000 -0.2418949289
C   C108      1.0  0.70530  0.19271  0.39534  1.0000 -0.2418949289
C   C109      1.0  0.79430  0.32875  0.87002  1.0000 -0.0101445176
C   C110      1.0  0.20570  0.67125  0.37002  1.0000 -0.0101445176
C   C111      1.0  0.79430  0.17125  0.12998  1.0000 -0.0101445176
C   C112      1.0  0.20570  0.82875  0.62998  1.0000 -0.0101445176
C   C113      1.0  0.20570  0.67125  0.12998  1.0000 -0.0101445176
C   C114      1.0  0.79430  0.32875  0.62998  1.0000 -0.0101445176
C   C115      1.0  0.20570  0.82875  0.87002  1.0000 -0.0101445176
C   C116      1.0  0.79430  0.17125  0.37002  1.0000 -0.0101445176
C   C117      1.0  0.81330  0.39089  0.93539  1.0000 -0.0181478436
C   C118      1.0  0.18670  0.60911  0.43539  1.0000 -0.0181478436
C   C119      1.0  0.81330  0.10911  0.06461  1.0000 -0.0181478436
C   C120      1.0  0.18670  0.89089  0.56461  1.0000 -0.0181478436
C   C121      1.0  0.18670  0.60911  0.06461  1.0000 -0.0181478436
C   C122      1.0  0.81330  0.39089  0.56461  1.0000 -0.0181478436
C   C123      1.0  0.18670  0.89089  0.93539  1.0000 -0.0181478436
C   C124      1.0  0.81330  0.10911  0.43539  1.0000 -0.0181478436
C   C125      1.0  0.87570  0.43344  0.95977  1.0000 0.6004702206
C   C126      1.0  0.12430  0.56656  0.45977  1.0000 0.6004702206
C   C127      1.0  0.87570  0.06656  0.04023  1.0000 0.6004702206
C   C128      1.0  0.12430  0.93344  0.54023  1.0000 0.6004702206
C   C129      1.0  0.12430  0.56656  0.04023  1.0000 0.6004702206
C   C130      1.0  0.87570  0.43344  0.54023  1.0000 0.6004702206
C   C131      1.0  0.12430  0.93344  0.95977  1.0000 0.6004702206
C   C132      1.0  0.87570  0.06656  0.45977  1.0000 0.6004702206
C   C133      1.0  0.84590  0.37016  0.89036  1.0000 -0.1144871065
C   C134      1.0  0.15410  0.62984  0.39036  1.0000 -0.1160458522
C   C135      1.0  0.84590  0.12984  0.10964  1.0000 -0.1160458522
C   C136      1.0  0.15410  0.87016  0.60964  1.0000 -0.1160458522
C   C137      1.0  0.15410  0.62984  0.10964  1.0000 -0.1160458522
C   C138      1.0  0.84590  0.37016  0.60964  1.0000 -0.1160458522
C   C139      1.0  0.15410  0.87016  0.89036  1.0000 -0.1160458522
C   C140      1.0  0.84590  0.12984  0.39036  1.0000 -0.1160458522
C   C141      1.0  0.83730  0.30406  0.82266  1.0000 0.6004702206
C   C142      1.0  0.16270  0.69594  0.32266  1.0000 0.6004702206
C   C143      1.0  0.83730  0.19594  0.17734  1.0000 0.6004702206
C   C144      1.0  0.16270  0.80406  0.67734  1.0000 0.6004702206
C   C145      1.0  0.16270  0.69594  0.17734  1.0000 0.6004702206
C   C146      1.0  0.83730  0.30406  0.67734  1.0000 0.6004702206
C   C147      1.0  0.16270  0.80406  0.82266  1.0000 0.6004702206
C   C148      1.0  0.83730  0.19594  0.32266  1.0000 0.6004702206
O   O1        1.0  0.33090  0.22161  0.94070  1.0000 -0.2007822228
O   O2        1.0  0.66910  0.77839  0.44070  1.0000 -0.2007822228
O   O3        1.0  0.33090  0.27839  0.05930  1.0000 -0.2007822228
O   O4        1.0  0.66910  0.72161  0.55930  1.0000 -0.2007822228
O   O5        1.0  0.66910  0.77839  0.05930  1.0000 -0.2007822228
O   O6        1.0  0.33090  0.22161  0.55930  1.0000 -0.2007822228
O   O7        1.0  0.66910  0.72161  0.94070  1.0000 -0.2007822228
O   O8        1.0  0.33090  0.27839  0.44070  1.0000 -0.2007822228
O   O9        1.0  0.95820  0.19187  0.80422  1.0000 -0.5474200976
O   O10       1.0  0.04180  0.80813  0.30422  1.0000 -0.5474200976
O   O11       1.0  0.95820  0.30813  0.19578  1.0000 -0.5474200976
O   O12       1.0  0.04180  0.69187  0.69578  1.0000 -0.5474200976
O   O13       1.0  0.04180  0.80813  0.19578  1.0000 -0.5474200976
O   O14       1.0  0.95820  0.19187  0.69578  1.0000 -0.5474200976
O   O15       1.0  0.04180  0.69187  0.80422  1.0000 -0.5474200976
O   O16       1.0  0.95820  0.30813  0.30422  1.0000 -0.5474200976
O   O17       1.0  0.12840  0.06121  0.99030  1.0000 -0.5474200976
O   O18       1.0  0.87160  0.93879  0.49030  1.0000 -0.5474200976
O   O19       1.0  0.12840  0.43879  0.00970  1.0000 -0.5474200976
O   O20       1.0  0.87160  0.56121  0.50970  1.0000 -0.5474200976
O   O21       1.0  0.87160  0.93879  0.00970  1.0000 -0.5474200976
O   O22       1.0  0.12840  0.06121  0.50970  1.0000 -0.5474200976
O   O23       1.0  0.87160  0.56121  0.99030  1.0000 -0.5474200976
O   O24       1.0  0.12840  0.43879  0.49030  1.0000 -0.5474200976
O   O25       1.0  0.00310  0.05280  0.92940  1.0000 -0.5421816987
O   O26       1.0  0.99690  0.94720  0.42940  1.0000 -0.5421816987
O   O27       1.0  0.00310  0.44720  0.07060  1.0000 -0.5421816987
O   O28       1.0  0.99690  0.55280  0.57060  1.0000 -0.5421816987
O   O29       1.0  0.99690  0.94720  0.07060  1.0000 -0.5421816987
O   O30       1.0  0.00310  0.05280  0.57060  1.0000 -0.5421816987
O   O31       1.0  0.99690  0.55280  0.92940  1.0000 -0.5421816987
O   O32       1.0  0.00310  0.44720  0.42940  1.0000 -0.5421816987
O   O33       1.0  0.08280  0.25361  0.80214  1.0000 -0.5474200976
O   O34       1.0  0.91720  0.74639  0.30214  1.0000 -0.5474200976
O   O35       1.0  0.08280  0.24639  0.19786  1.0000 -0.5474200976
O   O36       1.0  0.91720  0.75361  0.69786  1.0000 -0.5474200976
O   O37       1.0  0.91720  0.74639  0.19786  1.0000 -0.5474200976
O   O38       1.0  0.08280  0.25361  0.69786  1.0000 -0.5474200976
O   O39       1.0  0.91720  0.75361  0.80214  1.0000 -0.5474200976
O   O40       1.0  0.08280  0.24639  0.30214  1.0000 -0.5474200976
O   O41       1.0  0.59030  0.31042  0.97125  1.0000 -0.2007822228
O   O42       1.0  0.40970  0.68958  0.47125  1.0000 -0.2007822228
O   O43       1.0  0.59030  0.18958  0.02875  1.0000 -0.2007822228
O   O44       1.0  0.40970  0.81042  0.52875  1.0000 -0.2007822228
O   O45       1.0  0.40970  0.68958  0.02875  1.0000 -0.2007822228
O   O46       1.0  0.59030  0.31042  0.52875  1.0000 -0.2007822228
O   O47       1.0  0.40970  0.81042  0.97125  1.0000 -0.2007822228
O   O48       1.0  0.59030  0.18958  0.47125  1.0000 -0.2007822228
O   O49       1.0  0.83780  0.45370  0.99921  1.0000 -0.5421816987
O   O50       1.0  0.16220  0.54630  0.49921  1.0000 -0.5421816987
O   O51       1.0  0.83780  0.04630  0.00079  1.0000 -0.5421816987
O   O52       1.0  0.16220  0.95370  0.50079  1.0000 -0.5421816987
O   O53       1.0  0.16220  0.54630  0.00079  1.0000 -0.5421816987
O   O54       1.0  0.83780  0.45370  0.50079  1.0000 -0.5421816987
O   O55       1.0  0.16220  0.95370  0.99921  1.0000 -0.5421816987
O   O56       1.0  0.83780  0.04630  0.49921  1.0000 -0.5421816987
O   O57       1.0  0.78950  0.26446  0.80602  1.0000 -0.5578787906
O   O58       1.0  0.21050  0.73554  0.30602  1.0000 -0.5578787906
O   O59       1.0  0.78950  0.23554  0.19398  1.0000 -0.5578787906
O   O60       1.0  0.21050  0.76446  0.69398  1.0000 -0.5578787906
O   O61       1.0  0.21050  0.73554  0.19398  1.0000 -0.5578787906
O   O62       1.0  0.78950  0.26446  0.69398  1.0000 -0.5578787906
O   O63       1.0  0.21050  0.76446  0.80602  1.0000 -0.5578787906
O   O64       1.0  0.78950  0.23554  0.30602  1.0000 -0.5578787906
O   O65       1.0  0.96110  0.44642  0.93828  1.0000 -0.5421816987
O   O66       1.0  0.03890  0.55358  0.43828  1.0000 -0.5421816987
O   O67       1.0  0.96110  0.05358  0.06172  1.0000 -0.5421816987
O   O68       1.0  0.03890  0.94642  0.56172  1.0000 -0.5421816987
O   O69       1.0  0.03890  0.55358  0.06172  1.0000 -0.5421816987
O   O70       1.0  0.96110  0.44642  0.56172  1.0000 -0.5421816987
O   O71       1.0  0.03890  0.94642  0.93828  1.0000 -0.5421816987
O   O72       1.0  0.96110  0.05358  0.43828  1.0000 -0.5421816987
O   O73       1.0  0.91710  0.32501  0.80303  1.0000 -0.5332406146
O   O74       1.0  0.08290  0.67499  0.30303  1.0000 -0.5332406146
O   O75       1.0  0.91710  0.17499  0.19697  1.0000 -0.5332406146
O   O76       1.0  0.08290  0.82501  0.69697  1.0000 -0.5332406146
O   O77       1.0  0.08290  0.67499  0.19697  1.0000 -0.5332406146
O   O78       1.0  0.91710  0.32501  0.69697  1.0000 -0.5332406146
O   O79       1.0  0.08290  0.82501  0.80303  1.0000 -0.5332406146
O   O80       1.0  0.91710  0.17499  0.30303  1.0000 -0.5332406146
