# DDEC6 charges by PACMAN v1.1 (https://github.com/mtap-research/PACMAN-charge/)
data_2012[La][nan]3[ASR]2
_chemical_formula_sum              "La4 H16 C20 O32"
_cell_length_a       6.1092
_cell_length_b       7.6866
_cell_length_c       22.6987
_cell_angle_alpha    90
_cell_angle_beta     91.657
_cell_angle_gamma    90

_symmetry_space_group_name_H-M    "P 1"
_symmetry_Int_Tables_number       1

loop_
  _symmetry_equiv_pos_as_xyz
  'x, y, z'

loop_
  _atom_site_type_symbol
  _atom_site_label
  _atom_site_symmetry_multiplicity
  _atom_site_fract_x
  _atom_site_fract_y
  _atom_site_fract_z
  _atom_site_occupancy
  _atom_site_charge
La  La1       1.0  0.45487  0.50172  0.85391  1.0000 1.8079611218
La  La2       1.0  0.54513  0.00172  0.64609  1.0000 1.8079611218
La  La3       1.0  0.54513  0.49828  0.14610  1.0000 1.8079611218
La  La4       1.0  0.45487  0.99828  0.35391  1.0000 1.8079611218
H   H1        1.0  0.30200  0.72400  0.75810  1.0000 0.3318767703
H   H2        1.0  0.69800  0.22400  0.74189  1.0000 0.3318767703
H   H3        1.0  0.69800  0.27600  0.24189  1.0000 0.3318767703
H   H4        1.0  0.30200  0.77600  0.25810  1.0000 0.3318767703
H   H5        1.0  0.44400  0.62500  0.61660  1.0000 0.3634198463
H   H6        1.0  0.55600  0.12500  0.88340  1.0000 0.3634198463
H   H7        1.0  0.55600  0.37500  0.38339  1.0000 0.3634198463
H   H8        1.0  0.44400  0.87500  0.11661  1.0000 0.3634198463
H   H9        1.0  0.04160  0.47800  0.71761  1.0000 0.1302060435
H   H10       1.0  0.95840  0.97800  0.78239  1.0000 0.1302060435
H   H11       1.0  0.95840  0.52200  0.28240  1.0000 0.1302060435
H   H12       1.0  0.04160  0.02200  0.21760  1.0000 0.1302060435
H   H13       1.0  0.12020  0.56560  0.62511  1.0000 0.1302060435
H   H14       1.0  0.87980  0.06560  0.87489  1.0000 0.1302060435
H   H15       1.0  0.87980  0.43440  0.37489  1.0000 0.1302060435
H   H16       1.0  0.12020  0.93440  0.12510  1.0000 0.1302060435
C   C1        1.0  0.36140  0.39410  0.71127  1.0000 0.5882710075
C   C2        1.0  0.63860  0.89410  0.78873  1.0000 0.5882710075
C   C3        1.0  0.63860  0.60590  0.28873  1.0000 0.5882710075
C   C4        1.0  0.36140  0.10590  0.21127  1.0000 0.5882710075
C   C5        1.0  0.18400  0.53540  0.71445  1.0000 0.0068055355
C   C6        1.0  0.81600  0.03540  0.78555  1.0000 0.0068055355
C   C7        1.0  0.81600  0.46460  0.28554  1.0000 0.0068055355
C   C8        1.0  0.18400  0.96460  0.21446  1.0000 0.0068055355
C   C9        1.0  0.18260  0.63910  0.65668  1.0000 -0.0083233959
C   C10       1.0  0.81740  0.13910  0.84332  1.0000 -0.0083233959
C   C11       1.0  0.81740  0.36090  0.34332  1.0000 -0.0083233959
C   C12       1.0  0.18260  0.86090  0.15668  1.0000 -0.0083233959
C   C13       1.0  0.04660  0.80580  0.65987  1.0000 0.5981840348
C   C14       1.0  0.95340  0.30580  0.84013  1.0000 0.5981840348
C   C15       1.0  0.95340  0.19420  0.34014  1.0000 0.5981840348
C   C16       1.0  0.04660  0.69420  0.15987  1.0000 0.5981840348
C   C17       1.0  0.58240  0.57600  0.99870  1.0000 0.4994444108
C   C18       1.0  0.41760  0.07600  0.50130  1.0000 0.4994444108
C   C19       1.0  0.41760  0.42400  0.00129  1.0000 0.4994444108
C   C20       1.0  0.58240  0.92400  0.49871  1.0000 0.4994444108
O   O1        1.0  0.51110  0.39790  0.75079  1.0000 -0.5920042166
O   O2        1.0  0.48890  0.89790  0.74921  1.0000 -0.5920042166
O   O3        1.0  0.48890  0.60210  0.24921  1.0000 -0.5920042166
O   O4        1.0  0.51110  0.10210  0.25078  1.0000 -0.5920042166
O   O5        1.0  0.35060  0.28690  0.67021  1.0000 -0.5713661605
O   O6        1.0  0.64940  0.78690  0.82980  1.0000 -0.5713661605
O   O7        1.0  0.64940  0.71310  0.32980  1.0000 -0.5713661605
O   O8        1.0  0.35060  0.21310  0.17020  1.0000 -0.5713661605
O   O9        1.0  0.22020  0.64020  0.76536  1.0000 -0.5096201146
O   O10       1.0  0.77980  0.14020  0.73464  1.0000 -0.5096201146
O   O11       1.0  0.77980  0.35980  0.23464  1.0000 -0.5096201146
O   O12       1.0  0.22020  0.85980  0.26537  1.0000 -0.5096201146
O   O13       1.0  0.39980  0.68590  0.64175  1.0000 -0.4721568668
O   O14       1.0  0.60020  0.18590  0.85825  1.0000 -0.4721568668
O   O15       1.0  0.60020  0.31410  0.35824  1.0000 -0.4721568668
O   O16       1.0  0.39980  0.81410  0.14175  1.0000 -0.4721568668
O   O17       1.0  0.14550  0.94730  0.65468  1.0000 -0.5713661605
O   O18       1.0  0.85450  0.44730  0.84532  1.0000 -0.5713661605
O   O19       1.0  0.85450  0.05270  0.34532  1.0000 -0.5713661605
O   O20       1.0  0.14550  0.55270  0.15468  1.0000 -0.5713661605
O   O21       1.0  0.84620  0.78930  0.66667  1.0000 -0.5920042166
O   O22       1.0  0.15380  0.28930  0.83333  1.0000 -0.5920042166
O   O23       1.0  0.15380  0.21070  0.33333  1.0000 -0.5920042166
O   O24       1.0  0.84620  0.71070  0.16667  1.0000 -0.5920042166
O   O25       1.0  0.62350  0.63190  0.94825  1.0000 -0.5622076684
O   O26       1.0  0.37650  0.13190  0.55175  1.0000 -0.5622076684
O   O27       1.0  0.37650  0.36810  0.05176  1.0000 -0.5622076684
O   O28       1.0  0.62350  0.86810  0.44824  1.0000 -0.5622076684
O   O29       1.0  0.66150  0.63060  0.04630  1.0000 -0.577326014
O   O30       1.0  0.33850  0.13060  0.45370  1.0000 -0.577326014
O   O31       1.0  0.33850  0.36940  0.95369  1.0000 -0.577326014
O   O32       1.0  0.66150  0.86940  0.54631  1.0000 -0.577326014
