# DDEC6 charges by PACMAN v1.1 (https://github.com/mtap-research/PACMAN-charge/)
data_2012[La][nan]3[ASR]1
_chemical_formula_sum              "La2 H40 C52 O19"
_cell_length_a       16.9754
_cell_length_b       16.9754
_cell_length_c       14.349
_cell_angle_alpha    75.8456
_cell_angle_beta     104.154
_cell_angle_gamma    154.844

_symmetry_space_group_name_H-M    "P 1"
_symmetry_Int_Tables_number       1

loop_
  _symmetry_equiv_pos_as_xyz
  'x, y, z'

loop_
  _atom_site_type_symbol
  _atom_site_label
  _atom_site_symmetry_multiplicity
  _atom_site_fract_x
  _atom_site_fract_y
  _atom_site_fract_z
  _atom_site_occupancy
  _atom_site_charge
La  La1       1.0  0.99393  0.49261  0.96377  1.0000 1.7881010388
La  La2       1.0  0.49261  0.99393  0.03623  1.0000 1.7881010388
H   H1        1.0  0.81800  0.71920  0.52700  1.0000 0.1001976899
H   H2        1.0  0.71920  0.81800  0.47300  1.0000 0.1001976899
H   H3        1.0  0.72960  0.69840  0.43340  1.0000 0.0932611216
H   H4        1.0  0.69840  0.72960  0.56660  1.0000 0.0932611216
H   H5        1.0  0.21240  0.10200  0.49210  1.0000 0.1001976899
H   H6        1.0  0.10200  0.21240  0.50790  1.0000 0.1001976899
H   H7        1.0  0.24860  0.07720  0.42400  1.0000 0.1001976899
H   H8        1.0  0.07720  0.24860  0.57600  1.0000 0.1001976899
H   H9        1.0  0.76180  0.63120  0.34370  1.0000 0.1001976899
H   H10       1.0  0.63120  0.76180  0.65630  1.0000 0.1001976899
H   H11       1.0  0.85180  0.64880  0.43310  1.0000 0.1001976899
H   H12       1.0  0.64880  0.85180  0.56690  1.0000 0.1001976899
H   H13       1.0  0.10200  0.03320  0.28100  1.0000 0.1001976899
H   H14       1.0  0.03320  0.10200  0.71900  1.0000 0.1001976899
H   H15       1.0  0.10900  0.10060  0.34770  1.0000 0.1001976899
H   H16       1.0  0.10060  0.10900  0.65230  1.0000 0.1001976899
H   H17       1.0  0.67430  0.42590  0.34190  1.0000 0.1144847263
H   H18       1.0  0.42590  0.67430  0.65810  1.0000 0.1144847263
H   H19       1.0  0.56220  0.22400  0.26880  1.0000 0.1199948639
H   H20       1.0  0.22400  0.56220  0.73120  1.0000 0.1199948639
H   H21       1.0  0.02740  0.65580  0.12730  1.0000 0.1199948639
H   H22       1.0  0.65580  0.02740  0.87270  1.0000 0.1199948639
H   H23       1.0  0.13510  0.85270  0.19940  1.0000 0.1363574777
H   H24       1.0  0.85270  0.13510  0.80060  1.0000 0.1363574777
H   H25       1.0  0.61080  0.74800  0.21060  1.0000 0.1283641298
H   H26       1.0  0.74800  0.61080  0.78940  1.0000 0.1283641298
H   H27       1.0  0.62260  0.89200  0.11890  1.0000 0.1283641298
H   H28       1.0  0.89200  0.62260  0.88110  1.0000 0.1283641298
H   H29       1.0  0.17330  0.37090  0.11880  1.0000 0.1199948639
H   H30       1.0  0.37090  0.17330  0.88120  1.0000 0.1199948639
H   H31       1.0  0.16200  0.22740  0.20640  1.0000 0.1199948639
H   H32       1.0  0.22740  0.16200  0.79360  1.0000 0.1199948639
H   H33       1.0  0.47250  0.27410  0.55600  1.0000 0.1199948639
H   H34       1.0  0.27410  0.47250  0.44400  1.0000 0.1199948639
H   H35       1.0  0.69460  0.41860  0.67220  1.0000 0.1199948639
H   H36       1.0  0.41860  0.69460  0.32780  1.0000 0.1199948639
H   H37       1.0  0.34660  0.92900  0.79040  1.0000 0.1199948639
H   H38       1.0  0.92900  0.34660  0.20960  1.0000 0.1199948639
H   H39       1.0  0.11510  0.77950  0.67560  1.0000 0.1455603753
H   H40       1.0  0.77950  0.11510  0.32440  1.0000 0.1455603753
C   C1        1.0  0.97920  0.87520  0.41050  1.0000 0.0705896754
C   C2        1.0  0.87520  0.97920  0.58950  1.0000 0.0705896754
C   C3        1.0  0.84510  0.78630  0.47090  1.0000 -0.0971243914
C   C4        1.0  0.78630  0.84510  0.52910  1.0000 -0.0971243914
C   C5        1.0  0.16050  0.01170  0.46610  1.0000 -0.0971243914
C   C6        1.0  0.01170  0.16050  0.53390  1.0000 -0.0971243914
C   C7        1.0  0.87870  0.71630  0.37760  1.0000 -0.0935703452
C   C8        1.0  0.71630  0.87870  0.62240  1.0000 -0.0935703452
C   C9        1.0  0.03180  0.99180  0.32470  1.0000 -0.0780400309
C   C10       1.0  0.99180  0.03180  0.67530  1.0000 -0.0780400309
C   C11       1.0  0.91330  0.65770  0.27550  1.0000 0.2429682975
C   C12       1.0  0.65770  0.91330  0.72450  1.0000 0.2429682975
C   C13       1.0  0.74450  0.47190  0.29810  1.0000 -0.2433945621
C   C14       1.0  0.47190  0.74450  0.70190  1.0000 -0.2433945621
C   C15       1.0  0.67810  0.35110  0.25440  1.0000 -0.0780400309
C   C16       1.0  0.35110  0.67810  0.74560  1.0000 -0.0780400309
C   C17       1.0  0.78090  0.41690  0.19110  1.0000 -0.0578738108
C   C18       1.0  0.41690  0.78090  0.80890  1.0000 -0.0578738108
C   C19       1.0  0.95520  0.60820  0.17000  1.0000 -0.0780400309
C   C20       1.0  0.60820  0.95520  0.83000  1.0000 -0.0780400309
C   C21       1.0  0.01870  0.72530  0.21290  1.0000 -0.2037895705
C   C22       1.0  0.72530  0.01870  0.78710  1.0000 -0.2037895705
C   C23       1.0  0.88710  0.97830  0.21870  1.0000 0.2429682975
C   C24       1.0  0.97830  0.88710  0.78130  1.0000 0.2429682975
C   C25       1.0  0.72390  0.87370  0.19220  1.0000 -0.2228122737
C   C26       1.0  0.87370  0.72390  0.80780  1.0000 -0.2228122737
C   C27       1.0  0.73180  0.96060  0.13710  1.0000 -0.0693750578
C   C28       1.0  0.96060  0.73180  0.86290  1.0000 -0.0693750578
C   C29       1.0  0.90010  0.14770  0.10890  1.0000 -0.0693750578
C   C30       1.0  0.14770  0.90010  0.89110  1.0000 -0.0693750578
C   C31       1.0  0.05920  0.24500  0.13660  1.0000 -0.0780400309
C   C32       1.0  0.24500  0.05920  0.86340  1.0000 -0.0780400309
C   C33       1.0  0.05370  0.16070  0.19020  1.0000 -0.2337702747
C   C34       1.0  0.16070  0.05370  0.80980  1.0000 -0.2337702747
C   C35       1.0  0.91420  0.24540  0.05380  1.0000 0.5786008452
C   C36       1.0  0.24540  0.91420  0.94620  1.0000 0.5786008452
C   C37       1.0  0.27130  0.01330  0.60510  1.0000 0.2546946023
C   C38       1.0  0.01330  0.27130  0.39490  1.0000 0.2546946023
C   C39       1.0  0.44560  0.20400  0.60370  1.0000 -0.2433945621
C   C40       1.0  0.20400  0.44560  0.39630  1.0000 -0.2433945621
C   C41       1.0  0.57880  0.28980  0.67230  1.0000 -0.0780400309
C   C42       1.0  0.28980  0.57880  0.32770  1.0000 -0.0780400309
C   C43       1.0  0.54680  0.18980  0.74280  1.0000 -0.0578738108
C   C44       1.0  0.18980  0.54680  0.25720  1.0000 -0.0578738108
C   C45       1.0  0.37210  0.99870  0.74360  1.0000 -0.0693750578
C   C46       1.0  0.99870  0.37210  0.25640  1.0000 -0.0693750578
C   C47       1.0  0.23260  0.90840  0.67480  1.0000 -0.2134408738
C   C48       1.0  0.90840  0.23260  0.32520  1.0000 -0.2134408738
C   C49       1.0  0.69380  0.28760  0.81750  1.0000 0.585689864
C   C50       1.0  0.28760  0.69380  0.18250  1.0000 0.585689864
C   C51       1.0  0.70230  0.28370  0.14370  1.0000 0.5965211604
C   C52       1.0  0.28370  0.70230  0.85630  1.0000 0.5965211604
O   O1        1.0  0.77549  0.16771  0.04240  1.0000 -0.6510401453
O   O2        1.0  0.16771  0.77549  0.95760  1.0000 -0.6510401453
O   O3        1.0  0.06467  0.40673  0.02220  1.0000 -0.5493732477
O   O4        1.0  0.40673  0.06467  0.97780  1.0000 -0.5493732477
O   O5        1.0  0.55960  0.11700  0.17390  1.0000 -0.5594845797
O   O6        1.0  0.11700  0.55960  0.82610  1.0000 -0.5594845797
O   O7        1.0  0.77975  0.33965  0.07190  1.0000 -0.6610493
O   O8        1.0  0.33965  0.77975  0.92810  1.0000 -0.6610493
O   O9        1.0  0.65837  0.19303  0.88390  1.0000 -0.6610493
O   O10       1.0  0.19303  0.65837  0.11610  1.0000 -0.6610493
O   O11       1.0  0.84983  0.45937  0.81540  1.0000 -0.5493732477
O   O12       1.0  0.45937  0.84983  0.18460  1.0000 -0.5493732477
O   O13       1.0  0.99110  0.78690  0.31540  1.0000 -0.183539548
O   O14       1.0  0.78690  0.99110  0.68460  1.0000 -0.183539548
O   O15       1.0  0.12615  0.91165  0.54230  1.0000 -0.183539548
O   O16       1.0  0.91165  0.12615  0.45770  1.0000 -0.183539548
O   O17       1.0  0.86915  0.88405  0.27560  1.0000 -0.1912870045
O   O18       1.0  0.88405  0.86915  0.72440  1.0000 -0.1912870045
O   O19       1.0  0.92250  0.92250  0.50000  1.0000 -0.1912870045
