# DDEC6 charges by PACMAN v1.1 (https://github.com/mtap-research/PACMAN-charge/)
data_2012[Zn][srs]3[ASR]2
_chemical_formula_sum              "Zn8 H12 C36 O24"
_cell_length_a       12.935
_cell_length_b       14.708
_cell_length_c       15.359
_cell_angle_alpha    90
_cell_angle_beta     90
_cell_angle_gamma    90

_symmetry_space_group_name_H-M    "P 1"
_symmetry_Int_Tables_number       1

loop_
  _symmetry_equiv_pos_as_xyz
  'x, y, z'

loop_
  _atom_site_type_symbol
  _atom_site_label
  _atom_site_symmetry_multiplicity
  _atom_site_fract_x
  _atom_site_fract_y
  _atom_site_fract_z
  _atom_site_occupancy
  _atom_site_charge
Zn  Zn1       1.0  0.03600  0.04053  0.05877  1.0000 0.88852332
Zn  Zn2       1.0  0.46400  0.95947  0.55877  1.0000 0.88852332
Zn  Zn3       1.0  0.96400  0.54053  0.44123  1.0000 0.884816825
Zn  Zn4       1.0  0.53600  0.45947  0.94123  1.0000 0.88852332
Zn  Zn5       1.0  0.19483  0.16701  0.16411  1.0000 1.0188772079
Zn  Zn6       1.0  0.30517  0.83298  0.66411  1.0000 1.0188772079
Zn  Zn7       1.0  0.80517  0.66701  0.33589  1.0000 1.0188772079
Zn  Zn8       1.0  0.69483  0.33298  0.83589  1.0000 1.0188772079
H   H1        1.0  0.31167  0.25248  0.97053  1.0000 0.103102082
H   H2        1.0  0.18833  0.74752  0.47053  1.0000 0.103102082
H   H3        1.0  0.68833  0.75248  0.52947  1.0000 0.103102082
H   H4        1.0  0.81167  0.24752  0.02947  1.0000 0.103102082
H   H5        1.0  0.47295  0.18673  0.73166  1.0000 0.1073060256
H   H6        1.0  0.02705  0.81327  0.23166  1.0000 0.1073060256
H   H7        1.0  0.52705  0.68673  0.76834  1.0000 0.1073060256
H   H8        1.0  0.97295  0.31327  0.26834  1.0000 0.1073060256
H   H9        1.0  0.22732  0.01082  0.82497  1.0000 0.103102082
H   H10       1.0  0.27268  0.98918  0.32497  1.0000 0.103102082
H   H11       1.0  0.77268  0.51082  0.67503  1.0000 0.103102082
H   H12       1.0  0.72732  0.48918  0.17503  1.0000 0.103102082
C   C1        1.0  0.26245  0.12877  0.90427  1.0000 -0.0704076603
C   C2        1.0  0.23755  0.87123  0.40427  1.0000 -0.0704076603
C   C3        1.0  0.73755  0.62877  0.59573  1.0000 -0.0795297197
C   C4        1.0  0.76245  0.37123  0.09573  1.0000 -0.0704076603
C   C5        1.0  0.32277  0.20739  0.91478  1.0000 -0.0868913833
C   C6        1.0  0.17723  0.79261  0.41478  1.0000 -0.0868913833
C   C7        1.0  0.67723  0.70739  0.58522  1.0000 -0.0868913833
C   C8        1.0  0.82277  0.29261  0.08522  1.0000 -0.0868913833
C   C9        1.0  0.39769  0.22764  0.85190  1.0000 -0.0704076603
C   C10       1.0  0.10231  0.77236  0.35190  1.0000 -0.0704076603
C   C11       1.0  0.60231  0.72764  0.64810  1.0000 -0.0704076603
C   C12       1.0  0.89769  0.27236  0.14810  1.0000 -0.0704076603
C   C13       1.0  0.41377  0.17074  0.78036  1.0000 -0.0795297197
C   C14       1.0  0.08623  0.82926  0.28036  1.0000 -0.0795297197
C   C15       1.0  0.58623  0.67074  0.71964  1.0000 -0.0795297197
C   C16       1.0  0.91377  0.32926  0.21964  1.0000 -0.0795297197
C   C17       1.0  0.35202  0.09303  0.77128  1.0000 -0.0795297197
C   C18       1.0  0.14798  0.90697  0.27128  1.0000 -0.0795297197
C   C19       1.0  0.64798  0.59303  0.72872  1.0000 -0.0795297197
C   C20       1.0  0.85202  0.40697  0.22872  1.0000 -0.0795297197
C   C21       1.0  0.27590  0.07145  0.83273  1.0000 -0.0795297197
C   C22       1.0  0.22410  0.92855  0.33273  1.0000 -0.0795297197
C   C23       1.0  0.72410  0.57145  0.66727  1.0000 -0.0795297197
C   C24       1.0  0.77590  0.42855  0.16727  1.0000 -0.0795297197
C   C25       1.0  0.18136  0.10949  0.96860  1.0000 0.5902826186
C   C26       1.0  0.31864  0.89051  0.46860  1.0000 0.5902826186
C   C27       1.0  0.81864  0.60949  0.53140  1.0000 0.5902826186
C   C28       1.0  0.68136  0.39051  0.03140  1.0000 0.5902826186
C   C29       1.0  0.13418  0.96710  0.19540  1.0000 0.5902826186
C   C30       1.0  0.36582  0.03290  0.69540  1.0000 0.5902826186
C   C31       1.0  0.86582  0.46710  0.30460  1.0000 0.5902826186
C   C32       1.0  0.63418  0.53290  0.80460  1.0000 0.5902826186
C   C33       1.0  0.96236  0.19006  0.13865  1.0000 0.5902826186
C   C34       1.0  0.53764  0.80994  0.63865  1.0000 0.5902826186
C   C35       1.0  0.03764  0.69006  0.36135  1.0000 0.5957025882
C   C36       1.0  0.46236  0.30994  0.86135  1.0000 0.5902826186
O   O1        1.0  0.12599  0.03607  0.95887  1.0000 -0.5606040164
O   O2        1.0  0.37401  0.96393  0.45886  1.0000 -0.5606040164
O   O3        1.0  0.87401  0.53607  0.54113  1.0000 -0.5606040164
O   O4        1.0  0.62599  0.46393  0.04114  1.0000 -0.5606040164
O   O5        1.0  0.16470  0.16558  0.03092  1.0000 -0.6193451715
O   O6        1.0  0.33530  0.83442  0.53092  1.0000 -0.6193451715
O   O7        1.0  0.83530  0.66558  0.46908  1.0000 -0.6193451715
O   O8        1.0  0.66470  0.33442  0.96908  1.0000 -0.6193451715
O   O9        1.0  0.05391  0.95112  0.14665  1.0000 -0.5606040164
O   O10       1.0  0.44609  0.04888  0.64665  1.0000 -0.5606040164
O   O11       1.0  0.94609  0.45112  0.35335  1.0000 -0.5606040164
O   O12       1.0  0.55391  0.54888  0.85335  1.0000 -0.5606040164
O   O13       1.0  0.20036  0.02942  0.18114  1.0000 -0.6099654439
O   O14       1.0  0.29964  0.97058  0.68114  1.0000 -0.6193451715
O   O15       1.0  0.79964  0.52942  0.31886  1.0000 -0.6193451715
O   O16       1.0  0.70036  0.47058  0.81886  1.0000 -0.6193451715
O   O17       1.0  0.93490  0.13245  0.07849  1.0000 -0.5606040164
O   O18       1.0  0.56510  0.86755  0.57849  1.0000 -0.5606040164
O   O19       1.0  0.06510  0.63245  0.42151  1.0000 -0.5606040164
O   O20       1.0  0.43490  0.36755  0.92151  1.0000 -0.5606040164
O   O21       1.0  0.03941  0.17967  0.18932  1.0000 -0.6099654439
O   O22       1.0  0.46059  0.82033  0.68931  1.0000 -0.6039489909
O   O23       1.0  0.96059  0.67967  0.31068  1.0000 -0.6039489909
O   O24       1.0  0.53941  0.32033  0.81069  1.0000 -0.6039489909
