# DDEC6 charges by PACMAN v1.1 (https://github.com/mtap-research/PACMAN-charge/)
data_2012[Sm][nan]3[ASR]4
_chemical_formula_sum              "Sm8 H32 C56 N16 O48"
_cell_length_a       10.2815
_cell_length_b       11.2928
_cell_length_c       23.2652
_cell_angle_alpha    90
_cell_angle_beta     108.526
_cell_angle_gamma    90

_symmetry_space_group_name_H-M    "P 1"
_symmetry_Int_Tables_number       1

loop_
  _symmetry_equiv_pos_as_xyz
  'x, y, z'

loop_
  _atom_site_type_symbol
  _atom_site_label
  _atom_site_symmetry_multiplicity
  _atom_site_fract_x
  _atom_site_fract_y
  _atom_site_fract_z
  _atom_site_occupancy
  _atom_site_charge
Sm  Sm1       1.0  0.38400  0.31369  0.77418  1.0000 1.9592252798
Sm  Sm2       1.0  0.61600  0.81369  0.72582  1.0000 1.9592252798
Sm  Sm3       1.0  0.61600  0.68631  0.22582  1.0000 1.9592252798
Sm  Sm4       1.0  0.38400  0.18631  0.27418  1.0000 1.9592252798
Sm  Sm5       1.0  0.80387  0.41173  0.06429  1.0000 2.1916992493
Sm  Sm6       1.0  0.19613  0.91173  0.43571  1.0000 2.1916992493
Sm  Sm7       1.0  0.19613  0.58827  0.93571  1.0000 2.1916992493
Sm  Sm8       1.0  0.80387  0.08827  0.56429  1.0000 2.1916992493
H   H1        1.0  0.99330  0.03270  0.83610  1.0000 0.3106547422
H   H2        1.0  0.00670  0.53270  0.66390  1.0000 0.3106547422
H   H3        1.0  0.00670  0.96730  0.16390  1.0000 0.3106547422
H   H4        1.0  0.99330  0.46730  0.33610  1.0000 0.3106547422
H   H5        1.0  0.95460  0.38090  0.83640  1.0000 0.292645549
H   H6        1.0  0.04540  0.88090  0.66360  1.0000 0.292645549
H   H7        1.0  0.04540  0.61910  0.16360  1.0000 0.292645549
H   H8        1.0  0.95460  0.11910  0.33640  1.0000 0.292645549
H   H9        1.0  0.17220  0.10800  0.92520  1.0000 0.1342846132
H   H10       1.0  0.82780  0.60800  0.57480  1.0000 0.1342846132
H   H11       1.0  0.82780  0.89200  0.07480  1.0000 0.1342846132
H   H12       1.0  0.17220  0.39200  0.42520  1.0000 0.1342846132
H   H13       1.0  0.31140  0.12390  0.91190  1.0000 0.1704699188
H   H14       1.0  0.68860  0.62390  0.58810  1.0000 0.1704699188
H   H15       1.0  0.68860  0.87610  0.08810  1.0000 0.1704699188
H   H16       1.0  0.31140  0.37610  0.41190  1.0000 0.1704699188
H   H17       1.0  0.22080  0.23470  0.91360  1.0000 0.1704699188
H   H18       1.0  0.77920  0.73470  0.58640  1.0000 0.1704699188
H   H19       1.0  0.77920  0.76530  0.08640  1.0000 0.1704699188
H   H20       1.0  0.22080  0.26530  0.41360  1.0000 0.1704699188
H   H21       1.0  0.84600  0.35760  0.72710  1.0000 0.1453968711
H   H22       1.0  0.15400  0.85760  0.77290  1.0000 0.1453968711
H   H23       1.0  0.15400  0.64240  0.27290  1.0000 0.1453968711
H   H24       1.0  0.84600  0.14240  0.22710  1.0000 0.1453968711
H   H25       1.0  0.72180  0.26960  0.71230  1.0000 0.1704699188
H   H26       1.0  0.27820  0.76960  0.78770  1.0000 0.1704699188
H   H27       1.0  0.27820  0.73040  0.28770  1.0000 0.1704699188
H   H28       1.0  0.72180  0.23040  0.21230  1.0000 0.1704699188
H   H29       1.0  0.69550  0.40640  0.70570  1.0000 0.1704699188
H   H30       1.0  0.30450  0.90640  0.79430  1.0000 0.1704699188
H   H31       1.0  0.30450  0.59360  0.29430  1.0000 0.1704699188
H   H32       1.0  0.69550  0.09360  0.20570  1.0000 0.1704699188
C   C1        1.0  0.14580  0.13880  0.83630  1.0000 0.4371225066
C   C2        1.0  0.85420  0.63880  0.66370  1.0000 0.4371225066
C   C3        1.0  0.85420  0.86120  0.16370  1.0000 0.4371225066
C   C4        1.0  0.14580  0.36120  0.33630  1.0000 0.4371225066
C   C5        1.0  0.99120  0.07480  0.75130  1.0000 -0.0270956782
C   C6        1.0  0.00880  0.57480  0.74870  1.0000 -0.0270956782
C   C7        1.0  0.00880  0.92520  0.24870  1.0000 -0.0270956782
C   C8        1.0  0.99120  0.42520  0.25130  1.0000 -0.0270956782
C   C9        1.0  0.08460  0.14870  0.73810  1.0000 -0.0193908672
C   C10       1.0  0.91540  0.64870  0.76190  1.0000 -0.0193908672
C   C11       1.0  0.91540  0.85130  0.26190  1.0000 -0.0193908672
C   C12       1.0  0.08460  0.35130  0.23810  1.0000 -0.0193908672
C   C13       1.0  0.21910  0.15260  0.90270  1.0000 -0.501853744
C   C14       1.0  0.78090  0.65260  0.59730  1.0000 -0.501853744
C   C15       1.0  0.78090  0.84740  0.09730  1.0000 -0.501853744
C   C16       1.0  0.21910  0.34740  0.40270  1.0000 -0.501853744
C   C17       1.0  0.87530  0.99730  0.71690  1.0000 0.6053015269
C   C18       1.0  0.12470  0.49730  0.78310  1.0000 0.6053015269
C   C19       1.0  0.12470  0.00270  0.28310  1.0000 0.6053015269
C   C20       1.0  0.87530  0.50270  0.21690  1.0000 0.6053015269
C   C21       1.0  0.09860  0.18890  0.67960  1.0000 0.6304627485
C   C22       1.0  0.90140  0.68890  0.82040  1.0000 0.6304627485
C   C23       1.0  0.90140  0.81110  0.32040  1.0000 0.6304627485
C   C24       1.0  0.09860  0.31110  0.17960  1.0000 0.6304627485
C   C25       1.0  0.75680  0.35200  0.79280  1.0000 0.4257255621
C   C26       1.0  0.24320  0.85200  0.70720  1.0000 0.4257255621
C   C27       1.0  0.24320  0.64800  0.20720  1.0000 0.4247068889
C   C28       1.0  0.75680  0.14800  0.29280  1.0000 0.4247068889
C   C29       1.0  0.84300  0.37070  0.89330  1.0000 -0.0193908672
C   C30       1.0  0.15700  0.87070  0.60670  1.0000 -0.0193908672
C   C31       1.0  0.15700  0.62930  0.10670  1.0000 -0.0193908672
C   C32       1.0  0.84300  0.12930  0.39330  1.0000 -0.0193908672
C   C33       1.0  0.70340  0.35190  0.87610  1.0000 0.0053941817
C   C34       1.0  0.29660  0.85190  0.62390  1.0000 0.0046428838
C   C35       1.0  0.29660  0.64810  0.12390  1.0000 0.0046428838
C   C36       1.0  0.70340  0.14810  0.37610  1.0000 0.0046428838
C   C37       1.0  0.75480  0.34580  0.72880  1.0000 -0.5302764945
C   C38       1.0  0.24520  0.84580  0.77120  1.0000 -0.5302764945
C   C39       1.0  0.24520  0.65420  0.27120  1.0000 -0.5302764945
C   C40       1.0  0.75480  0.15420  0.22880  1.0000 -0.5302764945
C   C41       1.0  0.95790  0.38550  0.95080  1.0000 0.6502637989
C   C42       1.0  0.04210  0.88550  0.54920  1.0000 0.6502637989
C   C43       1.0  0.04210  0.61450  0.04920  1.0000 0.6502637989
C   C44       1.0  0.95790  0.11450  0.45080  1.0000 0.6502637989
C   C45       1.0  0.60610  0.34870  0.91180  1.0000 0.6646286077
C   C46       1.0  0.39390  0.84870  0.58820  1.0000 0.6646286077
C   C47       1.0  0.39390  0.65130  0.08820  1.0000 0.6646286077
C   C48       1.0  0.60610  0.15130  0.41180  1.0000 0.6646286077
C   C49       1.0  0.52050  0.04590  0.78550  1.0000 0.474343983
C   C50       1.0  0.47950  0.54590  0.71450  1.0000 0.474343983
C   C51       1.0  0.47950  0.95410  0.21450  1.0000 0.474343983
C   C52       1.0  0.52050  0.45410  0.28550  1.0000 0.474343983
C   C53       1.0  0.51770  0.09170  0.72180  1.0000 0.4764710791
C   C54       1.0  0.48230  0.59170  0.77820  1.0000 0.4764710791
C   C55       1.0  0.48230  0.90830  0.27820  1.0000 0.4764710791
C   C56       1.0  0.51770  0.40830  0.22180  1.0000 0.4764710791
N   N1        1.0  0.03310  0.07150  0.81455  1.0000 -0.271647992
N   N2        1.0  0.96690  0.57150  0.68545  1.0000 -0.271647992
N   N3        1.0  0.96690  0.92850  0.18545  1.0000 -0.271647992
N   N4        1.0  0.03310  0.42850  0.31455  1.0000 -0.271647992
N   N5        1.0  0.18160  0.18760  0.79112  1.0000 -0.4875948489
N   N6        1.0  0.81840  0.68760  0.70888  1.0000 -0.4875948489
N   N7        1.0  0.81840  0.81240  0.20888  1.0000 -0.4875948489
N   N8        1.0  0.18160  0.31240  0.29112  1.0000 -0.4875948489
N   N9        1.0  0.87430  0.37070  0.83961  1.0000 -0.271647992
N   N10       1.0  0.12570  0.87070  0.66039  1.0000 -0.271647992
N   N11       1.0  0.12570  0.62930  0.16039  1.0000 -0.271647992
N   N12       1.0  0.87430  0.12930  0.33961  1.0000 -0.271647992
N   N13       1.0  0.65010  0.34040  0.81349  1.0000 -0.4875948489
N   N14       1.0  0.34990  0.84040  0.68651  1.0000 -0.4875948489
N   N15       1.0  0.34990  0.65960  0.18651  1.0000 -0.4875948489
N   N16       1.0  0.65010  0.15960  0.31349  1.0000 -0.4875948489
O   O1        1.0  0.81970  0.94070  0.74936  1.0000 -0.625495451
O   O2        1.0  0.18030  0.44070  0.75064  1.0000 -0.625495451
O   O3        1.0  0.18030  0.05930  0.25064  1.0000 -0.625495451
O   O4        1.0  0.81970  0.55930  0.24936  1.0000 -0.625495451
O   O5        1.0  0.84520  0.98880  0.66061  1.0000 -0.6843242221
O   O6        1.0  0.15480  0.48880  0.83939  1.0000 -0.6843242221
O   O7        1.0  0.15480  0.01120  0.33939  1.0000 -0.6843242221
O   O8        1.0  0.84520  0.51120  0.16061  1.0000 -0.6843242221
O   O9        1.0  0.00560  0.16710  0.63107  1.0000 -0.6900460594
O   O10       1.0  0.99440  0.66710  0.86893  1.0000 -0.6900460594
O   O11       1.0  0.99440  0.83290  0.36893  1.0000 -0.6900460594
O   O12       1.0  0.00560  0.33290  0.13107  1.0000 -0.6900460594
O   O13       1.0  0.20540  0.24390  0.68194  1.0000 -0.5610449784
O   O14       1.0  0.79460  0.74390  0.81806  1.0000 -0.5610449784
O   O15       1.0  0.79460  0.75610  0.31806  1.0000 -0.5610449784
O   O16       1.0  0.20540  0.25610  0.18194  1.0000 -0.5610449784
O   O17       1.0  0.07060  0.41560  0.94524  1.0000 -0.6734145456
O   O18       1.0  0.92940  0.91560  0.55476  1.0000 -0.6734145456
O   O19       1.0  0.92940  0.58440  0.05476  1.0000 -0.6734145456
O   O20       1.0  0.07060  0.08440  0.44524  1.0000 -0.6734145456
O   O21       1.0  0.94030  0.36270  0.00070  1.0000 -0.6431861095
O   O22       1.0  0.05970  0.86270  0.49930  1.0000 -0.6431861095
O   O23       1.0  0.05970  0.63730  0.99930  1.0000 -0.6431861095
O   O24       1.0  0.94030  0.13730  0.50070  1.0000 -0.6431861095
O   O25       1.0  0.64750  0.37320  0.96744  1.0000 -0.7305703633
O   O26       1.0  0.35250  0.87320  0.53256  1.0000 -0.7305703633
O   O27       1.0  0.35250  0.62680  0.03256  1.0000 -0.7305703633
O   O28       1.0  0.64750  0.12680  0.46744  1.0000 -0.7305703633
O   O29       1.0  0.48210  0.32340  0.88392  1.0000 -0.6060642176
O   O30       1.0  0.51790  0.82340  0.61608  1.0000 -0.6060642176
O   O31       1.0  0.51790  0.67660  0.11608  1.0000 -0.6060642176
O   O32       1.0  0.48210  0.17660  0.38392  1.0000 -0.6060642176
O   O33       1.0  0.57050  0.94480  0.80096  1.0000 -0.5610449784
O   O34       1.0  0.42950  0.44480  0.69904  1.0000 -0.5610449784
O   O35       1.0  0.42950  0.05520  0.19904  1.0000 -0.5610449784
O   O36       1.0  0.57050  0.55520  0.30096  1.0000 -0.5610449784
O   O37       1.0  0.47210  0.11340  0.81590  1.0000 -0.5706529491
O   O38       1.0  0.52790  0.61340  0.68410  1.0000 -0.5706529491
O   O39       1.0  0.52790  0.88660  0.18410  1.0000 -0.5706529491
O   O40       1.0  0.47210  0.38660  0.31590  1.0000 -0.5706529491
O   O41       1.0  0.55650  0.02140  0.68914  1.0000 -0.5610449784
O   O42       1.0  0.44350  0.52140  0.81086  1.0000 -0.5610449784
O   O43       1.0  0.44350  0.97860  0.31086  1.0000 -0.5610449784
O   O44       1.0  0.55650  0.47860  0.18914  1.0000 -0.5610449784
O   O45       1.0  0.47730  0.19620  0.70837  1.0000 -0.5610449784
O   O46       1.0  0.52270  0.69620  0.79163  1.0000 -0.5610449784
O   O47       1.0  0.52270  0.80380  0.29163  1.0000 -0.5610449784
O   O48       1.0  0.47730  0.30380  0.20837  1.0000 -0.5610449784
