# DDEC6 charges by PACMAN v1.1 (https://github.com/mtap-research/PACMAN-charge/)
data_2012[Zn][raa]3[ASR]7
_chemical_formula_sum              "Zn8 H64 C56 N48"
_cell_length_a       10.877
_cell_length_b       12.829
_cell_length_c       19.3602
_cell_angle_alpha    90
_cell_angle_beta     119.62
_cell_angle_gamma    90

_symmetry_space_group_name_H-M    "P 1"
_symmetry_Int_Tables_number       1

loop_
  _symmetry_equiv_pos_as_xyz
  'x, y, z'

loop_
  _atom_site_type_symbol
  _atom_site_label
  _atom_site_symmetry_multiplicity
  _atom_site_fract_x
  _atom_site_fract_y
  _atom_site_fract_z
  _atom_site_occupancy
  _atom_site_charge
Zn  Zn1       1.0  0.87073  0.72686  0.59466  1.0000 0.6783567462
Zn  Zn2       1.0  0.12927  0.22686  0.90534  1.0000 0.6783567462
Zn  Zn3       1.0  0.12927  0.27314  0.40534  1.0000 0.6783567462
Zn  Zn4       1.0  0.87073  0.77314  0.09466  1.0000 0.6783567462
Zn  Zn5       1.0  0.24982  0.73983  0.45509  1.0000 0.6783567462
Zn  Zn6       1.0  0.75018  0.23983  0.04491  1.0000 0.6783567462
Zn  Zn7       1.0  0.75018  0.26017  0.54491  1.0000 0.6783567462
Zn  Zn8       1.0  0.24982  0.76017  0.95509  1.0000 0.6783567462
H   H1        1.0  0.14010  0.64840  0.20670  1.0000 0.1614554547
H   H2        1.0  0.85990  0.14840  0.29330  1.0000 0.1614554547
H   H3        1.0  0.85990  0.35160  0.79330  1.0000 0.1614554547
H   H4        1.0  0.14010  0.85160  0.70670  1.0000 0.1614554547
H   H5        1.0  0.27640  0.69390  0.28320  1.0000 0.1614554547
H   H6        1.0  0.72360  0.19390  0.21680  1.0000 0.1614554547
H   H7        1.0  0.72360  0.30610  0.71680  1.0000 0.1614554547
H   H8        1.0  0.27640  0.80610  0.78320  1.0000 0.1614554547
H   H9        1.0  0.18460  0.60370  0.29310  1.0000 0.1614554547
H   H10       1.0  0.81540  0.10370  0.20690  1.0000 0.1614554547
H   H11       1.0  0.81540  0.39630  0.70690  1.0000 0.1614554547
H   H12       1.0  0.18460  0.89630  0.79310  1.0000 0.1614554547
H   H13       1.0  0.88010  0.93640  0.35440  1.0000 0.1614554547
H   H14       1.0  0.11990  0.43640  0.14560  1.0000 0.1614554547
H   H15       1.0  0.11990  0.06360  0.64560  1.0000 0.1614554547
H   H16       1.0  0.88010  0.56360  0.85440  1.0000 0.1614554547
H   H17       1.0  0.04240  0.97140  0.39880  1.0000 0.1518576812
H   H18       1.0  0.95760  0.47140  0.10120  1.0000 0.1614554547
H   H19       1.0  0.95760  0.02860  0.60120  1.0000 0.1518576812
H   H20       1.0  0.04240  0.52860  0.89880  1.0000 0.1518576812
H   H21       1.0  0.17840  0.66520  0.65610  1.0000 0.1614554547
H   H22       1.0  0.82160  0.16520  0.84390  1.0000 0.1518576812
H   H23       1.0  0.82160  0.33480  0.34390  1.0000 0.1614554547
H   H24       1.0  0.17840  0.83480  0.15610  1.0000 0.1614554547
H   H25       1.0  0.22310  0.61830  0.59510  1.0000 0.1614554547
H   H26       1.0  0.77690  0.11830  0.90490  1.0000 0.1614554547
H   H27       1.0  0.77690  0.38170  0.40490  1.0000 0.1614554547
H   H28       1.0  0.22310  0.88170  0.09510  1.0000 0.1614554547
H   H29       1.0  0.30240  0.71890  0.64690  1.0000 0.1679249425
H   H30       1.0  0.69760  0.21890  0.85310  1.0000 0.1679249425
H   H31       1.0  0.69760  0.28110  0.35310  1.0000 0.1679249425
H   H32       1.0  0.30240  0.78110  0.14690  1.0000 0.1679249425
H   H33       1.0  0.67260  0.99460  0.65620  1.0000 0.1679249425
H   H34       1.0  0.32740  0.49460  0.84380  1.0000 0.1679249425
H   H35       1.0  0.32740  0.00540  0.34380  1.0000 0.1679249425
H   H36       1.0  0.67260  0.50540  0.15620  1.0000 0.1679249425
H   H37       1.0  0.80010  0.91260  0.68950  1.0000 0.1518576812
H   H38       1.0  0.19990  0.41260  0.81050  1.0000 0.1518576812
H   H39       1.0  0.19990  0.08740  0.31050  1.0000 0.1518576812
H   H40       1.0  0.80010  0.58740  0.18950  1.0000 0.1518576812
H   H41       1.0  0.77440  0.98950  0.61850  1.0000 0.1518576812
H   H42       1.0  0.22560  0.48950  0.88150  1.0000 0.1518576812
H   H43       1.0  0.22560  0.01050  0.38150  1.0000 0.1518576812
H   H44       1.0  0.77440  0.51050  0.11850  1.0000 0.1518576812
H   H45       1.0  0.45920  0.62280  0.42560  1.0000 0.1518576812
H   H46       1.0  0.54080  0.12280  0.07440  1.0000 0.1518576812
H   H47       1.0  0.54080  0.37720  0.57440  1.0000 0.1518576812
H   H48       1.0  0.45920  0.87720  0.92560  1.0000 0.1518576812
H   H49       1.0  0.57470  0.67990  0.41080  1.0000 0.1614554547
H   H50       1.0  0.42530  0.17990  0.08920  1.0000 0.1614554547
H   H51       1.0  0.42530  0.32010  0.58920  1.0000 0.1614554547
H   H52       1.0  0.57470  0.82010  0.91080  1.0000 0.1614554547
H   H53       1.0  0.01080  0.38710  0.64090  1.0000 0.1518576812
H   H54       1.0  0.98920  0.88710  0.85910  1.0000 0.1518576812
H   H55       1.0  0.98920  0.61290  0.35910  1.0000 0.1518576812
H   H56       1.0  0.01080  0.11290  0.14090  1.0000 0.1518576812
H   H57       1.0  0.06130  0.48690  0.61200  1.0000 0.1614554547
H   H58       1.0  0.93870  0.98690  0.88800  1.0000 0.1614554547
H   H59       1.0  0.93870  0.51310  0.38800  1.0000 0.1614554547
H   H60       1.0  0.06130  0.01310  0.11200  1.0000 0.1614554547
H   H61       1.0  0.02600  0.49760  0.68270  1.0000 0.1614554547
H   H62       1.0  0.97400  0.99760  0.81730  1.0000 0.1614554547
H   H63       1.0  0.97400  0.50240  0.31730  1.0000 0.1614554547
H   H64       1.0  0.02600  0.00240  0.18270  1.0000 0.1614554547
C   C1        1.0  0.18060  0.66630  0.26300  1.0000 -0.5378202777
C   C2        1.0  0.81940  0.16630  0.23700  1.0000 -0.5378202777
C   C3        1.0  0.81940  0.33370  0.73700  1.0000 -0.5378202777
C   C4        1.0  0.18060  0.83370  0.76300  1.0000 -0.5378202777
C   C5        1.0  0.09070  0.74660  0.27230  1.0000 0.3930760715
C   C6        1.0  0.90930  0.24660  0.22770  1.0000 0.3930760715
C   C7        1.0  0.90930  0.25340  0.72770  1.0000 0.3930760715
C   C8        1.0  0.09070  0.75340  0.77230  1.0000 0.3930760715
C   C9        1.0  0.00190  0.84900  0.32200  1.0000 0.3534244094
C   C10       1.0  0.99810  0.34900  0.17800  1.0000 0.3534244094
C   C11       1.0  0.99810  0.15100  0.67800  1.0000 0.3534244094
C   C12       1.0  0.00190  0.65100  0.82200  1.0000 0.3534244094
C   C13       1.0  0.97870  0.91020  0.38120  1.0000 -0.3770377841
C   C14       1.0  0.02130  0.41020  0.11880  1.0000 -0.3770377841
C   C15       1.0  0.02130  0.08980  0.61880  1.0000 -0.3770377841
C   C16       1.0  0.97870  0.58980  0.88120  1.0000 -0.3770377841
C   C17       1.0  0.00420  0.84850  0.45240  1.0000 0.3612866532
C   C18       1.0  0.99580  0.34850  0.04760  1.0000 0.3612866532
C   C19       1.0  0.99580  0.15150  0.54760  1.0000 0.3612866532
C   C20       1.0  0.00420  0.65150  0.95240  1.0000 0.3612866532
C   C21       1.0  0.10580  0.75120  0.55480  1.0000 0.4084715936
C   C22       1.0  0.89420  0.25120  0.94520  1.0000 0.4084715936
C   C23       1.0  0.89420  0.24880  0.44520  1.0000 0.4084715936
C   C24       1.0  0.10580  0.74880  0.05480  1.0000 0.4084715936
C   C25       1.0  0.21150  0.68250  0.61870  1.0000 -0.5378202777
C   C26       1.0  0.78850  0.18250  0.88130  1.0000 -0.5347634759
C   C27       1.0  0.78850  0.31750  0.38130  1.0000 -0.5347634759
C   C28       1.0  0.21150  0.81750  0.11870  1.0000 -0.5378202777
C   C29       1.0  0.72810  0.94840  0.64180  1.0000 -0.5210672822
C   C30       1.0  0.27190  0.44840  0.85820  1.0000 -0.5210672822
C   C31       1.0  0.27190  0.05160  0.35820  1.0000 -0.5210672822
C   C32       1.0  0.72810  0.55160  0.14180  1.0000 -0.5210672822
C   C33       1.0  0.63340  0.87010  0.58320  1.0000 0.4004553389
C   C34       1.0  0.36660  0.37010  0.91680  1.0000 0.4004553389
C   C35       1.0  0.36660  0.12990  0.41680  1.0000 0.4004553389
C   C36       1.0  0.63340  0.62990  0.08320  1.0000 0.4004553389
C   C37       1.0  0.56060  0.74120  0.50400  1.0000 0.367169315
C   C38       1.0  0.43940  0.24120  0.99600  1.0000 0.367169315
C   C39       1.0  0.43940  0.25880  0.49600  1.0000 0.367169315
C   C40       1.0  0.56060  0.75880  0.00400  1.0000 0.367169315
C   C41       1.0  0.55600  0.65240  0.45250  1.0000 -0.3850373235
C   C42       1.0  0.44400  0.15240  0.04750  1.0000 -0.3850373235
C   C43       1.0  0.44400  0.34760  0.54750  1.0000 -0.3770377841
C   C44       1.0  0.55600  0.84760  0.95250  1.0000 -0.3850373235
C   C45       1.0  0.65930  0.56620  0.49580  1.0000 0.3612866532
C   C46       1.0  0.34070  0.06620  0.00420  1.0000 0.3612866532
C   C47       1.0  0.34070  0.43380  0.50420  1.0000 0.3612866532
C   C48       1.0  0.65930  0.93380  0.99580  1.0000 0.3612866532
C   C49       1.0  0.84900  0.48710  0.57320  1.0000 0.4004553389
C   C50       1.0  0.15100  0.98710  0.92680  1.0000 0.4004553389
C   C51       1.0  0.15100  0.51290  0.42680  1.0000 0.4004553389
C   C52       1.0  0.84900  0.01290  0.07320  1.0000 0.4004553389
C   C53       1.0  0.99980  0.46260  0.63230  1.0000 -0.5458767917
C   C54       1.0  0.00020  0.96260  0.86770  1.0000 -0.5378202777
C   C55       1.0  0.00020  0.53740  0.36770  1.0000 -0.5378202777
C   C56       1.0  0.99980  0.03740  0.13230  1.0000 -0.5458767917
N   N1        1.0  0.67960  0.79090  0.55540  1.0000 -0.4331125226
N   N2        1.0  0.32040  0.29090  0.94460  1.0000 -0.4331125226
N   N3        1.0  0.32040  0.20910  0.44460  1.0000 -0.4331125226
N   N4        1.0  0.67960  0.70910  0.05540  1.0000 -0.4331125226
N   N5        1.0  0.49370  0.86960  0.55250  1.0000 -0.289966844
N   N6        1.0  0.50630  0.36960  0.94750  1.0000 -0.289966844
N   N7        1.0  0.50630  0.13040  0.44750  1.0000 -0.289966844
N   N8        1.0  0.49370  0.63040  0.05250  1.0000 -0.289966844
N   N9        1.0  0.44850  0.78520  0.50130  1.0000 -0.2777377473
N   N10       1.0  0.55150  0.28520  0.99870  1.0000 -0.2777377473
N   N11       1.0  0.55150  0.21480  0.49870  1.0000 -0.2777377473
N   N12       1.0  0.44850  0.71480  0.00130  1.0000 -0.2777377473
N   N13       1.0  0.79744  0.58390  0.55044  1.0000 -0.439169826
N   N14       1.0  0.20256  0.08390  0.94956  1.0000 -0.439169826
N   N15       1.0  0.20256  0.41610  0.44956  1.0000 -0.439169826
N   N16       1.0  0.79744  0.91610  0.05044  1.0000 -0.439169826
N   N17       1.0  0.62606  0.46740  0.48426  1.0000 -0.289966844
N   N18       1.0  0.37394  0.96740  0.01574  1.0000 -0.289966844
N   N19       1.0  0.37394  0.53260  0.51574  1.0000 -0.289966844
N   N20       1.0  0.62606  0.03260  0.98426  1.0000 -0.289966844
N   N21       1.0  0.75040  0.41550  0.53550  1.0000 -0.2777377473
N   N22       1.0  0.24960  0.91550  0.96450  1.0000 -0.2777377473
N   N23       1.0  0.24960  0.58450  0.46450  1.0000 -0.2777377473
N   N24       1.0  0.75040  0.08450  0.03550  1.0000 -0.2777377473
N   N25       1.0  0.98390  0.78220  0.54800  1.0000 -0.289966844
N   N26       1.0  0.01610  0.28220  0.95200  1.0000 -0.289966844
N   N27       1.0  0.01610  0.21780  0.45200  1.0000 -0.289966844
N   N28       1.0  0.98390  0.71780  0.04800  1.0000 -0.289966844
N   N29       1.0  0.91650  0.84570  0.48100  1.0000 -0.2966725957
N   N30       1.0  0.08350  0.34570  0.01900  1.0000 -0.2966725957
N   N31       1.0  0.08350  0.15430  0.51900  1.0000 -0.2966725957
N   N32       1.0  0.91650  0.65430  0.98100  1.0000 -0.2966725957
N   N33       1.0  0.12335  0.79070  0.49575  1.0000 -0.439169826
N   N34       1.0  0.87665  0.29070  0.00425  1.0000 -0.439169826
N   N35       1.0  0.87665  0.20930  0.50425  1.0000 -0.439169826
N   N36       1.0  0.12335  0.70930  0.99575  1.0000 -0.439169826
N   N37       1.0  0.11338  0.78350  0.34258  1.0000 -0.4522676673
N   N38       1.0  0.88662  0.28350  0.15742  1.0000 -0.4522676673
N   N39       1.0  0.88662  0.21650  0.65742  1.0000 -0.4522676673
N   N40       1.0  0.11338  0.71650  0.84258  1.0000 -0.4522676673
N   N41       1.0  0.91640  0.85520  0.24500  1.0000 -0.289966844
N   N42       1.0  0.08360  0.35520  0.25500  1.0000 -0.289966844
N   N43       1.0  0.08360  0.14480  0.75500  1.0000 -0.289966844
N   N44       1.0  0.91640  0.64480  0.74500  1.0000 -0.289966844
N   N45       1.0  0.97450  0.78720  0.21280  1.0000 -0.2777377473
N   N46       1.0  0.02550  0.28720  0.28720  1.0000 -0.2777377473
N   N47       1.0  0.02550  0.21280  0.78720  1.0000 -0.2777377473
N   N48       1.0  0.97450  0.71280  0.71280  1.0000 -0.2777377473
