# DDEC6 charges by PACMAN v1.1 (https://github.com/mtap-research/PACMAN-charge/)
data_2012[Cd][nan]3[ASR]8
_chemical_formula_sum              "Cd6 H96 C112 N20 O28"
_cell_length_a       16.322
_cell_length_b       16.322
_cell_length_c       19.6123
_cell_angle_alpha    64.8706
_cell_angle_beta     115.129
_cell_angle_gamma    140.39

_symmetry_space_group_name_H-M    "P 1"
_symmetry_Int_Tables_number       1

loop_
  _symmetry_equiv_pos_as_xyz
  'x, y, z'

loop_
  _atom_site_type_symbol
  _atom_site_label
  _atom_site_symmetry_multiplicity
  _atom_site_fract_x
  _atom_site_fract_y
  _atom_site_fract_z
  _atom_site_occupancy
  _atom_site_charge
Cd  Cd1       1.0  0.99840  0.11538  0.47476  1.0000 0.8961340675
Cd  Cd2       1.0  0.11538  0.99840  0.02524  1.0000 0.8961340675
Cd  Cd3       1.0  0.00160  0.88462  0.52524  1.0000 0.8961340675
Cd  Cd4       1.0  0.88462  0.00160  0.97476  1.0000 0.8961340675
Cd  Cd5       1.0  0.18154  0.18154  0.75000  1.0000 0.9792414794
Cd  Cd6       1.0  0.81846  0.81846  0.25000  1.0000 0.9792414794
H   H1        1.0  0.24960  0.82320  0.69030  1.0000 0.099692371
H   H2        1.0  0.82320  0.24960  0.80970  1.0000 0.099692371
H   H3        1.0  0.75040  0.17680  0.30970  1.0000 0.099692371
H   H4        1.0  0.17680  0.75040  0.19030  1.0000 0.099692371
H   H5        1.0  0.43070  0.28270  0.69610  1.0000 0.1280218719
H   H6        1.0  0.28270  0.43070  0.80390  1.0000 0.1280218719
H   H7        1.0  0.56930  0.71730  0.30390  1.0000 0.1280218719
H   H8        1.0  0.71730  0.56930  0.19610  1.0000 0.1280218719
H   H9        1.0  0.68180  0.31560  0.79250  1.0000 0.1120358178
H   H10       1.0  0.31560  0.68180  0.70750  1.0000 0.1120358178
H   H11       1.0  0.31820  0.68440  0.20750  1.0000 0.1120358178
H   H12       1.0  0.68440  0.31820  0.29250  1.0000 0.1120358178
H   H13       1.0  0.64150  0.38850  0.75970  1.0000 0.1120358178
H   H14       1.0  0.38850  0.64150  0.74030  1.0000 0.1120358178
H   H15       1.0  0.35850  0.61150  0.24030  1.0000 0.1120358178
H   H16       1.0  0.61150  0.35850  0.25970  1.0000 0.1120358178
H   H17       1.0  0.68220  0.35720  0.89220  1.0000 0.138340492
H   H18       1.0  0.35720  0.68220  0.60780  1.0000 0.138340492
H   H19       1.0  0.31780  0.64280  0.10780  1.0000 0.138340492
H   H20       1.0  0.64280  0.31780  0.39220  1.0000 0.138340492
H   H21       1.0  0.53490  0.27850  0.86310  1.0000 0.145502154
H   H22       1.0  0.27850  0.53490  0.63690  1.0000 0.145502154
H   H23       1.0  0.46510  0.72150  0.13690  1.0000 0.145502154
H   H24       1.0  0.72150  0.46510  0.36310  1.0000 0.145502154
H   H25       1.0  0.57570  0.20610  0.89580  1.0000 0.1280218719
H   H26       1.0  0.20610  0.57570  0.60420  1.0000 0.1280218719
H   H27       1.0  0.42430  0.79390  0.10420  1.0000 0.1280218719
H   H28       1.0  0.79390  0.42430  0.39580  1.0000 0.1280218719
H   H29       1.0  0.48450  0.79090  0.83730  1.0000 0.1120358178
H   H30       1.0  0.79090  0.48450  0.66270  1.0000 0.1120358178
H   H31       1.0  0.51550  0.20910  0.16270  1.0000 0.1120358178
H   H32       1.0  0.20910  0.51550  0.33730  1.0000 0.1120358178
H   H33       1.0  0.63710  0.90350  0.84690  1.0000 0.1202113845
H   H34       1.0  0.90350  0.63710  0.65310  1.0000 0.1202113845
H   H35       1.0  0.36290  0.09650  0.15310  1.0000 0.1202113845
H   H36       1.0  0.09650  0.36290  0.34690  1.0000 0.1202113845
H   H37       1.0  0.57940  0.73220  0.94560  1.0000 0.1280218719
H   H38       1.0  0.73220  0.57940  0.55440  1.0000 0.1280218719
H   H39       1.0  0.42060  0.26780  0.05440  1.0000 0.1280218719
H   H40       1.0  0.26780  0.42060  0.44560  1.0000 0.1280218719
H   H41       1.0  0.49340  0.72640  0.96840  1.0000 0.1120358178
H   H42       1.0  0.72640  0.49340  0.53160  1.0000 0.1120358178
H   H43       1.0  0.50660  0.27360  0.03160  1.0000 0.1120358178
H   H44       1.0  0.27360  0.50660  0.46840  1.0000 0.1120358178
H   H45       1.0  0.59440  0.89920  0.02420  1.0000 0.1120358178
H   H46       1.0  0.89920  0.59440  0.47580  1.0000 0.1120358178
H   H47       1.0  0.40560  0.10080  0.97580  1.0000 0.1120358178
H   H48       1.0  0.10080  0.40560  0.52420  1.0000 0.1120358178
H   H49       1.0  0.74690  0.01710  0.03970  1.0000 0.1202113845
H   H50       1.0  0.01710  0.74690  0.46030  1.0000 0.1202113845
H   H51       1.0  0.25310  0.98290  0.96030  1.0000 0.1202113845
H   H52       1.0  0.98290  0.25310  0.53970  1.0000 0.1202113845
H   H53       1.0  0.75140  0.09660  0.91040  1.0000 0.1120358178
H   H54       1.0  0.09660  0.75140  0.58960  1.0000 0.1120358178
H   H55       1.0  0.24860  0.90340  0.08960  1.0000 0.1120358178
H   H56       1.0  0.90340  0.24860  0.41040  1.0000 0.1120358178
H   H57       1.0  0.65310  0.07610  0.93130  1.0000 0.1202113845
H   H58       1.0  0.07610  0.65310  0.56870  1.0000 0.1202113845
H   H59       1.0  0.34690  0.92390  0.06870  1.0000 0.1202113845
H   H60       1.0  0.92390  0.34690  0.43130  1.0000 0.1202113845
H   H61       1.0  0.41500  0.92500  0.55740  1.0000 0.1120358178
H   H62       1.0  0.92500  0.41500  0.94260  1.0000 0.1120358178
H   H63       1.0  0.58500  0.07500  0.44260  1.0000 0.1120358178
H   H64       1.0  0.07500  0.58500  0.05740  1.0000 0.1120358178
H   H65       1.0  0.25820  0.92280  0.49330  1.0000 0.1120358178
H   H66       1.0  0.92280  0.25820  0.00670  1.0000 0.1120358178
H   H67       1.0  0.74180  0.07720  0.50670  1.0000 0.1120358178
H   H68       1.0  0.07720  0.74180  0.99330  1.0000 0.1120358178
H   H69       1.0  0.50530  0.28250  0.53260  1.0000 0.1120358178
H   H70       1.0  0.28250  0.50530  0.96740  1.0000 0.1120358178
H   H71       1.0  0.49470  0.71750  0.46740  1.0000 0.1120358178
H   H72       1.0  0.71750  0.49470  0.03260  1.0000 0.1120358178
H   H73       1.0  0.66090  0.28310  0.59920  1.0000 0.1120358178
H   H74       1.0  0.28310  0.66090  0.90080  1.0000 0.1120358178
H   H75       1.0  0.33910  0.71690  0.40080  1.0000 0.1120358178
H   H76       1.0  0.71690  0.33910  0.09920  1.0000 0.1120358178
H   H77       1.0  0.55270  0.92690  0.67360  1.0000 0.1120358178
H   H78       1.0  0.92690  0.55270  0.82640  1.0000 0.1120358178
H   H79       1.0  0.44730  0.07310  0.32640  1.0000 0.1120358178
H   H80       1.0  0.07310  0.44730  0.17360  1.0000 0.1120358178
H   H81       1.0  0.71570  0.93630  0.72250  1.0000 0.1280218719
H   H82       1.0  0.93630  0.71570  0.77750  1.0000 0.1280218719
H   H83       1.0  0.28430  0.06370  0.27750  1.0000 0.1280218719
H   H84       1.0  0.06370  0.28430  0.22250  1.0000 0.1280218719
H   H85       1.0  0.97120  0.31280  0.62480  1.0000 0.1120358178
H   H86       1.0  0.31280  0.97120  0.87520  1.0000 0.1120358178
H   H87       1.0  0.02880  0.68720  0.37520  1.0000 0.1120358178
H   H88       1.0  0.68720  0.02880  0.12480  1.0000 0.1120358178
H   H89       1.0  0.80800  0.30320  0.57590  1.0000 0.1120358178
H   H90       1.0  0.30320  0.80800  0.92410  1.0000 0.1120358178
H   H91       1.0  0.19200  0.69680  0.42410  1.0000 0.1120358178
H   H92       1.0  0.69680  0.19200  0.07590  1.0000 0.1120358178
H   H93       1.0  0.74990  0.88830  0.02260  1.0000 0.1668775866
H   H94       1.0  0.88830  0.74990  0.47740  1.0000 0.1668775866
H   H95       1.0  0.25010  0.11170  0.97740  1.0000 0.1668775866
H   H96       1.0  0.11170  0.25010  0.52260  1.0000 0.1668775866
C   C1        1.0  0.21044  0.14196  0.61189  1.0000 0.6149021278
C   C2        1.0  0.14196  0.21044  0.88811  1.0000 0.6149021278
C   C3        1.0  0.78956  0.85804  0.38811  1.0000 0.6149021278
C   C4        1.0  0.85804  0.78956  0.11189  1.0000 0.6149021278
C   C5        1.0  0.29101  0.11561  0.65673  1.0000 -0.2271095326
C   C6        1.0  0.11561  0.29101  0.84327  1.0000 -0.2271095326
C   C7        1.0  0.70899  0.88439  0.34327  1.0000 -0.2271095326
C   C8        1.0  0.88439  0.70899  0.15673  1.0000 -0.2271095326
C   C9        1.0  0.25242  0.99982  0.66097  1.0000 0.3315654809
C   C10       1.0  0.99982  0.25242  0.83903  1.0000 0.3315654809
C   C11       1.0  0.74758  0.00018  0.33903  1.0000 0.3315654809
C   C12       1.0  0.00018  0.74758  0.16097  1.0000 0.3315654809
C   C13       1.0  0.34283  0.99227  0.71084  1.0000 -0.1770460417
C   C14       1.0  0.99227  0.34283  0.78916  1.0000 -0.1770460417
C   C15       1.0  0.65717  0.00773  0.28916  1.0000 -0.1770460417
C   C16       1.0  0.00773  0.65717  0.21084  1.0000 -0.1770460417
C   C17       1.0  0.32176  0.88722  0.72042  1.0000 0.1202113845
C   C18       1.0  0.88722  0.32176  0.77958  1.0000 0.1202113845
C   C19       1.0  0.67824  0.11278  0.27958  1.0000 0.1202113845
C   C20       1.0  0.11278  0.67824  0.22042  1.0000 0.1202113845
C   C21       1.0  0.49878  0.96722  0.81411  1.0000 0.4241078386
C   C22       1.0  0.96722  0.49878  0.68589  1.0000 0.4241078386
C   C23       1.0  0.50122  0.03278  0.18589  1.0000 0.4241078386
C   C24       1.0  0.03278  0.50122  0.31411  1.0000 0.4241078386
C   C25       1.0  0.45762  0.08864  0.75511  1.0000 0.3105554322
C   C26       1.0  0.08864  0.45762  0.74489  1.0000 0.3105554322
C   C27       1.0  0.54238  0.91136  0.24489  1.0000 0.3105554322
C   C28       1.0  0.91136  0.54238  0.25511  1.0000 0.3105554322
C   C29       1.0  0.40740  0.20834  0.69933  1.0000 0.0177614216
C   C30       1.0  0.20834  0.40740  0.80067  1.0000 0.0177614216
C   C31       1.0  0.59260  0.79166  0.30067  1.0000 0.0177614216
C   C32       1.0  0.79166  0.59260  0.19933  1.0000 0.0177614216
C   C33       1.0  0.61429  0.30735  0.78825  1.0000 -0.0435352016
C   C34       1.0  0.30735  0.61429  0.71175  1.0000 -0.0435352016
C   C35       1.0  0.38571  0.69265  0.21175  1.0000 -0.0435352016
C   C36       1.0  0.69265  0.38571  0.28825  1.0000 -0.0435352016
C   C37       1.0  0.60051  0.28529  0.86694  1.0000 -0.3853222391
C   C38       1.0  0.28529  0.60051  0.63306  1.0000 -0.3853222391
C   C39       1.0  0.39949  0.71471  0.13306  1.0000 -0.3853222391
C   C40       1.0  0.71471  0.39949  0.36694  1.0000 -0.3853222391
C   C41       1.0  0.56377  0.85443  0.86941  1.0000 -0.1225795036
C   C42       1.0  0.85443  0.56377  0.63059  1.0000 -0.1225795036
C   C43       1.0  0.43623  0.14557  0.13059  1.0000 -0.1225795036
C   C44       1.0  0.14557  0.43623  0.36941  1.0000 -0.1225795036
C   C45       1.0  0.57213  0.78445  0.94832  1.0000 -0.0813760941
C   C46       1.0  0.78445  0.57213  0.55168  1.0000 -0.0813760941
C   C47       1.0  0.42787  0.21555  0.05168  1.0000 -0.0813760941
C   C48       1.0  0.21555  0.42787  0.44832  1.0000 -0.0813760941
C   C49       1.0  0.67326  0.95674  0.00445  1.0000 -0.0813760941
C   C50       1.0  0.95674  0.67326  0.49555  1.0000 -0.0813760941
C   C51       1.0  0.32674  0.04326  0.99555  1.0000 -0.0813760941
C   C52       1.0  0.04326  0.32674  0.50445  1.0000 -0.0813760941
C   C53       1.0  0.66838  0.03146  0.92744  1.0000 -0.1225795036
C   C54       1.0  0.03146  0.66838  0.57256  1.0000 -0.1259692868
C   C55       1.0  0.33162  0.96854  0.07256  1.0000 -0.1259692868
C   C56       1.0  0.96854  0.33162  0.42744  1.0000 -0.1225795036
C   C57       1.0  0.43377  0.99735  0.55202  1.0000 -0.1493980423
C   C58       1.0  0.99735  0.43377  0.94798  1.0000 -0.1493980423
C   C59       1.0  0.56623  0.00265  0.44798  1.0000 -0.1493980423
C   C60       1.0  0.00265  0.56623  0.05202  1.0000 -0.1493980423
C   C61       1.0  0.33992  0.99626  0.51362  1.0000 -0.0978305598
C   C62       1.0  0.99626  0.33992  0.98638  1.0000 -0.0978305598
C   C63       1.0  0.66008  0.00374  0.48638  1.0000 -0.0978305598
C   C64       1.0  0.00374  0.66008  0.01362  1.0000 -0.0978305598
C   C65       1.0  0.36521  0.10253  0.50485  1.0000 -0.0178056055
C   C66       1.0  0.10253  0.36521  0.99515  1.0000 -0.0178056055
C   C67       1.0  0.63479  0.89747  0.49515  1.0000 -0.0178056055
C   C68       1.0  0.89747  0.63479  0.00485  1.0000 -0.0178056055
C   C69       1.0  0.48703  0.21057  0.53735  1.0000 -0.1126145234
C   C70       1.0  0.21057  0.48703  0.96265  1.0000 -0.1126145234
C   C71       1.0  0.51297  0.78943  0.46265  1.0000 -0.1126145234
C   C72       1.0  0.78943  0.51297  0.03735  1.0000 -0.1126145234
C   C73       1.0  0.58079  0.21141  0.57663  1.0000 -0.1571605166
C   C74       1.0  0.21141  0.58079  0.92337  1.0000 -0.1571605166
C   C75       1.0  0.41921  0.78859  0.42337  1.0000 -0.1571605166
C   C76       1.0  0.78859  0.41921  0.07663  1.0000 -0.1571605166
C   C77       1.0  0.55750  0.10740  0.58296  1.0000 0.0668525139
C   C78       1.0  0.10740  0.55750  0.91704  1.0000 0.0668525139
C   C79       1.0  0.44250  0.89260  0.41704  1.0000 0.0668525139
C   C80       1.0  0.89260  0.44250  0.08296  1.0000 0.0668525139
C   C81       1.0  0.66213  0.11295  0.61889  1.0000 0.0668525139
C   C82       1.0  0.11295  0.66213  0.88111  1.0000 0.0668525139
C   C83       1.0  0.33787  0.88705  0.38111  1.0000 0.0668525139
C   C84       1.0  0.88705  0.33787  0.11889  1.0000 0.0668525139
C   C85       1.0  0.63656  0.00444  0.66338  1.0000 -0.1493980423
C   C86       1.0  0.00444  0.63656  0.83662  1.0000 -0.1493980423
C   C87       1.0  0.36344  0.99556  0.33662  1.0000 -0.1493980423
C   C88       1.0  0.99556  0.36344  0.16338  1.0000 -0.1493980423
C   C89       1.0  0.73421  0.00979  0.69294  1.0000 -0.0928728094
C   C90       1.0  0.00979  0.73421  0.80706  1.0000 -0.0928728094
C   C91       1.0  0.26579  0.99021  0.30706  1.0000 -0.0928728094
C   C92       1.0  0.99021  0.26579  0.19294  1.0000 -0.0928728094
C   C93       1.0  0.86078  0.12630  0.67803  1.0000 -0.0065918418
C   C94       1.0  0.12630  0.86078  0.82197  1.0000 -0.0065918418
C   C95       1.0  0.13922  0.87370  0.32197  1.0000 -0.0065918418
C   C96       1.0  0.87370  0.13922  0.17803  1.0000 -0.0065918418
C   C97       1.0  0.88699  0.23497  0.63447  1.0000 -0.1225795036
C   C98       1.0  0.23497  0.88699  0.86553  1.0000 -0.1225795036
C   C99       1.0  0.11301  0.76503  0.36553  1.0000 -0.1225795036
C   C100      1.0  0.76503  0.11301  0.13447  1.0000 -0.1225795036
C   C101      1.0  0.78903  0.22929  0.60499  1.0000 -0.1493980423
C   C102      1.0  0.22929  0.78903  0.89501  1.0000 -0.1493980423
C   C103      1.0  0.21097  0.77071  0.39501  1.0000 -0.1493980423
C   C104      1.0  0.77071  0.21097  0.10499  1.0000 -0.1493980423
C   C105      1.0  0.26457  0.10343  0.46092  1.0000 0.5552379975
C   C106      1.0  0.10343  0.26457  0.03908  1.0000 0.5552379975
C   C107      1.0  0.73543  0.89657  0.53908  1.0000 0.5552379975
C   C108      1.0  0.89657  0.73543  0.96092  1.0000 0.5552379975
C   C109      1.0  0.96780  0.13380  0.70950  1.0000 0.5372838268
C   C110      1.0  0.13380  0.96780  0.79050  1.0000 0.5372838268
C   C111      1.0  0.03220  0.86620  0.29050  1.0000 0.5372838268
C   C112      1.0  0.86620  0.03220  0.20950  1.0000 0.5372838268
N   N1        1.0  0.68579  0.87921  0.99926  1.0000 -0.2916084936
N   N2        1.0  0.87921  0.68579  0.50074  1.0000 -0.2916084936
N   N3        1.0  0.31421  0.12079  0.00074  1.0000 -0.2916084936
N   N4        1.0  0.12079  0.31421  0.49926  1.0000 -0.2916084936
N   N5        1.0  0.56430  0.94328  0.87179  1.0000 -0.0813760941
N   N6        1.0  0.94328  0.56430  0.62821  1.0000 -0.0813760941
N   N7        1.0  0.43570  0.05672  0.12821  1.0000 -0.0813760941
N   N8        1.0  0.05672  0.43570  0.37179  1.0000 -0.0813760941
N   N9        1.0  0.39716  0.87328  0.76905  1.0000 -0.4032738467
N   N10       1.0  0.87328  0.39716  0.73095  1.0000 -0.4032738467
N   N11       1.0  0.60284  0.12672  0.23095  1.0000 -0.4032738467
N   N12       1.0  0.12672  0.60284  0.26905  1.0000 -0.4032738467
N   N13       1.0  0.53562  0.07752  0.80646  1.0000 -0.4776207393
N   N14       1.0  0.07752  0.53562  0.69354  1.0000 -0.4776207393
N   N15       1.0  0.46438  0.92248  0.19354  1.0000 -0.4776207393
N   N16       1.0  0.92248  0.46438  0.30646  1.0000 -0.4776207393
N   N17       1.0  0.49038  0.19922  0.74562  1.0000 -0.0178056055
N   N18       1.0  0.19922  0.49038  0.75438  1.0000 -0.0178056055
N   N19       1.0  0.50962  0.80078  0.25438  1.0000 -0.0178056055
N   N20       1.0  0.80078  0.50962  0.24562  1.0000 -0.0178056055
O   O1        1.0  0.23189  0.22245  0.63020  1.0000 -0.5677624753
O   O2        1.0  0.22245  0.23189  0.86980  1.0000 -0.5677624753
O   O3        1.0  0.76811  0.77755  0.36980  1.0000 -0.5677624753
O   O4        1.0  0.77755  0.76811  0.13020  1.0000 -0.5677624753
O   O5        1.0  0.12457  0.08297  0.55551  1.0000 -0.5411371326
O   O6        1.0  0.08297  0.12457  0.94449  1.0000 -0.5411371326
O   O7        1.0  0.87543  0.91703  0.44449  1.0000 -0.5411371326
O   O8        1.0  0.91703  0.87543  0.05551  1.0000 -0.5411371326
O   O9        1.0  0.14696  0.90432  0.62824  1.0000 -0.4776207393
O   O10       1.0  0.90432  0.14696  0.87176  1.0000 -0.4776207393
O   O11       1.0  0.85304  0.09568  0.37176  1.0000 -0.4776207393
O   O12       1.0  0.09568  0.85304  0.12824  1.0000 -0.4776207393
O   O13       1.0  0.14689  0.99437  0.45092  1.0000 -0.5677624753
O   O14       1.0  0.99437  0.14689  0.04908  1.0000 -0.5677624753
O   O15       1.0  0.85311  0.00563  0.54908  1.0000 -0.5677624753
O   O16       1.0  0.00563  0.85311  0.95092  1.0000 -0.5677624753
O   O17       1.0  0.30230  0.21038  0.43664  1.0000 -0.5411371326
O   O18       1.0  0.21038  0.30230  0.06336  1.0000 -0.5411371326
O   O19       1.0  0.69770  0.78962  0.56336  1.0000 -0.5411371326
O   O20       1.0  0.78962  0.69770  0.93664  1.0000 -0.5411371326
O   O21       1.0  0.07094  0.22952  0.68075  1.0000 -0.5534574201
O   O22       1.0  0.22952  0.07094  0.81925  1.0000 -0.5534574201
O   O23       1.0  0.92906  0.77048  0.31925  1.0000 -0.5534574201
O   O24       1.0  0.77048  0.92906  0.18075  1.0000 -0.5534574201
O   O25       1.0  0.95317  0.04851  0.76316  1.0000 -0.4918544774
O   O26       1.0  0.04851  0.95317  0.73684  1.0000 -0.4918544774
O   O27       1.0  0.04683  0.95149  0.23684  1.0000 -0.4918544774
O   O28       1.0  0.95149  0.04683  0.26316  1.0000 -0.4918544774
