# DDEC6 charges by PACMAN v1.1 (https://github.com/mtap-research/PACMAN-charge/)
data_2012[Fe][nan]3[ASR]4
_chemical_formula_sum              "Fe3 H24 C26 N24 O4"
_cell_length_a       13.6788
_cell_length_b       13.6788
_cell_length_c       12.102
_cell_angle_alpha    81.3167
_cell_angle_beta     98.6833
_cell_angle_gamma    52.0873

_symmetry_space_group_name_H-M    "P 1"
_symmetry_Int_Tables_number       1

loop_
  _symmetry_equiv_pos_as_xyz
  'x, y, z'

loop_
  _atom_site_type_symbol
  _atom_site_label
  _atom_site_symmetry_multiplicity
  _atom_site_fract_x
  _atom_site_fract_y
  _atom_site_fract_z
  _atom_site_occupancy
  _atom_site_charge
Fe  Fe1       1.0  0.00000  0.00000  0.00000  1.0000 0.2886910666
Fe  Fe2       1.0  0.10664  0.89336  0.74127  1.0000 0.2414491762
Fe  Fe3       1.0  0.89336  0.10664  0.25873  1.0000 0.2414491762
H   H1        1.0  0.52780  0.47220  0.69910  1.0000 0.118487889
H   H2        1.0  0.47220  0.52780  0.30090  1.0000 0.118487889
H   H3        1.0  0.66460  0.33540  0.44080  1.0000 0.118487889
H   H4        1.0  0.33540  0.66460  0.55920  1.0000 0.118487889
H   H5        1.0  0.32980  0.09480  0.07990  1.0000 0.113332593
H   H6        1.0  0.09480  0.32980  0.92010  1.0000 0.113332593
H   H7        1.0  0.67020  0.90520  0.92010  1.0000 0.113332593
H   H8        1.0  0.90520  0.67020  0.07990  1.0000 0.113332593
H   H9        1.0  0.52690  0.86550  0.88830  1.0000 0.113332593
H   H10       1.0  0.86550  0.52690  0.11170  1.0000 0.113332593
H   H11       1.0  0.47310  0.13450  0.11170  1.0000 0.118487889
H   H12       1.0  0.13450  0.47310  0.88830  1.0000 0.113332593
H   H13       1.0  0.72010  0.27990  0.83200  1.0000 0.2803683158
H   H14       1.0  0.27990  0.72010  0.16800  1.0000 0.2803683158
H   H15       1.0  0.83400  0.16600  0.56240  1.0000 0.2803683158
H   H16       1.0  0.16600  0.83400  0.43760  1.0000 0.2803683158
H   H17       1.0  0.23590  0.00230  0.08380  1.0000 0.2803683158
H   H18       1.0  0.00230  0.23590  0.91620  1.0000 0.2803683158
H   H19       1.0  0.76410  0.99770  0.91620  1.0000 0.2803683158
H   H20       1.0  0.99770  0.76410  0.08380  1.0000 0.2803683158
H   H21       1.0  0.34160  0.90000  0.81110  1.0000 0.2886910666
H   H22       1.0  0.90000  0.34160  0.18890  1.0000 0.2886910666
H   H23       1.0  0.65840  0.10000  0.18890  1.0000 0.2886910666
H   H24       1.0  0.10000  0.65840  0.81110  1.0000 0.2886910666
C   C1        1.0  0.51720  0.48280  0.61770  1.0000 -0.1524130415
C   C2        1.0  0.48280  0.51720  0.38230  1.0000 -0.1524130415
C   C3        1.0  0.61450  0.38550  0.58270  1.0000 0.0095596276
C   C4        1.0  0.38550  0.61450  0.41730  1.0000 0.0095596276
C   C5        1.0  0.59790  0.40210  0.46610  1.0000 -0.1411153089
C   C6        1.0  0.40210  0.59790  0.53390  1.0000 -0.1411153089
C   C7        1.0  0.73650  0.26350  0.66940  1.0000 0.1936520625
C   C8        1.0  0.26350  0.73650  0.33060  1.0000 0.1952502866
C   C9        1.0  0.39925  0.05585  0.04680  1.0000 -0.1666484039
C   C10       1.0  0.05585  0.39925  0.95320  1.0000 -0.1666484039
C   C11       1.0  0.60075  0.94415  0.95320  1.0000 -0.1666484039
C   C12       1.0  0.94415  0.60075  0.04680  1.0000 -0.1666484039
C   C13       1.0  0.41322  0.97742  0.98070  1.0000 0.0095596276
C   C14       1.0  0.97742  0.41322  0.01930  1.0000 0.0095596276
C   C15       1.0  0.58678  0.02258  0.01930  1.0000 0.0095596276
C   C16       1.0  0.02258  0.58678  0.98070  1.0000 0.0095596276
C   C17       1.0  0.51529  0.92069  0.93380  1.0000 -0.1554316218
C   C18       1.0  0.92069  0.51529  0.06620  1.0000 -0.1554316218
C   C19       1.0  0.48471  0.07931  0.06620  1.0000 -0.1554316218
C   C20       1.0  0.07931  0.48471  0.93380  1.0000 -0.1554316218
C   C21       1.0  0.31991  0.95591  0.95760  1.0000 0.1425311815
C   C22       1.0  0.95591  0.31991  0.04240  1.0000 0.1425311815
C   C23       1.0  0.68009  0.04409  0.04240  1.0000 0.1425311815
C   C24       1.0  0.04409  0.68009  0.95760  1.0000 0.1425311815
C   C25       1.0  0.03136  0.03136  0.50000  1.0000 0.4264471222
C   C26       1.0  0.96864  0.96864  0.50000  1.0000 0.4264471222
N   N1        1.0  0.76650  0.23350  0.78730  1.0000 -0.3216737818
N   N2        1.0  0.23350  0.76650  0.21270  1.0000 -0.3216737818
N   N3        1.0  0.88620  0.11380  0.82630  1.0000 -0.0583688851
N   N4        1.0  0.11380  0.88620  0.17370  1.0000 -0.0583688851
N   N5        1.0  0.92390  0.07610  0.73690  1.0000 -0.0825088333
N   N6        1.0  0.07610  0.92390  0.26310  1.0000 -0.0825088333
N   N7        1.0  0.83150  0.16850  0.63590  1.0000 -0.1411153089
N   N8        1.0  0.16850  0.83150  0.36410  1.0000 -0.1411153089
N   N9        1.0  0.23941  0.97861  0.01980  1.0000 -0.281318457
N   N10       1.0  0.97861  0.23941  0.98020  1.0000 -0.281318457
N   N11       1.0  0.76059  0.02139  0.98020  1.0000 -0.281318457
N   N12       1.0  0.02139  0.76059  0.01980  1.0000 -0.281318457
N   N13       1.0  0.16532  0.95752  0.96370  1.0000 -0.0583688851
N   N14       1.0  0.95752  0.16532  0.03630  1.0000 -0.0583688851
N   N15       1.0  0.83468  0.04248  0.03630  1.0000 -0.0583688851
N   N16       1.0  0.04248  0.83468  0.96370  1.0000 -0.0583688851
N   N17       1.0  0.20166  0.92306  0.87170  1.0000 -0.0886242996
N   N18       1.0  0.92306  0.20166  0.12830  1.0000 -0.0886242996
N   N19       1.0  0.79834  0.07694  0.12830  1.0000 -0.0886242996
N   N20       1.0  0.07694  0.79834  0.87170  1.0000 -0.0886242996
N   N21       1.0  0.29906  0.92126  0.86490  1.0000 -0.1814507778
N   N22       1.0  0.92126  0.29906  0.13510  1.0000 -0.1814507778
N   N23       1.0  0.70094  0.07874  0.13510  1.0000 -0.1814507778
N   N24       1.0  0.07874  0.70094  0.86490  1.0000 -0.1814507778
O   O1        1.0  0.10665  0.00303  0.59639  1.0000 -0.4761028897
O   O2        1.0  0.00303  0.10665  0.40361  1.0000 -0.4761028897
O   O3        1.0  0.89335  0.99697  0.40361  1.0000 -0.4761028897
O   O4        1.0  0.99697  0.89335  0.59639  1.0000 -0.4742781233
