# DDEC6 charges by PACMAN v1.1 (https://github.com/mtap-research/PACMAN-charge/)
data_2012[Zn][sod]3[ASR]12
_chemical_formula_sum              "Zn6 H60 C48 N24"
_cell_length_a       14.7934
_cell_length_b       14.7934
_cell_length_c       14.7934
_cell_angle_alpha    109.471
_cell_angle_beta     109.471
_cell_angle_gamma    109.471

_symmetry_space_group_name_H-M    "P 1"
_symmetry_Int_Tables_number       1

loop_
  _symmetry_equiv_pos_as_xyz
  'x, y, z'

loop_
  _atom_site_type_symbol
  _atom_site_label
  _atom_site_symmetry_multiplicity
  _atom_site_fract_x
  _atom_site_fract_y
  _atom_site_fract_z
  _atom_site_occupancy
  _atom_site_charge
Zn  Zn1       1.0  0.25000  0.50000  0.75000  1.0000 0.6501862723
Zn  Zn2       1.0  0.75000  0.50000  0.25000  1.0000 0.6501862723
Zn  Zn3       1.0  0.75000  0.25000  0.50000  1.0000 0.6501862723
Zn  Zn4       1.0  0.25000  0.75000  0.50000  1.0000 0.6501862723
Zn  Zn5       1.0  0.50000  0.75000  0.25000  1.0000 0.6501862723
Zn  Zn6       1.0  0.50000  0.25000  0.75000  1.0000 0.6501862723
H   H1        1.0  0.10060  0.56210  0.84010  1.0000 0.1147684126
H   H2        1.0  0.72200  0.26050  0.15990  1.0000 0.1147684126
H   H3        1.0  0.27800  0.43790  0.53850  1.0000 0.1147684126
H   H4        1.0  0.89940  0.73950  0.46150  1.0000 0.1147684126
H   H5        1.0  0.84010  0.10060  0.56210  1.0000 0.1147684126
H   H6        1.0  0.15990  0.72200  0.26050  1.0000 0.1147684126
H   H7        1.0  0.53850  0.27800  0.43790  1.0000 0.1147684126
H   H8        1.0  0.46150  0.89940  0.73950  1.0000 0.1147684126
H   H9        1.0  0.56210  0.84010  0.10060  1.0000 0.1147684126
H   H10       1.0  0.26050  0.15990  0.72200  1.0000 0.1147684126
H   H11       1.0  0.43790  0.53850  0.27800  1.0000 0.1147684126
H   H12       1.0  0.73950  0.46150  0.89940  1.0000 0.1147684126
H   H13       1.0  0.56210  0.10060  0.84010  1.0000 0.1147684126
H   H14       1.0  0.26050  0.72200  0.15990  1.0000 0.1147684126
H   H15       1.0  0.43790  0.27800  0.53850  1.0000 0.1147684126
H   H16       1.0  0.73950  0.89940  0.46150  1.0000 0.1147684126
H   H17       1.0  0.10060  0.84010  0.56210  1.0000 0.1147684126
H   H18       1.0  0.72200  0.15990  0.26050  1.0000 0.1147684126
H   H19       1.0  0.27800  0.53850  0.43790  1.0000 0.1147684126
H   H20       1.0  0.89940  0.46150  0.73950  1.0000 0.1147684126
H   H21       1.0  0.84010  0.56210  0.10060  1.0000 0.1147684126
H   H22       1.0  0.15990  0.26050  0.72200  1.0000 0.1147684126
H   H23       1.0  0.53850  0.43790  0.27800  1.0000 0.1147684126
H   H24       1.0  0.46150  0.73950  0.89940  1.0000 0.1147684126
H   H25       1.0  0.99940  0.20920  0.54620  1.0000 0.143289101
H   H26       1.0  0.66300  0.45320  0.45380  1.0000 0.143289101
H   H27       1.0  0.33700  0.79080  0.79020  1.0000 0.143289101
H   H28       1.0  0.00060  0.54680  0.20980  1.0000 0.143289101
H   H29       1.0  0.54620  0.99940  0.20920  1.0000 0.143289101
H   H30       1.0  0.45380  0.66300  0.45320  1.0000 0.143289101
H   H31       1.0  0.79020  0.33700  0.79080  1.0000 0.143289101
H   H32       1.0  0.20980  0.00060  0.54680  1.0000 0.143289101
H   H33       1.0  0.20920  0.54620  0.99940  1.0000 0.143289101
H   H34       1.0  0.45320  0.45380  0.66300  1.0000 0.143289101
H   H35       1.0  0.79080  0.79020  0.33700  1.0000 0.143289101
H   H36       1.0  0.54680  0.20980  0.00060  1.0000 0.143289101
H   H37       1.0  0.06650  0.30220  0.52510  1.0000 0.1506196154
H   H38       1.0  0.77710  0.54140  0.47490  1.0000 0.1506196154
H   H39       1.0  0.22290  0.69780  0.76430  1.0000 0.1506196154
H   H40       1.0  0.93350  0.45860  0.23570  1.0000 0.1506196154
H   H41       1.0  0.52510  0.06650  0.30220  1.0000 0.1506196154
H   H42       1.0  0.47490  0.77710  0.54140  1.0000 0.1506196154
H   H43       1.0  0.76430  0.22290  0.69780  1.0000 0.1506196154
H   H44       1.0  0.23570  0.93350  0.45860  1.0000 0.1506196154
H   H45       1.0  0.30220  0.52510  0.06650  1.0000 0.1506196154
H   H46       1.0  0.54140  0.47490  0.77710  1.0000 0.1506196154
H   H47       1.0  0.69780  0.76430  0.22290  1.0000 0.1506196154
H   H48       1.0  0.45860  0.23570  0.93350  1.0000 0.1506196154
H   H49       1.0  0.30220  0.06650  0.52510  1.0000 0.1506196154
H   H50       1.0  0.54140  0.77710  0.47490  1.0000 0.1506196154
H   H51       1.0  0.69780  0.22290  0.76430  1.0000 0.1506196154
H   H52       1.0  0.45860  0.93350  0.23570  1.0000 0.1506196154
H   H53       1.0  0.06650  0.52510  0.30220  1.0000 0.1506196154
H   H54       1.0  0.77710  0.47490  0.54140  1.0000 0.1506196154
H   H55       1.0  0.22290  0.76430  0.69780  1.0000 0.1506196154
H   H56       1.0  0.93350  0.23570  0.45860  1.0000 0.1506196154
H   H57       1.0  0.52510  0.30220  0.06650  1.0000 0.1506196154
H   H58       1.0  0.47490  0.54140  0.77710  1.0000 0.1506196154
H   H59       1.0  0.76430  0.69780  0.22290  1.0000 0.1506196154
H   H60       1.0  0.23570  0.45860  0.93350  1.0000 0.1506196154
C   C1        1.0  0.00000  0.35400  0.61900  1.0000 0.379908484
C   C2        1.0  0.73500  0.38100  0.38100  1.0000 0.379908484
C   C3        1.0  0.26500  0.64600  0.64600  1.0000 0.379908484
C   C4        1.0  0.00000  0.61900  0.35400  1.0000 0.379908484
C   C5        1.0  0.61900  0.00000  0.35400  1.0000 0.379908484
C   C6        1.0  0.38100  0.73500  0.38100  1.0000 0.379908484
C   C7        1.0  0.64600  0.26500  0.64600  1.0000 0.379908484
C   C8        1.0  0.35400  0.00000  0.61900  1.0000 0.379908484
C   C9        1.0  0.35400  0.61900  0.00000  1.0000 0.379908484
C   C10       1.0  0.38100  0.38100  0.73500  1.0000 0.379908484
C   C11       1.0  0.64600  0.64600  0.26500  1.0000 0.379908484
C   C12       1.0  0.61900  0.35400  0.00000  1.0000 0.379908484
C   C13       1.0  0.05490  0.49550  0.77040  1.0000 -0.0730494633
C   C14       1.0  0.72510  0.28450  0.22960  1.0000 -0.0730494633
C   C15       1.0  0.27490  0.50450  0.55940  1.0000 -0.0730494633
C   C16       1.0  0.94510  0.71550  0.44060  1.0000 -0.0730494633
C   C17       1.0  0.77040  0.05490  0.49550  1.0000 -0.0730494633
C   C18       1.0  0.22960  0.72510  0.28450  1.0000 -0.0730494633
C   C19       1.0  0.55940  0.27490  0.50450  1.0000 -0.0730494633
C   C20       1.0  0.44060  0.94510  0.71550  1.0000 -0.0730494633
C   C21       1.0  0.49550  0.77040  0.05490  1.0000 -0.0730494633
C   C22       1.0  0.28450  0.22960  0.72510  1.0000 -0.0730494633
C   C23       1.0  0.50450  0.55940  0.27490  1.0000 -0.0730494633
C   C24       1.0  0.71550  0.44060  0.94510  1.0000 -0.0730494633
C   C25       1.0  0.49550  0.05490  0.77040  1.0000 -0.0730494633
C   C26       1.0  0.28450  0.72510  0.22960  1.0000 -0.0730494633
C   C27       1.0  0.50450  0.27490  0.55940  1.0000 -0.0730494633
C   C28       1.0  0.71550  0.94510  0.44060  1.0000 -0.0730494633
C   C29       1.0  0.05490  0.77040  0.49550  1.0000 -0.0730494633
C   C30       1.0  0.72510  0.22960  0.28450  1.0000 -0.0730494633
C   C31       1.0  0.27490  0.55940  0.50450  1.0000 -0.0730494633
C   C32       1.0  0.94510  0.44060  0.71550  1.0000 -0.0730494633
C   C33       1.0  0.77040  0.49550  0.05490  1.0000 -0.0730494633
C   C34       1.0  0.22960  0.28450  0.72510  1.0000 -0.0730494633
C   C35       1.0  0.55940  0.50450  0.27490  1.0000 -0.0730494633
C   C36       1.0  0.44060  0.71550  0.94510  1.0000 -0.0730494633
C   C37       1.0  0.00000  0.26810  0.52950  1.0000 -0.531326605
C   C38       1.0  0.73860  0.47050  0.47050  1.0000 -0.531326605
C   C39       1.0  0.26140  0.73190  0.73190  1.0000 -0.531326605
C   C40       1.0  0.00000  0.52950  0.26810  1.0000 -0.531326605
C   C41       1.0  0.52950  0.00000  0.26810  1.0000 -0.531326605
C   C42       1.0  0.47050  0.73860  0.47050  1.0000 -0.531326605
C   C43       1.0  0.73190  0.26140  0.73190  1.0000 -0.531326605
C   C44       1.0  0.26810  0.00000  0.52950  1.0000 -0.531326605
C   C45       1.0  0.26810  0.52950  0.00000  1.0000 -0.531326605
C   C46       1.0  0.47050  0.47050  0.73860  1.0000 -0.531326605
C   C47       1.0  0.73190  0.73190  0.26140  1.0000 -0.531326605
C   C48       1.0  0.52950  0.26810  0.00000  1.0000 -0.531326605
N   N1        1.0  0.09160  0.44096  0.71068  1.0000 -0.3508206228
N   N2        1.0  0.73028  0.38092  0.28932  1.0000 -0.3508206228
N   N3        1.0  0.26972  0.55904  0.65064  1.0000 -0.3508206228
N   N4        1.0  0.90840  0.61908  0.34936  1.0000 -0.3508206228
N   N5        1.0  0.71068  0.09160  0.44096  1.0000 -0.3508206228
N   N6        1.0  0.28932  0.73028  0.38092  1.0000 -0.3508206228
N   N7        1.0  0.65064  0.26972  0.55904  1.0000 -0.3508206228
N   N8        1.0  0.34936  0.90840  0.61908  1.0000 -0.3508206228
N   N9        1.0  0.44096  0.71068  0.09160  1.0000 -0.3508206228
N   N10       1.0  0.38092  0.28932  0.73028  1.0000 -0.3508206228
N   N11       1.0  0.55904  0.65064  0.26972  1.0000 -0.3508206228
N   N12       1.0  0.61908  0.34936  0.90840  1.0000 -0.3508206228
N   N13       1.0  0.44096  0.09160  0.71068  1.0000 -0.3508206228
N   N14       1.0  0.38092  0.73028  0.28932  1.0000 -0.3508206228
N   N15       1.0  0.55904  0.26972  0.65064  1.0000 -0.3508206228
N   N16       1.0  0.61908  0.90840  0.34936  1.0000 -0.3508206228
N   N17       1.0  0.09160  0.71068  0.44096  1.0000 -0.3508206228
N   N18       1.0  0.73028  0.28932  0.38092  1.0000 -0.3508206228
N   N19       1.0  0.26972  0.65064  0.55904  1.0000 -0.3508206228
N   N20       1.0  0.90840  0.34936  0.61908  1.0000 -0.3508206228
N   N21       1.0  0.71068  0.44096  0.09160  1.0000 -0.3508206228
N   N22       1.0  0.28932  0.38092  0.73028  1.0000 -0.3508206228
N   N23       1.0  0.65064  0.55904  0.26972  1.0000 -0.3508206228
N   N24       1.0  0.34936  0.61908  0.90840  1.0000 -0.3508206228
