# DDEC6 charges by PACMAN v1.1 (https://github.com/mtap-research/PACMAN-charge/)
data_2012[Cu][twf]3[ASR]1
_chemical_formula_sum              "Cu18 H64 C120 S4 N36 O68"
_cell_length_a       22.4004
_cell_length_b       22.4004
_cell_length_c       22.4004
_cell_angle_alpha    109.471
_cell_angle_beta     109.471
_cell_angle_gamma    109.471

_symmetry_space_group_name_H-M    "P 1"
_symmetry_Int_Tables_number       1

loop_
  _symmetry_equiv_pos_as_xyz
  'x, y, z'

loop_
  _atom_site_type_symbol
  _atom_site_label
  _atom_site_symmetry_multiplicity
  _atom_site_fract_x
  _atom_site_fract_y
  _atom_site_fract_z
  _atom_site_occupancy
  _atom_site_charge
Cu  Cu1       1.0  0.09185  0.09185  0.59747  1.0000 0.8471258122
Cu  Cu2       1.0  0.90815  0.50562  0.00000  1.0000 0.8471258122
Cu  Cu3       1.0  0.49437  0.49437  0.40253  1.0000 0.8471258122
Cu  Cu4       1.0  0.50562  0.90815  0.00000  1.0000 0.8471258122
Cu  Cu5       1.0  0.09184  0.59747  0.09184  1.0000 0.8471258122
Cu  Cu6       1.0  0.50562  1.00000  0.90816  1.0000 0.8471258122
Cu  Cu7       1.0  0.90815  0.00000  0.50562  1.0000 0.8471258122
Cu  Cu8       1.0  0.49437  0.40253  0.49438  1.0000 0.8471258122
Cu  Cu9       1.0  0.40253  0.49438  0.49438  1.0000 0.8471258122
Cu  Cu10      1.0  0.59747  0.09184  0.09184  1.0000 0.8471258122
Cu  Cu11      1.0  0.00000  0.90815  0.50562  1.0000 0.8471258122
Cu  Cu12      1.0  1.00000  0.50562  0.90816  1.0000 0.8471258122
Cu  Cu13      1.0  0.44813  0.00000  0.44813  1.0000 0.8761186519
Cu  Cu14      1.0  0.55187  0.00000  0.55187  1.0000 0.8761186519
Cu  Cu15      1.0  0.00000  0.44813  0.44813  1.0000 0.8761186519
Cu  Cu16      1.0  1.00000  0.55187  0.55187  1.0000 0.8745782414
Cu  Cu17      1.0  0.44813  0.44813  0.00000  1.0000 0.8761186519
Cu  Cu18      1.0  0.55187  0.55187  0.00000  1.0000 0.8761186519
H   H1        1.0  0.46990  0.00000  0.70030  1.0000 0.1403256854
H   H2        1.0  0.53010  0.23040  0.53010  1.0000 0.1403256854
H   H3        1.0  0.29970  0.76960  0.29970  1.0000 0.1403256854
H   H4        1.0  0.70030  0.00000  0.46990  1.0000 0.1403256854
H   H5        1.0  1.00000  0.70030  0.46990  1.0000 0.1403256854
H   H6        1.0  0.76960  0.29970  0.29970  1.0000 0.1403256854
H   H7        1.0  0.23040  0.53010  0.53010  1.0000 0.1403256854
H   H8        1.0  0.00000  0.46990  0.70030  1.0000 0.1403256854
H   H9        1.0  0.70030  0.46990  0.00000  1.0000 0.1403256854
H   H10       1.0  0.53010  0.53010  0.23040  1.0000 0.1403256854
H   H11       1.0  0.46990  0.70030  0.00000  1.0000 0.1403256854
H   H12       1.0  0.29970  0.29970  0.76960  1.0000 0.1403256854
H   H13       1.0  0.30860  0.00000  0.54520  1.0000 0.1564522585
H   H14       1.0  0.69140  0.23660  0.69140  1.0000 0.1564522585
H   H15       1.0  0.45480  0.76340  0.45480  1.0000 0.1564522585
H   H16       1.0  0.54520  0.00000  0.30860  1.0000 0.1564522585
H   H17       1.0  0.00000  0.54520  0.30860  1.0000 0.1564522585
H   H18       1.0  0.76340  0.45480  0.45480  1.0000 0.1564522585
H   H19       1.0  0.23660  0.69140  0.69140  1.0000 0.1564522585
H   H20       1.0  0.00000  0.30860  0.54520  1.0000 0.1564522585
H   H21       1.0  0.54520  0.30860  0.00000  1.0000 0.1564522585
H   H22       1.0  0.69140  0.69140  0.23660  1.0000 0.1564522585
H   H23       1.0  0.30860  0.54520  0.00000  1.0000 0.1564522585
H   H24       1.0  0.45480  0.45480  0.76340  1.0000 0.1564522585
H   H25       1.0  0.29760  0.00000  0.72240  1.0000 0.1403256854
H   H26       1.0  0.70240  0.42480  0.70240  1.0000 0.1482100873
H   H27       1.0  0.27760  0.57520  0.27760  1.0000 0.1482100873
H   H28       1.0  0.72240  0.00000  0.29760  1.0000 0.1403256854
H   H29       1.0  0.00000  0.72240  0.29760  1.0000 0.1403256854
H   H30       1.0  0.57520  0.27760  0.27760  1.0000 0.1482100873
H   H31       1.0  0.42480  0.70240  0.70240  1.0000 0.1482100873
H   H32       1.0  0.00000  0.29760  0.72240  1.0000 0.1403256854
H   H33       1.0  0.72240  0.29760  0.00000  1.0000 0.1482100873
H   H34       1.0  0.70240  0.70240  0.42480  1.0000 0.1403256854
H   H35       1.0  0.29760  0.72240  0.00000  1.0000 0.1482100873
H   H36       1.0  0.27760  0.27760  0.57520  1.0000 0.1403256854
H   H37       1.0  0.25390  0.10700  0.65570  1.0000 0.1482100873
H   H38       1.0  0.74610  0.40180  0.85310  1.0000 0.1482100873
H   H39       1.0  0.45130  0.59820  0.34430  1.0000 0.1482100873
H   H40       1.0  0.54870  0.89300  0.14690  1.0000 0.1482100873
H   H41       1.0  0.89300  0.54870  0.14690  1.0000 0.1482100873
H   H42       1.0  0.59820  0.45130  0.34430  1.0000 0.1482100873
H   H43       1.0  0.40180  0.74610  0.85310  1.0000 0.1482100873
H   H44       1.0  0.10700  0.25390  0.65570  1.0000 0.1482100873
H   H45       1.0  0.10700  0.65570  0.25390  1.0000 0.1482100873
H   H46       1.0  0.40180  0.85310  0.74610  1.0000 0.1482100873
H   H47       1.0  0.89300  0.14690  0.54870  1.0000 0.1482100873
H   H48       1.0  0.59820  0.34430  0.45130  1.0000 0.1482100873
H   H49       1.0  0.34430  0.59820  0.45130  1.0000 0.1482100873
H   H50       1.0  0.65570  0.10700  0.25390  1.0000 0.1482100873
H   H51       1.0  0.14690  0.89300  0.54870  1.0000 0.1482100873
H   H52       1.0  0.85310  0.40180  0.74610  1.0000 0.1482100873
H   H53       1.0  0.65570  0.25390  0.10700  1.0000 0.1482100873
H   H54       1.0  0.85310  0.74610  0.40180  1.0000 0.1482100873
H   H55       1.0  0.14690  0.54870  0.89300  1.0000 0.1482100873
H   H56       1.0  0.34430  0.45130  0.59820  1.0000 0.1482100873
H   H57       1.0  0.25390  0.65570  0.10700  1.0000 0.1482100873
H   H58       1.0  0.74610  0.85310  0.40180  1.0000 0.1482100873
H   H59       1.0  0.45130  0.34430  0.59820  1.0000 0.1482100873
H   H60       1.0  0.54870  0.14690  0.89300  1.0000 0.1482100873
H   H61       1.0  0.00000  0.00000  0.47400  1.0000 0.3867426628
H   H62       1.0  0.00000  0.47400  0.00000  1.0000 0.3867426628
H   H63       1.0  0.52600  0.52600  0.52600  1.0000 0.3867426628
H   H64       1.0  0.47400  0.00000  0.00000  1.0000 0.3867426628
C   C1        1.0  0.41977  1.00000  0.79263  1.0000 0.5315701752
C   C2        1.0  0.58023  0.37286  0.58023  1.0000 0.5315701752
C   C3        1.0  0.20737  0.62714  0.20737  1.0000 0.5315701752
C   C4        1.0  0.79263  1.00000  0.41977  1.0000 0.5315701752
C   C5        1.0  1.00000  0.79263  0.41977  1.0000 0.5315701752
C   C6        1.0  0.62714  0.20737  0.20737  1.0000 0.5315701752
C   C7        1.0  0.37286  0.58023  0.58023  1.0000 0.5315701752
C   C8        1.0  1.00000  0.41977  0.79263  1.0000 0.5315701752
C   C9        1.0  0.79263  0.41977  0.00000  1.0000 0.5315701752
C   C10       1.0  0.58023  0.58023  0.37286  1.0000 0.5315701752
C   C11       1.0  0.41977  0.79263  0.00000  1.0000 0.5315701752
C   C12       1.0  0.20737  0.20737  0.62714  1.0000 0.5315701752
C   C13       1.0  0.38871  0.00000  0.72171  1.0000 -0.0120237445
C   C14       1.0  0.61129  0.33300  0.61129  1.0000 -0.0120237445
C   C15       1.0  0.27829  0.66700  0.27829  1.0000 -0.0120237445
C   C16       1.0  0.72171  0.00000  0.38871  1.0000 -0.0120237445
C   C17       1.0  0.00000  0.72171  0.38871  1.0000 -0.0120237445
C   C18       1.0  0.66700  0.27829  0.27829  1.0000 -0.0120237445
C   C19       1.0  0.33300  0.61129  0.61129  1.0000 -0.0120237445
C   C20       1.0  1.00000  0.38871  0.72171  1.0000 -0.0120237445
C   C21       1.0  0.72171  0.38871  0.00000  1.0000 -0.0120237445
C   C22       1.0  0.61129  0.61129  0.33300  1.0000 -0.0120237445
C   C23       1.0  0.38871  0.72171  0.00000  1.0000 -0.0120237445
C   C24       1.0  0.27829  0.27829  0.66700  1.0000 -0.0120237445
C   C25       1.0  0.42502  0.00000  0.68294  1.0000 -0.1024937665
C   C26       1.0  0.57498  0.25792  0.57498  1.0000 -0.1024937665
C   C27       1.0  0.31706  0.74208  0.31706  1.0000 -0.1024937665
C   C28       1.0  0.68294  0.00000  0.42502  1.0000 -0.1024937665
C   C29       1.0  0.00000  0.68294  0.42502  1.0000 -0.1024937665
C   C30       1.0  0.74208  0.31706  0.31706  1.0000 -0.1024937665
C   C31       1.0  0.25792  0.57498  0.57498  1.0000 -0.1024937665
C   C32       1.0  0.00000  0.42502  0.68294  1.0000 -0.1024937665
C   C33       1.0  0.68294  0.42502  0.00000  1.0000 -0.1024937665
C   C34       1.0  0.57498  0.57498  0.25792  1.0000 -0.1024937665
C   C35       1.0  0.42502  0.68294  0.00000  1.0000 -0.1024937665
C   C36       1.0  0.31706  0.31706  0.74208  1.0000 -0.1024937665
C   C37       1.0  0.39317  0.00000  0.61423  1.0000 0.0026814371
C   C38       1.0  0.60683  0.22106  0.60683  1.0000 0.0026814371
C   C39       1.0  0.38577  0.77894  0.38577  1.0000 -0.0005977772
C   C40       1.0  0.61423  0.00000  0.39317  1.0000 0.0026814371
C   C41       1.0  0.00000  0.61423  0.39317  1.0000 0.0026814371
C   C42       1.0  0.77894  0.38577  0.38577  1.0000 -0.0005977772
C   C43       1.0  0.22106  0.60683  0.60683  1.0000 0.0026814371
C   C44       1.0  0.00000  0.39317  0.61423  1.0000 0.0026814371
C   C45       1.0  0.61423  0.39317  0.00000  1.0000 -0.0005977772
C   C46       1.0  0.60683  0.60683  0.22106  1.0000 -0.0005977772
C   C47       1.0  0.39317  0.61423  0.00000  1.0000 0.0026814371
C   C48       1.0  0.38577  0.38577  0.77894  1.0000 0.0026814371
C   C49       1.0  0.32958  0.00000  0.58964  1.0000 -0.1704585613
C   C50       1.0  0.67042  0.26006  0.67042  1.0000 -0.1704585613
C   C51       1.0  0.41036  0.73994  0.41036  1.0000 -0.1704585613
C   C52       1.0  0.58964  0.00000  0.32958  1.0000 -0.1704585613
C   C53       1.0  0.00000  0.58964  0.32958  1.0000 -0.1704585613
C   C54       1.0  0.73994  0.41036  0.41036  1.0000 -0.1704585613
C   C55       1.0  0.26006  0.67042  0.67042  1.0000 -0.1704585613
C   C56       1.0  0.00000  0.32958  0.58964  1.0000 -0.1704585613
C   C57       1.0  0.58964  0.32958  0.00000  1.0000 -0.1704585613
C   C58       1.0  0.67042  0.67042  0.26006  1.0000 -0.1704585613
C   C59       1.0  0.32958  0.58964  0.00000  1.0000 -0.1704585613
C   C60       1.0  0.41036  0.41036  0.73994  1.0000 -0.1704585613
C   C61       1.0  0.29464  0.00000  0.63242  1.0000 0.1403256854
C   C62       1.0  0.70536  0.33778  0.70536  1.0000 0.1403256854
C   C63       1.0  0.36758  0.66222  0.36758  1.0000 0.1403256854
C   C64       1.0  0.63242  0.00000  0.29464  1.0000 0.1403256854
C   C65       1.0  0.00000  0.63242  0.29464  1.0000 0.1403256854
C   C66       1.0  0.66222  0.36758  0.36758  1.0000 0.1403256854
C   C67       1.0  0.33778  0.70536  0.70536  1.0000 0.1403256854
C   C68       1.0  0.00000  0.29464  0.63242  1.0000 0.1403256854
C   C69       1.0  0.63242  0.29464  0.00000  1.0000 0.1403256854
C   C70       1.0  0.70536  0.70536  0.33778  1.0000 0.1403256854
C   C71       1.0  0.29464  0.63242  0.00000  1.0000 0.1403256854
C   C72       1.0  0.36758  0.36758  0.66222  1.0000 0.1403256854
C   C73       1.0  0.32267  0.00000  0.69553  1.0000 -0.1704585613
C   C74       1.0  0.67733  0.37286  0.67733  1.0000 -0.1704585613
C   C75       1.0  0.30447  0.62714  0.30447  1.0000 -0.1704585613
C   C76       1.0  0.69553  0.00000  0.32267  1.0000 -0.1704585613
C   C77       1.0  0.00000  0.69553  0.32267  1.0000 -0.1704585613
C   C78       1.0  0.62714  0.30447  0.30447  1.0000 -0.1704585613
C   C79       1.0  0.37286  0.67733  0.67733  1.0000 -0.1704585613
C   C80       1.0  0.00000  0.32267  0.69553  1.0000 -0.1704585613
C   C81       1.0  0.69553  0.32267  0.00000  1.0000 -0.1704585613
C   C82       1.0  0.67733  0.67733  0.37286  1.0000 -0.1704585613
C   C83       1.0  0.32267  0.69553  0.00000  1.0000 -0.1704585613
C   C84       1.0  0.30447  0.30447  0.62714  1.0000 -0.1704585613
C   C85       1.0  0.43431  0.00000  0.57329  1.0000 0.5825630862
C   C86       1.0  0.56569  0.13898  0.56569  1.0000 0.5825630862
C   C87       1.0  0.42671  0.86102  0.42671  1.0000 0.5825630862
C   C88       1.0  0.57329  0.00000  0.43431  1.0000 0.5825630862
C   C89       1.0  0.00000  0.57329  0.43431  1.0000 0.5825630862
C   C90       1.0  0.86102  0.42671  0.42671  1.0000 0.5825630862
C   C91       1.0  0.13898  0.56569  0.56569  1.0000 0.5825630862
C   C92       1.0  0.00000  0.43431  0.57329  1.0000 0.5825630862
C   C93       1.0  0.57329  0.43431  0.00000  1.0000 0.5825630862
C   C94       1.0  0.56569  0.56569  0.13898  1.0000 0.5825630862
C   C95       1.0  0.43431  0.57329  0.00000  1.0000 0.5825630862
C   C96       1.0  0.42671  0.42671  0.86102  1.0000 0.5825630862
C   C97       1.0  0.21536  0.05766  0.62422  1.0000 0.1345269271
C   C98       1.0  0.78464  0.40886  0.84230  1.0000 0.1403256854
C   C99       1.0  0.43344  0.59114  0.37578  1.0000 0.1403256854
C   C100      1.0  0.56656  0.94234  0.15770  1.0000 0.1345269271
C   C101      1.0  0.94234  0.56656  0.15770  1.0000 0.1345269271
C   C102      1.0  0.59114  0.43344  0.37578  1.0000 0.1403256854
C   C103      1.0  0.40886  0.78464  0.84230  1.0000 0.1345269271
C   C104      1.0  0.05766  0.21536  0.62422  1.0000 0.1403256854
C   C105      1.0  0.05766  0.62422  0.21536  1.0000 0.1345269271
C   C106      1.0  0.40886  0.84230  0.78464  1.0000 0.1345269271
C   C107      1.0  0.94234  0.15770  0.56656  1.0000 0.1403256854
C   C108      1.0  0.59114  0.37578  0.43344  1.0000 0.1345269271
C   C109      1.0  0.37578  0.59114  0.43344  1.0000 0.1345269271
C   C110      1.0  0.62422  0.05766  0.21536  1.0000 0.1403256854
C   C111      1.0  0.15770  0.94234  0.56656  1.0000 0.1403256854
C   C112      1.0  0.84230  0.40886  0.78464  1.0000 0.1345269271
C   C113      1.0  0.62422  0.21536  0.05766  1.0000 0.1345269271
C   C114      1.0  0.84230  0.78464  0.40886  1.0000 0.1345269271
C   C115      1.0  0.15770  0.56656  0.94234  1.0000 0.1345269271
C   C116      1.0  0.37578  0.43344  0.59114  1.0000 0.1345269271
C   C117      1.0  0.21536  0.62422  0.05766  1.0000 0.1345269271
C   C118      1.0  0.78464  0.84230  0.40886  1.0000 0.1345269271
C   C119      1.0  0.43344  0.37578  0.59114  1.0000 0.1345269271
C   C120      1.0  0.56656  0.15770  0.94234  1.0000 0.1403256854
S   S1        1.0  0.00000  0.00000  0.65544  1.0000 1.383507941
S   S2        1.0  0.00000  0.65544  0.00000  1.0000 1.383507941
S   S3        1.0  0.34456  0.34456  0.34456  1.0000 1.383507941
S   S4        1.0  0.65544  0.00000  0.00000  1.0000 1.383507941
N   N1        1.0  0.14528  0.03703  0.59213  1.0000 -0.1704585613
N   N2        1.0  0.85472  0.44685  0.89175  1.0000 -0.1704585613
N   N3        1.0  0.44490  0.55315  0.40787  1.0000 -0.1704585613
N   N4        1.0  0.55510  0.96297  0.10825  1.0000 -0.1704585613
N   N5        1.0  0.96297  0.55510  0.10825  1.0000 -0.1704585613
N   N6        1.0  0.55315  0.44490  0.40787  1.0000 -0.1704585613
N   N7        1.0  0.44685  0.85472  0.89175  1.0000 -0.1704585613
N   N8        1.0  0.03703  0.14528  0.59213  1.0000 -0.1704585613
N   N9        1.0  0.03703  0.59213  0.14528  1.0000 -0.1704585613
N   N10       1.0  0.44685  0.89175  0.85472  1.0000 -0.1704585613
N   N11       1.0  0.96297  0.10825  0.55510  1.0000 -0.1704585613
N   N12       1.0  0.55315  0.40787  0.44490  1.0000 -0.1704585613
N   N13       1.0  0.40787  0.55315  0.44490  1.0000 -0.1704585613
N   N14       1.0  0.59213  0.03703  0.14528  1.0000 -0.1704585613
N   N15       1.0  0.10825  0.96297  0.55510  1.0000 -0.1704585613
N   N16       1.0  0.89175  0.44685  0.85472  1.0000 -0.1704585613
N   N17       1.0  0.59213  0.14528  0.03703  1.0000 -0.1704585613
N   N18       1.0  0.89175  0.85472  0.44685  1.0000 -0.1704585613
N   N19       1.0  0.10825  0.55510  0.96297  1.0000 -0.1704585613
N   N20       1.0  0.40787  0.44490  0.55315  1.0000 -0.1704585613
N   N21       1.0  0.14528  0.59213  0.03703  1.0000 -0.1704585613
N   N22       1.0  0.85472  0.89175  0.44685  1.0000 -0.1704585613
N   N23       1.0  0.44490  0.40787  0.55315  1.0000 -0.1704585613
N   N24       1.0  0.55510  0.10825  0.96297  1.0000 -0.1704585613
N   N25       1.0  0.22450  0.00000  0.60650  1.0000 0.0026814371
N   N26       1.0  0.77550  0.38200  0.77550  1.0000 0.0026814371
N   N27       1.0  0.39350  0.61800  0.39350  1.0000 0.0026814371
N   N28       1.0  0.60650  0.00000  0.22450  1.0000 0.0026814371
N   N29       1.0  0.00000  0.60650  0.22450  1.0000 0.0026814371
N   N30       1.0  0.61800  0.39350  0.39350  1.0000 0.0026814371
N   N31       1.0  0.38200  0.77550  0.77550  1.0000 0.0026814371
N   N32       1.0  0.00000  0.22450  0.60650  1.0000 0.0026814371
N   N33       1.0  0.60650  0.22450  0.00000  1.0000 0.0026814371
N   N34       1.0  0.77550  0.77550  0.38200  1.0000 0.0026814371
N   N35       1.0  0.22450  0.60650  0.00000  1.0000 0.0026814371
N   N36       1.0  0.39350  0.39350  0.61800  1.0000 0.0026814371
O   O1        1.0  0.00000  0.00000  0.51166  1.0000 -0.802722331
O   O2        1.0  0.00000  0.51166  0.00000  1.0000 -0.802722331
O   O3        1.0  0.48834  0.48834  0.48834  1.0000 -0.802722331
O   O4        1.0  0.51166  0.00000  0.00000  1.0000 -0.802722331
O   O5        1.0  0.47956  1.00000  0.81400  1.0000 -0.5288260193
O   O6        1.0  0.52044  0.33444  0.52044  1.0000 -0.5288260193
O   O7        1.0  0.18600  0.66556  0.18600  1.0000 -0.5288260193
O   O8        1.0  0.81400  0.00000  0.47956  1.0000 -0.5288260193
O   O9        1.0  0.00000  0.81400  0.47956  1.0000 -0.5288260193
O   O10       1.0  0.66556  0.18600  0.18600  1.0000 -0.5288260193
O   O11       1.0  0.33444  0.52044  0.52044  1.0000 -0.5288260193
O   O12       1.0  1.00000  0.47956  0.81400  1.0000 -0.5288260193
O   O13       1.0  0.81400  0.47956  0.00000  1.0000 -0.5288260193
O   O14       1.0  0.52044  0.52044  0.33444  1.0000 -0.5288260193
O   O15       1.0  0.47956  0.81400  0.00000  1.0000 -0.5288260193
O   O16       1.0  0.18600  0.18600  0.66556  1.0000 -0.5288260193
O   O17       1.0  0.38688  1.00000  0.82846  1.0000 -0.5792448135
O   O18       1.0  0.61312  0.44158  0.61312  1.0000 -0.5792448135
O   O19       1.0  0.17154  0.55842  0.17154  1.0000 -0.5792448135
O   O20       1.0  0.82846  0.00000  0.38688  1.0000 -0.5792448135
O   O21       1.0  0.00000  0.82846  0.38688  1.0000 -0.5792448135
O   O22       1.0  0.55842  0.17154  0.17154  1.0000 -0.5792448135
O   O23       1.0  0.44158  0.61312  0.61312  1.0000 -0.5792448135
O   O24       1.0  1.00000  0.38688  0.82846  1.0000 -0.5792448135
O   O25       1.0  0.82846  0.38688  0.00000  1.0000 -0.5792448135
O   O26       1.0  0.61312  0.61312  0.44158  1.0000 -0.5792448135
O   O27       1.0  0.38688  0.82846  0.00000  1.0000 -0.5792448135
O   O28       1.0  0.17154  0.17154  0.55842  1.0000 -0.5792448135
O   O29       1.0  0.40495  0.00000  0.51291  1.0000 -0.5515999557
O   O30       1.0  0.59505  0.10796  0.59505  1.0000 -0.5515999557
O   O31       1.0  0.48709  0.89204  0.48709  1.0000 -0.5515999557
O   O32       1.0  0.51291  0.00000  0.40495  1.0000 -0.5515999557
O   O33       1.0  0.00000  0.51291  0.40495  1.0000 -0.5515999557
O   O34       1.0  0.89204  0.48709  0.48709  1.0000 -0.5515999557
O   O35       1.0  0.10796  0.59505  0.59505  1.0000 -0.5515999557
O   O36       1.0  0.00000  0.40495  0.51291  1.0000 -0.5515999557
O   O37       1.0  0.51291  0.40495  0.00000  1.0000 -0.5515999557
O   O38       1.0  0.59505  0.59505  0.10796  1.0000 -0.5515999557
O   O39       1.0  0.40495  0.51291  0.00000  1.0000 -0.5515999557
O   O40       1.0  0.48709  0.48709  0.89204  1.0000 -0.5515999557
O   O41       1.0  0.49275  0.00000  0.59917  1.0000 -0.5018749646
O   O42       1.0  0.50725  0.10642  0.50725  1.0000 -0.5018749646
O   O43       1.0  0.40083  0.89358  0.40083  1.0000 -0.5018749646
O   O44       1.0  0.59917  0.00000  0.49275  1.0000 -0.5018749646
O   O45       1.0  0.00000  0.59917  0.49275  1.0000 -0.5018749646
O   O46       1.0  0.89358  0.40083  0.40083  1.0000 -0.5018749646
O   O47       1.0  0.10642  0.50725  0.50725  1.0000 -0.5018749646
O   O48       1.0  1.00000  0.49275  0.59917  1.0000 -0.5018749646
O   O49       1.0  0.59917  0.49275  0.00000  1.0000 -0.5018749646
O   O50       1.0  0.50725  0.50725  0.10642  1.0000 -0.5018749646
O   O51       1.0  0.49275  0.59917  0.00000  1.0000 -0.5018749646
O   O52       1.0  0.40083  0.40083  0.89358  1.0000 -0.5018749646
O   O53       1.0  0.06648  0.06648  0.67794  1.0000 -0.7212265394
O   O54       1.0  0.93352  0.61146  0.00000  1.0000 -0.7212265394
O   O55       1.0  0.38854  0.38854  0.32206  1.0000 -0.7212265394
O   O56       1.0  0.61146  0.93352  0.00000  1.0000 -0.7212265394
O   O57       1.0  0.06648  0.67794  0.06648  1.0000 -0.7212265394
O   O58       1.0  0.61146  0.00000  0.93352  1.0000 -0.7212265394
O   O59       1.0  0.93352  0.00000  0.61146  1.0000 -0.7212265394
O   O60       1.0  0.38854  0.32206  0.38854  1.0000 -0.7212265394
O   O61       1.0  0.32206  0.38854  0.38854  1.0000 -0.7212265394
O   O62       1.0  0.67794  0.06648  0.06648  1.0000 -0.7212265394
O   O63       1.0  0.00000  0.93352  0.61146  1.0000 -0.7212265394
O   O64       1.0  0.00000  0.61146  0.93352  1.0000 -0.7212265394
O   O65       1.0  0.00000  0.00000  0.72136  1.0000 -0.5908910196
O   O66       1.0  0.00000  0.72136  0.00000  1.0000 -0.5908910196
O   O67       1.0  0.27864  0.27864  0.27864  1.0000 -0.5980060658
O   O68       1.0  0.72136  0.00000  0.00000  1.0000 -0.5908910196
