# DDEC6 charges by PACMAN v1.1 (https://github.com/mtap-research/PACMAN-charge/)
data_2012[Co][nan]3[ASR]6
_chemical_formula_sum              "Co9 H90 C162 O36"
_cell_length_a       25.472
_cell_length_b       25.472
_cell_length_c       13.143
_cell_angle_alpha    90
_cell_angle_beta     90
_cell_angle_gamma    120

_symmetry_space_group_name_H-M    "P 1"
_symmetry_Int_Tables_number       1

loop_
  _symmetry_equiv_pos_as_xyz
  'x, y, z'

loop_
  _atom_site_type_symbol
  _atom_site_label
  _atom_site_symmetry_multiplicity
  _atom_site_fract_x
  _atom_site_fract_y
  _atom_site_fract_z
  _atom_site_occupancy
  _atom_site_charge
Co  Co1       1.0  0.31524  0.31524  0.00000  1.0000 1.095829866
Co  Co2       1.0  0.68476  0.00000  0.66667  1.0000 1.095829866
Co  Co3       1.0  0.00000  0.68476  0.33333  1.0000 1.095829866
Co  Co4       1.0  0.38910  0.27655  0.19119  1.0000 1.0058658338
Co  Co5       1.0  0.72345  0.11255  0.85786  1.0000 1.0058658338
Co  Co6       1.0  0.88745  0.61090  0.52452  1.0000 1.0058658338
Co  Co7       1.0  0.27655  0.38910  0.80881  1.0000 1.0058658338
Co  Co8       1.0  0.11255  0.72345  0.14214  1.0000 1.0058658338
Co  Co9       1.0  0.61090  0.88745  0.47548  1.0000 1.0058658338
H   H1        1.0  0.24020  0.25600  0.40960  1.0000 0.1204249191
H   H2        1.0  0.74400  0.98420  0.07627  1.0000 0.1204249191
H   H3        1.0  0.01580  0.75980  0.74293  1.0000 0.1204249191
H   H4        1.0  0.25600  0.24020  0.59040  1.0000 0.1204249191
H   H5        1.0  0.98420  0.74400  0.92373  1.0000 0.1204249191
H   H6        1.0  0.75980  0.01580  0.25707  1.0000 0.1204249191
H   H7        1.0  0.16060  0.26970  0.46960  1.0000 0.1204249191
H   H8        1.0  0.73030  0.89090  0.13627  1.0000 0.1204249191
H   H9        1.0  0.10910  0.83940  0.80293  1.0000 0.1204249191
H   H10       1.0  0.26970  0.16060  0.53040  1.0000 0.1204249191
H   H11       1.0  0.89090  0.73030  0.86373  1.0000 0.1204249191
H   H12       1.0  0.83940  0.10910  0.19707  1.0000 0.1204249191
H   H13       1.0  0.19440  0.38790  0.23900  1.0000 0.110710893
H   H14       1.0  0.61210  0.80650  0.90567  1.0000 0.110710893
H   H15       1.0  0.19350  0.80560  0.57233  1.0000 0.110710893
H   H16       1.0  0.38790  0.19440  0.76100  1.0000 0.110710893
H   H17       1.0  0.80650  0.61210  0.09433  1.0000 0.110710893
H   H18       1.0  0.80560  0.19350  0.42767  1.0000 0.110710893
H   H19       1.0  0.26930  0.37040  0.17840  1.0000 0.1315899408
H   H20       1.0  0.62960  0.89890  0.84507  1.0000 0.1315899408
H   H21       1.0  0.10110  0.73070  0.51173  1.0000 0.1315899408
H   H22       1.0  0.37040  0.26930  0.82160  1.0000 0.1315899408
H   H23       1.0  0.89890  0.62960  0.15493  1.0000 0.1315899408
H   H24       1.0  0.73070  0.10110  0.48827  1.0000 0.1315899408
H   H25       1.0  0.12850  0.56790  0.20270  1.0000 0.1204249191
H   H26       1.0  0.43210  0.56060  0.86937  1.0000 0.1204249191
H   H27       1.0  0.43940  0.87150  0.53603  1.0000 0.1204249191
H   H28       1.0  0.56790  0.12850  0.79730  1.0000 0.1204249191
H   H29       1.0  0.56060  0.43210  0.13063  1.0000 0.1204249191
H   H30       1.0  0.87150  0.43940  0.46397  1.0000 0.1204249191
H   H31       1.0  0.12230  0.47700  0.24400  1.0000 0.1204249191
H   H32       1.0  0.52300  0.64530  0.91067  1.0000 0.1204249191
H   H33       1.0  0.35470  0.87770  0.57733  1.0000 0.1204249191
H   H34       1.0  0.47700  0.12230  0.75600  1.0000 0.1204249191
H   H35       1.0  0.64530  0.52300  0.08933  1.0000 0.1204249191
H   H36       1.0  0.87770  0.35470  0.42267  1.0000 0.1204249191
H   H37       1.0  0.03940  0.47520  0.50910  1.0000 0.1204249191
H   H38       1.0  0.52480  0.56420  0.17577  1.0000 0.1204249191
H   H39       1.0  0.43580  0.96060  0.84243  1.0000 0.1204249191
H   H40       1.0  0.47520  0.03940  0.49090  1.0000 0.1204249191
H   H41       1.0  0.56420  0.52480  0.82423  1.0000 0.1204249191
H   H42       1.0  0.96060  0.43580  0.15757  1.0000 0.1204249191
H   H43       1.0  0.04200  0.56380  0.46030  1.0000 0.1315899408
H   H44       1.0  0.43620  0.47820  0.12697  1.0000 0.1315899408
H   H45       1.0  0.52180  0.95800  0.79363  1.0000 0.1315899408
H   H46       1.0  0.56380  0.04200  0.53970  1.0000 0.1315899408
H   H47       1.0  0.47820  0.43620  0.87303  1.0000 0.1315899408
H   H48       1.0  0.95800  0.52180  0.20637  1.0000 0.1315899408
H   H49       1.0  0.86990  0.24040  0.71010  1.0000 0.1204249191
H   H50       1.0  0.75960  0.62950  0.37677  1.0000 0.1204249191
H   H51       1.0  0.37050  0.13010  0.04343  1.0000 0.1204249191
H   H52       1.0  0.24040  0.86990  0.28990  1.0000 0.1204249191
H   H53       1.0  0.62950  0.75960  0.62323  1.0000 0.1204249191
H   H54       1.0  0.13010  0.37050  0.95657  1.0000 0.1204249191
H   H55       1.0  0.95540  0.31190  0.62910  1.0000 0.1204249191
H   H56       1.0  0.68810  0.64350  0.29577  1.0000 0.1204249191
H   H57       1.0  0.35650  0.04460  0.96243  1.0000 0.1204249191
H   H58       1.0  0.31190  0.95540  0.37090  1.0000 0.1204249191
H   H59       1.0  0.64350  0.68810  0.70423  1.0000 0.1204249191
H   H60       1.0  0.04460  0.35650  0.03757  1.0000 0.1204249191
H   H61       1.0  0.95880  0.18230  0.45620  1.0000 0.110710893
H   H62       1.0  0.81770  0.77650  0.12287  1.0000 0.110710893
H   H63       1.0  0.22350  0.04120  0.78953  1.0000 0.110710893
H   H64       1.0  0.18230  0.95880  0.54380  1.0000 0.110710893
H   H65       1.0  0.77650  0.81770  0.87713  1.0000 0.110710893
H   H66       1.0  0.04120  0.22350  0.21047  1.0000 0.110710893
H   H67       1.0  0.87470  0.10850  0.54380  1.0000 0.1204249191
H   H68       1.0  0.89150  0.76620  0.21047  1.0000 0.1204249191
H   H69       1.0  0.23380  0.12530  0.87713  1.0000 0.1204249191
H   H70       1.0  0.10850  0.87470  0.45620  1.0000 0.1204249191
H   H71       1.0  0.76620  0.89150  0.78953  1.0000 0.1204249191
H   H72       1.0  0.12530  0.23380  0.12287  1.0000 0.1204249191
H   H73       1.0  0.15490  0.42670  0.34360  1.0000 0.110710893
H   H74       1.0  0.57330  0.72820  0.01027  1.0000 0.110710893
H   H75       1.0  0.27180  0.84510  0.67693  1.0000 0.110710893
H   H76       1.0  0.42670  0.15490  0.65640  1.0000 0.110710893
H   H77       1.0  0.72820  0.57330  0.98973  1.0000 0.110710893
H   H78       1.0  0.84510  0.27180  0.32307  1.0000 0.110710893
H   H79       1.0  0.99290  0.36750  0.47740  1.0000 0.110710893
H   H80       1.0  0.63250  0.62540  0.14407  1.0000 0.110710893
H   H81       1.0  0.37460  0.00710  0.81073  1.0000 0.110710893
H   H82       1.0  0.36750  0.99290  0.52260  1.0000 0.110710893
H   H83       1.0  0.62540  0.63250  0.85593  1.0000 0.110710893
H   H84       1.0  0.00710  0.37460  0.18927  1.0000 0.110710893
H   H85       1.0  0.06500  0.25720  0.45890  1.0000 0.110710893
H   H86       1.0  0.74280  0.80780  0.12557  1.0000 0.110710893
H   H87       1.0  0.19220  0.93500  0.79223  1.0000 0.110710893
H   H88       1.0  0.25720  0.06500  0.54110  1.0000 0.110710893
H   H89       1.0  0.80780  0.74280  0.87443  1.0000 0.110710893
H   H90       1.0  0.93500  0.19220  0.20777  1.0000 0.110710893
C   C1        1.0  0.30880  0.29890  0.24710  1.0000 0.585496626
C   C2        1.0  0.70110  0.00990  0.91377  1.0000 0.585496626
C   C3        1.0  0.99010  0.69120  0.58043  1.0000 0.585496626
C   C4        1.0  0.29890  0.30880  0.75290  1.0000 0.585496626
C   C5        1.0  0.00990  0.70110  0.08623  1.0000 0.585496626
C   C6        1.0  0.69120  0.99010  0.41957  1.0000 0.585496626
C   C7        1.0  0.26050  0.31000  0.28880  1.0000 -0.0049993942
C   C8        1.0  0.69000  0.95050  0.95547  1.0000 -0.0054316571
C   C9        1.0  0.04950  0.73950  0.62213  1.0000 -0.0054316571
C   C10       1.0  0.31000  0.26050  0.71120  1.0000 -0.0054316571
C   C11       1.0  0.95050  0.69000  0.04453  1.0000 -0.0054316571
C   C12       1.0  0.73950  0.04950  0.37787  1.0000 -0.0054316571
C   C13       1.0  0.22990  0.28200  0.37370  1.0000 -0.0987025355
C   C14       1.0  0.71800  0.94790  0.04037  1.0000 -0.0987025355
C   C15       1.0  0.05210  0.77010  0.70703  1.0000 -0.0987025355
C   C16       1.0  0.28200  0.22990  0.62630  1.0000 -0.0987025355
C   C17       1.0  0.94790  0.71800  0.95963  1.0000 -0.0987025355
C   C18       1.0  0.77010  0.05210  0.29297  1.0000 -0.0987025355
C   C19       1.0  0.18250  0.29070  0.41050  1.0000 -0.1493517309
C   C20       1.0  0.70930  0.89180  0.07717  1.0000 -0.1493517309
C   C21       1.0  0.10820  0.81750  0.74383  1.0000 -0.1493517309
C   C22       1.0  0.29070  0.18250  0.58950  1.0000 -0.1493517309
C   C23       1.0  0.89180  0.70930  0.92283  1.0000 -0.1493517309
C   C24       1.0  0.81750  0.10820  0.25617  1.0000 -0.1493517309
C   C25       1.0  0.16800  0.32950  0.36070  1.0000 0.0620864261
C   C26       1.0  0.67050  0.83850  0.02737  1.0000 0.0620864261
C   C27       1.0  0.16150  0.83200  0.69403  1.0000 0.0620864261
C   C28       1.0  0.32950  0.16800  0.63930  1.0000 0.0620864261
C   C29       1.0  0.83850  0.67050  0.97263  1.0000 0.0620864261
C   C30       1.0  0.83200  0.16150  0.30597  1.0000 0.0620864261
C   C31       1.0  0.20250  0.35990  0.27350  1.0000 -0.1387113117
C   C32       1.0  0.64010  0.84260  0.94017  1.0000 -0.1387113117
C   C33       1.0  0.15740  0.79750  0.60683  1.0000 -0.1387113117
C   C34       1.0  0.35990  0.20250  0.72650  1.0000 -0.1387113117
C   C35       1.0  0.84260  0.64010  0.05983  1.0000 -0.1387113117
C   C36       1.0  0.79750  0.15740  0.39317  1.0000 -0.1387113117
C   C37       1.0  0.24730  0.35000  0.23780  1.0000 -0.0888375611
C   C38       1.0  0.65000  0.89730  0.90447  1.0000 -0.0888375611
C   C39       1.0  0.10270  0.75270  0.57113  1.0000 -0.0888375611
C   C40       1.0  0.35000  0.24730  0.76220  1.0000 -0.0888375611
C   C41       1.0  0.89730  0.65000  0.09553  1.0000 -0.0888375611
C   C42       1.0  0.75270  0.10270  0.42887  1.0000 -0.0888375611
C   C43       1.0  0.08500  0.63160  0.29310  1.0000 0.597998283
C   C44       1.0  0.36840  0.45340  0.95977  1.0000 0.597998283
C   C45       1.0  0.54660  0.91500  0.62643  1.0000 0.597998283
C   C46       1.0  0.63160  0.08500  0.70690  1.0000 0.597998283
C   C47       1.0  0.45340  0.36840  0.04023  1.0000 0.597998283
C   C48       1.0  0.91500  0.54660  0.37357  1.0000 0.597998283
C   C49       1.0  0.08440  0.57460  0.32610  1.0000 -0.0278717418
C   C50       1.0  0.42540  0.50980  0.99277  1.0000 -0.0278717418
C   C51       1.0  0.49020  0.91560  0.65943  1.0000 -0.0278717418
C   C52       1.0  0.57460  0.08440  0.67390  1.0000 -0.0278717418
C   C53       1.0  0.50980  0.42540  0.00723  1.0000 -0.0278717418
C   C54       1.0  0.91560  0.49020  0.34057  1.0000 -0.0278717418
C   C55       1.0  0.10900  0.54810  0.26420  1.0000 -0.0987025355
C   C56       1.0  0.45190  0.56090  0.93087  1.0000 -0.0987025355
C   C57       1.0  0.43910  0.89100  0.59753  1.0000 -0.0987025355
C   C58       1.0  0.54810  0.10900  0.73580  1.0000 -0.0987025355
C   C59       1.0  0.56090  0.45190  0.06913  1.0000 -0.0987025355
C   C60       1.0  0.89100  0.43910  0.40247  1.0000 -0.0987025355
C   C61       1.0  0.10620  0.49460  0.28890  1.0000 -0.1607711249
C   C62       1.0  0.50540  0.61160  0.95557  1.0000 -0.1607711249
C   C63       1.0  0.38840  0.89380  0.62223  1.0000 -0.1607711249
C   C64       1.0  0.49460  0.10620  0.71110  1.0000 -0.1607711249
C   C65       1.0  0.61160  0.50540  0.04443  1.0000 -0.1607711249
C   C66       1.0  0.89380  0.38840  0.37777  1.0000 -0.1607711249
C   C67       1.0  0.07920  0.46560  0.38210  1.0000 0.0796109839
C   C68       1.0  0.53440  0.61360  0.04877  1.0000 0.0796109839
C   C69       1.0  0.38640  0.92080  0.71543  1.0000 0.0796109839
C   C70       1.0  0.46560  0.07920  0.61790  1.0000 0.0796109839
C   C71       1.0  0.61360  0.53440  0.95123  1.0000 0.0796109839
C   C72       1.0  0.92080  0.38640  0.28457  1.0000 0.0796109839
C   C73       1.0  0.05660  0.49300  0.44530  1.0000 -0.1493517309
C   C74       1.0  0.50700  0.56360  0.11197  1.0000 -0.1493517309
C   C75       1.0  0.43640  0.94340  0.77863  1.0000 -0.1493517309
C   C76       1.0  0.49300  0.05660  0.55470  1.0000 -0.1493517309
C   C77       1.0  0.56360  0.50700  0.88803  1.0000 -0.1493517309
C   C78       1.0  0.94340  0.43640  0.22137  1.0000 -0.1493517309
C   C79       1.0  0.05870  0.54630  0.41640  1.0000 -0.0888375611
C   C80       1.0  0.45370  0.51240  0.08307  1.0000 -0.0888375611
C   C81       1.0  0.48760  0.94130  0.74973  1.0000 -0.0888375611
C   C82       1.0  0.54630  0.05870  0.58360  1.0000 -0.0888375611
C   C83       1.0  0.51240  0.45370  0.91693  1.0000 -0.0888375611
C   C84       1.0  0.94130  0.48760  0.25027  1.0000 -0.0888375611
C   C85       1.0  0.80600  0.11990  0.68850  1.0000 0.597998283
C   C86       1.0  0.88010  0.68610  0.35517  1.0000 0.597998283
C   C87       1.0  0.31390  0.19400  0.02183  1.0000 0.597998283
C   C88       1.0  0.11990  0.80600  0.31150  1.0000 0.597998283
C   C89       1.0  0.68610  0.88010  0.64483  1.0000 0.597998283
C   C90       1.0  0.19400  0.31390  0.97817  1.0000 0.597998283
C   C91       1.0  0.86320  0.16600  0.63290  1.0000 -0.0217231359
C   C92       1.0  0.83400  0.69720  0.29957  1.0000 -0.0217231359
C   C93       1.0  0.30280  0.13680  0.96623  1.0000 -0.0217231359
C   C94       1.0  0.16600  0.86320  0.36710  1.0000 -0.0217231359
C   C95       1.0  0.69720  0.83400  0.70043  1.0000 -0.0217231359
C   C96       1.0  0.13680  0.30280  0.03377  1.0000 -0.0217231359
C   C97       1.0  0.88830  0.22860  0.65910  1.0000 -0.0987025355
C   C98       1.0  0.77140  0.65970  0.32577  1.0000 -0.0987025355
C   C99       1.0  0.34030  0.11170  0.99243  1.0000 -0.0987025355
C   C100      1.0  0.22860  0.88830  0.34090  1.0000 -0.0987025355
C   C101      1.0  0.65970  0.77140  0.67423  1.0000 -0.0987025355
C   C102      1.0  0.11170  0.34030  0.00757  1.0000 -0.0987025355
C   C103      1.0  0.93870  0.27070  0.61000  1.0000 -0.1493517309
C   C104      1.0  0.72930  0.66800  0.27667  1.0000 -0.1493517309
C   C105      1.0  0.33200  0.06130  0.94333  1.0000 -0.1493517309
C   C106      1.0  0.27070  0.93870  0.39000  1.0000 -0.1493517309
C   C107      1.0  0.66800  0.72930  0.72333  1.0000 -0.1493517309
C   C108      1.0  0.06130  0.33200  0.05667  1.0000 -0.1493517309
C   C109      1.0  0.96710  0.25670  0.53340  1.0000 0.0620864261
C   C110      1.0  0.74330  0.71040  0.20007  1.0000 0.0620864261
C   C111      1.0  0.28960  0.03290  0.86673  1.0000 0.0620864261
C   C112      1.0  0.25670  0.96710  0.46660  1.0000 0.0620864261
C   C113      1.0  0.71040  0.74330  0.79993  1.0000 0.0620864261
C   C114      1.0  0.03290  0.28960  0.13327  1.0000 0.0620864261
C   C115      1.0  0.94110  0.19410  0.50870  1.0000 -0.1607711249
C   C116      1.0  0.80590  0.74700  0.17537  1.0000 -0.1607711249
C   C117      1.0  0.25300  0.05890  0.84203  1.0000 -0.1607711249
C   C118      1.0  0.19410  0.94110  0.49130  1.0000 -0.1607711249
C   C119      1.0  0.74700  0.80590  0.82463  1.0000 -0.1607711249
C   C120      1.0  0.05890  0.25300  0.15797  1.0000 -0.1607711249
C   C121      1.0  0.89040  0.15010  0.55990  1.0000 -0.0987025355
C   C122      1.0  0.84990  0.74030  0.22657  1.0000 -0.0987025355
C   C123      1.0  0.25970  0.10960  0.89323  1.0000 -0.0987025355
C   C124      1.0  0.15010  0.89040  0.44010  1.0000 -0.0987025355
C   C125      1.0  0.74030  0.84990  0.77343  1.0000 -0.0987025355
C   C126      1.0  0.10960  0.25970  0.10677  1.0000 -0.0987025355
C   C127      1.0  0.11840  0.33820  0.39440  1.0000 0.0796109839
C   C128      1.0  0.66180  0.78020  0.06107  1.0000 0.0796109839
C   C129      1.0  0.21980  0.88160  0.72773  1.0000 0.0796109839
C   C130      1.0  0.33820  0.11840  0.60560  1.0000 0.0796109839
C   C131      1.0  0.78020  0.66180  0.93893  1.0000 0.0796109839
C   C132      1.0  0.88160  0.21980  0.27227  1.0000 0.0796109839
C   C133      1.0  0.12040  0.39510  0.37690  1.0000 -0.2057951175
C   C134      1.0  0.60490  0.72530  0.04357  1.0000 -0.2057951175
C   C135      1.0  0.27470  0.87960  0.71023  1.0000 -0.2057951175
C   C136      1.0  0.39510  0.12040  0.62310  1.0000 -0.2057951175
C   C137      1.0  0.72530  0.60490  0.95643  1.0000 -0.2057951175
C   C138      1.0  0.87960  0.27470  0.28977  1.0000 -0.2057951175
C   C139      1.0  0.07400  0.40600  0.40690  1.0000 0.0727556576
C   C140      1.0  0.59400  0.66800  0.07357  1.0000 0.0727556576
C   C141      1.0  0.33200  0.92600  0.74023  1.0000 0.0727556576
C   C142      1.0  0.40600  0.07400  0.59310  1.0000 0.0727556576
C   C143      1.0  0.66800  0.59400  0.92643  1.0000 0.0727556576
C   C144      1.0  0.92600  0.33200  0.25977  1.0000 0.0727556576
C   C145      1.0  0.02490  0.36080  0.45680  1.0000 -0.2041511022
C   C146      1.0  0.63920  0.66410  0.12347  1.0000 -0.2041511022
C   C147      1.0  0.33590  0.97510  0.79013  1.0000 -0.2041511022
C   C148      1.0  0.36080  0.02490  0.54320  1.0000 -0.2041511022
C   C149      1.0  0.66410  0.63920  0.87653  1.0000 -0.2041511022
C   C150      1.0  0.97510  0.33590  0.20987  1.0000 -0.2041511022
C   C151      1.0  0.06790  0.29520  0.44540  1.0000 -0.2041511022
C   C152      1.0  0.70480  0.77270  0.11207  1.0000 -0.2041511022
C   C153      1.0  0.22730  0.93210  0.77873  1.0000 -0.2041511022
C   C154      1.0  0.29520  0.06790  0.55460  1.0000 -0.2041511022
C   C155      1.0  0.77270  0.70480  0.88793  1.0000 -0.2041511022
C   C156      1.0  0.93210  0.22730  0.22127  1.0000 -0.2041511022
C   C157      1.0  0.02080  0.30400  0.47850  1.0000 0.0796109839
C   C158      1.0  0.69600  0.71680  0.14517  1.0000 0.0796109839
C   C159      1.0  0.28320  0.97920  0.81183  1.0000 0.0796109839
C   C160      1.0  0.30400  0.02080  0.52150  1.0000 0.0796109839
C   C161      1.0  0.71680  0.69600  0.85483  1.0000 0.0796109839
C   C162      1.0  0.97920  0.28320  0.18817  1.0000 0.0796109839
O   O1        1.0  0.33310  0.27620  0.30410  1.0000 -0.5523545626
O   O2        1.0  0.72380  0.05690  0.97077  1.0000 -0.5523545626
O   O3        1.0  0.94310  0.66690  0.63743  1.0000 -0.5523545626
O   O4        1.0  0.27620  0.33310  0.69590  1.0000 -0.5523545626
O   O5        1.0  0.05690  0.72380  0.02923  1.0000 -0.5523545626
O   O6        1.0  0.66690  0.94310  0.36257  1.0000 -0.5523545626
O   O7        1.0  0.32708  0.31261  0.15740  1.0000 -0.5811750177
O   O8        1.0  0.68739  0.01447  0.82407  1.0000 -0.5811750177
O   O9        1.0  0.98553  0.67292  0.49073  1.0000 -0.5811750177
O   O10       1.0  0.31261  0.32708  0.84260  1.0000 -0.5811750177
O   O11       1.0  0.01447  0.68739  0.17593  1.0000 -0.5811750177
O   O12       1.0  0.67292  0.98553  0.50927  1.0000 -0.5811750177
O   O13       1.0  0.10740  0.65072  0.20460  1.0000 -0.5811750177
O   O14       1.0  0.34928  0.45668  0.87127  1.0000 -0.5811750177
O   O15       1.0  0.54332  0.89260  0.53793  1.0000 -0.5811750177
O   O16       1.0  0.65072  0.10740  0.79540  1.0000 -0.5811750177
O   O17       1.0  0.45668  0.34928  0.12873  1.0000 -0.5811750177
O   O18       1.0  0.89260  0.54332  0.46207  1.0000 -0.5811750177
O   O19       1.0  0.06418  0.65468  0.35090  1.0000 -0.5570421003
O   O20       1.0  0.34532  0.40950  0.01757  1.0000 -0.5570421003
O   O21       1.0  0.59050  0.93582  0.68423  1.0000 -0.5570421003
O   O22       1.0  0.65468  0.06418  0.64910  1.0000 -0.5570421003
O   O23       1.0  0.40950  0.34532  0.98243  1.0000 -0.5570421003
O   O24       1.0  0.93582  0.59050  0.31577  1.0000 -0.5570421003
O   O25       1.0  0.79268  0.13993  0.76400  1.0000 -0.57253449
O   O26       1.0  0.86007  0.65275  0.43067  1.0000 -0.57253449
O   O27       1.0  0.34725  0.20732  0.09733  1.0000 -0.57253449
O   O28       1.0  0.13993  0.79268  0.23600  1.0000 -0.57253449
O   O29       1.0  0.65275  0.86007  0.56933  1.0000 -0.57253449
O   O30       1.0  0.20732  0.34725  0.90267  1.0000 -0.57253449
O   O31       1.0  0.77708  0.06797  0.65080  1.0000 -0.5570421003
O   O32       1.0  0.93203  0.70911  0.31747  1.0000 -0.5570421003
O   O33       1.0  0.29089  0.22292  0.98413  1.0000 -0.5570421003
O   O34       1.0  0.06797  0.77708  0.34920  1.0000 -0.5570421003
O   O35       1.0  0.70911  0.93203  0.68253  1.0000 -0.5570421003
O   O36       1.0  0.22292  0.29089  0.01587  1.0000 -0.5570421003
