# DDEC6 charges by PACMAN v1.1 (https://github.com/mtap-research/PACMAN-charge/)
data_2012[Zn][rob]3[ASR]1
_chemical_formula_sum              "Zn8 H96 C152 N8 O40"
_cell_length_a       11.0644
_cell_length_b       16.7758
_cell_length_c       22.4317
_cell_angle_alpha    90
_cell_angle_beta     90
_cell_angle_gamma    90

_symmetry_space_group_name_H-M    "P 1"
_symmetry_Int_Tables_number       1

loop_
  _symmetry_equiv_pos_as_xyz
  'x, y, z'

loop_
  _atom_site_type_symbol
  _atom_site_label
  _atom_site_symmetry_multiplicity
  _atom_site_fract_x
  _atom_site_fract_y
  _atom_site_fract_z
  _atom_site_occupancy
  _atom_site_charge
Zn  Zn1       1.0  0.90626  0.94097  0.49124  1.0000 0.816032269
Zn  Zn2       1.0  0.09374  0.55903  0.49124  1.0000 0.816032269
Zn  Zn3       1.0  0.09374  0.44097  0.00876  1.0000 0.816032269
Zn  Zn4       1.0  0.90626  0.05903  0.00876  1.0000 0.816032269
Zn  Zn5       1.0  0.09374  0.05903  0.50876  1.0000 0.816032269
Zn  Zn6       1.0  0.90626  0.44097  0.50876  1.0000 0.816032269
Zn  Zn7       1.0  0.90626  0.55903  0.99124  1.0000 0.816032269
Zn  Zn8       1.0  0.09374  0.94097  0.99124  1.0000 0.816032269
H   H1        1.0  0.67030  0.69730  0.43670  1.0000 0.1398246699
H   H2        1.0  0.32970  0.80270  0.43670  1.0000 0.1398246699
H   H3        1.0  0.32970  0.19730  0.06330  1.0000 0.1398246699
H   H4        1.0  0.67030  0.30270  0.06330  1.0000 0.1398246699
H   H5        1.0  0.32970  0.30270  0.56330  1.0000 0.1398246699
H   H6        1.0  0.67030  0.19730  0.56330  1.0000 0.1398246699
H   H7        1.0  0.67030  0.80270  0.93670  1.0000 0.1398246699
H   H8        1.0  0.32970  0.69730  0.93670  1.0000 0.1398246699
H   H9        1.0  0.58050  0.43000  0.22130  1.0000 0.1398246699
H   H10       1.0  0.41950  0.07000  0.22130  1.0000 0.1398246699
H   H11       1.0  0.41950  0.93000  0.27870  1.0000 0.1398246699
H   H12       1.0  0.58050  0.57000  0.27870  1.0000 0.1398246699
H   H13       1.0  0.41950  0.57000  0.77870  1.0000 0.1398246699
H   H14       1.0  0.58050  0.93000  0.77870  1.0000 0.1398246699
H   H15       1.0  0.58050  0.07000  0.72130  1.0000 0.1398246699
H   H16       1.0  0.41950  0.43000  0.72130  1.0000 0.1398246699
H   H17       1.0  0.80220  0.34590  0.36240  1.0000 0.1398246699
H   H18       1.0  0.19780  0.15410  0.36240  1.0000 0.1398246699
H   H19       1.0  0.19780  0.84590  0.13760  1.0000 0.1398246699
H   H20       1.0  0.80220  0.65410  0.13760  1.0000 0.1398246699
H   H21       1.0  0.19780  0.65410  0.63760  1.0000 0.1398246699
H   H22       1.0  0.80220  0.84590  0.63760  1.0000 0.1398246699
H   H23       1.0  0.80220  0.15410  0.86240  1.0000 0.1398246699
H   H24       1.0  0.19780  0.34590  0.86240  1.0000 0.1398246699
H   H25       1.0  0.84180  0.26780  0.24210  1.0000 0.1330710565
H   H26       1.0  0.15820  0.23220  0.24210  1.0000 0.1330710565
H   H27       1.0  0.15820  0.76780  0.25790  1.0000 0.1330710565
H   H28       1.0  0.84180  0.73220  0.25790  1.0000 0.1330710565
H   H29       1.0  0.15820  0.73220  0.75790  1.0000 0.1330710565
H   H30       1.0  0.84180  0.76780  0.75790  1.0000 0.1330710565
H   H31       1.0  0.84180  0.23220  0.74210  1.0000 0.1330710565
H   H32       1.0  0.15820  0.26780  0.74210  1.0000 0.1330710565
H   H33       1.0  0.58850  0.17020  0.30580  1.0000 0.1398246699
H   H34       1.0  0.41150  0.32980  0.30580  1.0000 0.1398246699
H   H35       1.0  0.41150  0.67020  0.19420  1.0000 0.1398246699
H   H36       1.0  0.58850  0.82980  0.19420  1.0000 0.1398246699
H   H37       1.0  0.41150  0.82980  0.69420  1.0000 0.1398246699
H   H38       1.0  0.58850  0.67020  0.69420  1.0000 0.1398246699
H   H39       1.0  0.58850  0.32980  0.80580  1.0000 0.1398246699
H   H40       1.0  0.41150  0.17020  0.80580  1.0000 0.1398246699
H   H41       1.0  0.94450  0.32250  0.16260  1.0000 0.1178228342
H   H42       1.0  0.05550  0.17750  0.16260  1.0000 0.1178228342
H   H43       1.0  0.05550  0.82250  0.33740  1.0000 0.1178228342
H   H44       1.0  0.94450  0.67750  0.33740  1.0000 0.1178228342
H   H45       1.0  0.05550  0.67750  0.83740  1.0000 0.1178228342
H   H46       1.0  0.94450  0.82250  0.83740  1.0000 0.1178228342
H   H47       1.0  0.94450  0.17750  0.66260  1.0000 0.1178228342
H   H48       1.0  0.05550  0.32250  0.66260  1.0000 0.1178228342
H   H49       1.0  0.47630  0.87280  0.50880  1.0000 0.1398246699
H   H50       1.0  0.52370  0.62720  0.50880  1.0000 0.1398246699
H   H51       1.0  0.52370  0.37280  0.99120  1.0000 0.1398246699
H   H52       1.0  0.47630  0.12720  0.99120  1.0000 0.1398246699
H   H53       1.0  0.52370  0.12720  0.49120  1.0000 0.1398246699
H   H54       1.0  0.47630  0.37280  0.49120  1.0000 0.1398246699
H   H55       1.0  0.47630  0.62720  0.00880  1.0000 0.1398246699
H   H56       1.0  0.52370  0.87280  0.00880  1.0000 0.1398246699
H   H57       1.0  0.64970  0.94570  0.51520  1.0000 0.1103731942
H   H58       1.0  0.35030  0.55430  0.51520  1.0000 0.1103731942
H   H59       1.0  0.35030  0.44570  0.98480  1.0000 0.1103731942
H   H60       1.0  0.64970  0.05430  0.98480  1.0000 0.1103731942
H   H61       1.0  0.35030  0.05430  0.48480  1.0000 0.1103731942
H   H62       1.0  0.64970  0.44570  0.48480  1.0000 0.1103731942
H   H63       1.0  0.64970  0.55430  0.01520  1.0000 0.1103731942
H   H64       1.0  0.35030  0.94570  0.01520  1.0000 0.1103731942
H   H65       1.0  0.68620  0.08270  0.37050  1.0000 0.1178228342
H   H66       1.0  0.31380  0.41730  0.37050  1.0000 0.1178228342
H   H67       1.0  0.31380  0.58270  0.12950  1.0000 0.1178228342
H   H68       1.0  0.68620  0.91730  0.12950  1.0000 0.1178228342
H   H69       1.0  0.31380  0.91730  0.62950  1.0000 0.1178228342
H   H70       1.0  0.68620  0.58270  0.62950  1.0000 0.1178228342
H   H71       1.0  0.68620  0.41730  0.87050  1.0000 0.1178228342
H   H72       1.0  0.31380  0.08270  0.87050  1.0000 0.1178228342
H   H73       1.0  0.68320  0.48420  0.14230  1.0000 0.1178228342
H   H74       1.0  0.31680  0.01580  0.14230  1.0000 0.1178228342
H   H75       1.0  0.31680  0.98420  0.35770  1.0000 0.1178228342
H   H76       1.0  0.68320  0.51580  0.35770  1.0000 0.1178228342
H   H77       1.0  0.31680  0.51580  0.85770  1.0000 0.1178228342
H   H78       1.0  0.68320  0.98420  0.85770  1.0000 0.1178228342
H   H79       1.0  0.68320  0.01580  0.64230  1.0000 0.1178228342
H   H80       1.0  0.31680  0.48420  0.64230  1.0000 0.1178228342
H   H81       1.0  0.83980  0.77710  0.44450  1.0000 0.1178228342
H   H82       1.0  0.16020  0.72290  0.44450  1.0000 0.1178228342
H   H83       1.0  0.16020  0.27710  0.05550  1.0000 0.1178228342
H   H84       1.0  0.83980  0.22290  0.05550  1.0000 0.1178228342
H   H85       1.0  0.16020  0.22290  0.55550  1.0000 0.1178228342
H   H86       1.0  0.83980  0.27710  0.55550  1.0000 0.1178228342
H   H87       1.0  0.83980  0.72290  0.94450  1.0000 0.1178228342
H   H88       1.0  0.16020  0.77710  0.94450  1.0000 0.1178228342
H   H89       1.0  0.89990  0.25930  0.42550  1.0000 0.1178228342
H   H90       1.0  0.10010  0.24070  0.42550  1.0000 0.1178228342
H   H91       1.0  0.10010  0.75930  0.07450  1.0000 0.1178228342
H   H92       1.0  0.89990  0.74070  0.07450  1.0000 0.1178228342
H   H93       1.0  0.10010  0.74070  0.57450  1.0000 0.1178228342
H   H94       1.0  0.89990  0.75930  0.57450  1.0000 0.1178228342
H   H95       1.0  0.89990  0.24070  0.92550  1.0000 0.1178228342
H   H96       1.0  0.10010  0.25930  0.92550  1.0000 0.1178228342
C   C1        1.0  0.66380  0.74810  0.45310  1.0000 -0.1811747096
C   C2        1.0  0.33620  0.75190  0.45310  1.0000 -0.1811747096
C   C3        1.0  0.33620  0.24810  0.04690  1.0000 -0.1811747096
C   C4        1.0  0.66380  0.25190  0.04690  1.0000 -0.1811747096
C   C5        1.0  0.33620  0.25190  0.54690  1.0000 -0.1811747096
C   C6        1.0  0.66380  0.24810  0.54690  1.0000 -0.1811747096
C   C7        1.0  0.66380  0.75190  0.95310  1.0000 -0.1811747096
C   C8        1.0  0.33620  0.74810  0.95310  1.0000 -0.1811747096
C   C9        1.0  0.65400  0.40820  0.20950  1.0000 -0.2074333663
C   C10       1.0  0.34600  0.09180  0.20950  1.0000 -0.2074333663
C   C11       1.0  0.34600  0.90820  0.29050  1.0000 -0.2074333663
C   C12       1.0  0.65400  0.59180  0.29050  1.0000 -0.2074333663
C   C13       1.0  0.34600  0.59180  0.79050  1.0000 -0.2074333663
C   C14       1.0  0.65400  0.90820  0.79050  1.0000 -0.2074333663
C   C15       1.0  0.65400  0.09180  0.70950  1.0000 -0.2074333663
C   C16       1.0  0.34600  0.40820  0.70950  1.0000 -0.2074333663
C   C17       1.0  0.78070  0.29230  0.36310  1.0000 -0.1969749249
C   C18       1.0  0.21930  0.20770  0.36310  1.0000 -0.1969749249
C   C19       1.0  0.21930  0.79230  0.13690  1.0000 -0.1969749249
C   C20       1.0  0.78070  0.70770  0.13690  1.0000 -0.1969749249
C   C21       1.0  0.21930  0.70770  0.63690  1.0000 -0.1969749249
C   C22       1.0  0.78070  0.79230  0.63690  1.0000 -0.1969749249
C   C23       1.0  0.78070  0.20770  0.86310  1.0000 -0.1969749249
C   C24       1.0  0.21930  0.29230  0.86310  1.0000 -0.1969749249
C   C25       1.0  0.81010  0.31140  0.22180  1.0000 -0.2190553389
C   C26       1.0  0.18990  0.18860  0.22180  1.0000 -0.2190553389
C   C27       1.0  0.18990  0.81140  0.27820  1.0000 -0.2190553389
C   C28       1.0  0.81010  0.68860  0.27820  1.0000 -0.2190553389
C   C29       1.0  0.18990  0.68860  0.77820  1.0000 -0.2190553389
C   C30       1.0  0.81010  0.81140  0.77820  1.0000 -0.2190553389
C   C31       1.0  0.81010  0.18860  0.72180  1.0000 -0.2190553389
C   C32       1.0  0.18990  0.31140  0.72180  1.0000 -0.2190553389
C   C33       1.0  0.65270  0.18760  0.32930  1.0000 -0.1969749249
C   C34       1.0  0.34730  0.31240  0.32930  1.0000 -0.1969749249
C   C35       1.0  0.34730  0.68760  0.17070  1.0000 -0.1969749249
C   C36       1.0  0.65270  0.81240  0.17070  1.0000 -0.1969749249
C   C37       1.0  0.34730  0.81240  0.67070  1.0000 -0.1969749249
C   C38       1.0  0.65270  0.68760  0.67070  1.0000 -0.1969749249
C   C39       1.0  0.65270  0.31240  0.82930  1.0000 -0.1969749249
C   C40       1.0  0.34730  0.18760  0.82930  1.0000 -0.1969749249
C   C41       1.0  0.89530  0.44490  0.09390  1.0000 0.5719168791
C   C42       1.0  0.10470  0.05510  0.09390  1.0000 0.5719168791
C   C43       1.0  0.10470  0.94490  0.40610  1.0000 0.5719168791
C   C44       1.0  0.89530  0.55510  0.40610  1.0000 0.5719168791
C   C45       1.0  0.10470  0.55510  0.90610  1.0000 0.5719168791
C   C46       1.0  0.89530  0.94490  0.90610  1.0000 0.5719168791
C   C47       1.0  0.89530  0.05510  0.59390  1.0000 0.5719168791
C   C48       1.0  0.10470  0.44490  0.59390  1.0000 0.5719168791
C   C49       1.0  0.70040  0.34420  0.23900  1.0000 0.2564642773
C   C50       1.0  0.29960  0.15580  0.23900  1.0000 0.2564642773
C   C51       1.0  0.29960  0.84420  0.26100  1.0000 0.2564642773
C   C52       1.0  0.70040  0.65580  0.26100  1.0000 0.2564642773
C   C53       1.0  0.29960  0.65580  0.76100  1.0000 0.2564642773
C   C54       1.0  0.70040  0.84420  0.76100  1.0000 0.2564642773
C   C55       1.0  0.70040  0.15580  0.73900  1.0000 0.2564642773
C   C56       1.0  0.29960  0.34420  0.73900  1.0000 0.2564642773
C   C57       1.0  0.87110  0.34450  0.17450  1.0000 -0.0910809659
C   C58       1.0  0.12890  0.15550  0.17450  1.0000 -0.0910809659
C   C59       1.0  0.12890  0.84450  0.32550  1.0000 -0.0910809659
C   C60       1.0  0.87110  0.65550  0.32550  1.0000 -0.0910809659
C   C61       1.0  0.12890  0.65550  0.82550  1.0000 -0.0910809659
C   C62       1.0  0.87110  0.84450  0.82550  1.0000 -0.0910809659
C   C63       1.0  0.87110  0.15550  0.67450  1.0000 -0.0910809659
C   C64       1.0  0.12890  0.34450  0.67450  1.0000 -0.0910809659
C   C65       1.0  0.54920  0.85150  0.49570  1.0000 -0.1892220053
C   C66       1.0  0.45080  0.64850  0.49570  1.0000 -0.1892220053
C   C67       1.0  0.45080  0.35150  0.00430  1.0000 -0.1892220053
C   C68       1.0  0.54920  0.14850  0.00430  1.0000 -0.1892220053
C   C69       1.0  0.45080  0.14850  0.50430  1.0000 -0.1892220053
C   C70       1.0  0.54920  0.35150  0.50430  1.0000 -0.1892220053
C   C71       1.0  0.54920  0.64850  0.99570  1.0000 -0.1892220053
C   C72       1.0  0.45080  0.85150  0.99570  1.0000 -0.1892220053
C   C73       1.0  0.65370  0.89480  0.49880  1.0000 0.087638867
C   C74       1.0  0.34630  0.60520  0.49880  1.0000 0.087638867
C   C75       1.0  0.34630  0.39480  0.00120  1.0000 0.087638867
C   C76       1.0  0.65370  0.10520  0.00120  1.0000 0.087638867
C   C77       1.0  0.34630  0.10520  0.50120  1.0000 0.087638867
C   C78       1.0  0.65370  0.39480  0.50120  1.0000 0.087638867
C   C79       1.0  0.65370  0.60520  0.99880  1.0000 0.087638867
C   C80       1.0  0.34630  0.89480  0.99880  1.0000 0.087638867
C   C81       1.0  0.71150  0.13550  0.36800  1.0000 -0.098054207
C   C82       1.0  0.28850  0.36450  0.36800  1.0000 -0.098054207
C   C83       1.0  0.28850  0.63550  0.13200  1.0000 -0.098054207
C   C84       1.0  0.71150  0.86450  0.13200  1.0000 -0.098054207
C   C85       1.0  0.28850  0.86450  0.63200  1.0000 -0.098054207
C   C86       1.0  0.71150  0.63550  0.63200  1.0000 -0.098054207
C   C87       1.0  0.71150  0.36450  0.86800  1.0000 -0.098054207
C   C88       1.0  0.28850  0.13550  0.86800  1.0000 -0.098054207
C   C89       1.0  0.87610  0.10300  0.44030  1.0000 0.5719168791
C   C90       1.0  0.12390  0.39700  0.44030  1.0000 0.5719168791
C   C91       1.0  0.12390  0.60300  0.05970  1.0000 0.5719168791
C   C92       1.0  0.87610  0.89700  0.05970  1.0000 0.5719168791
C   C93       1.0  0.12390  0.89700  0.55970  1.0000 0.5719168791
C   C94       1.0  0.87610  0.60300  0.55970  1.0000 0.5719168791
C   C95       1.0  0.87610  0.39700  0.94030  1.0000 0.5719168791
C   C96       1.0  0.12390  0.10300  0.94030  1.0000 0.5719168791
C   C97       1.0  0.69130  0.26480  0.32650  1.0000 0.2281017759
C   C98       1.0  0.30870  0.23520  0.32650  1.0000 0.2281017759
C   C99       1.0  0.30870  0.76480  0.17350  1.0000 0.2281017759
C   C100      1.0  0.69130  0.73520  0.17350  1.0000 0.2281017759
C   C101      1.0  0.30870  0.73520  0.67350  1.0000 0.2281017759
C   C102      1.0  0.69130  0.76480  0.67350  1.0000 0.2281017759
C   C103      1.0  0.69130  0.23520  0.82650  1.0000 0.2281017759
C   C104      1.0  0.30870  0.26480  0.82650  1.0000 0.2281017759
C   C105      1.0  0.82550  0.40970  0.14410  1.0000 -0.059409543
C   C106      1.0  0.17450  0.09030  0.14410  1.0000 -0.059409543
C   C107      1.0  0.17450  0.90970  0.35590  1.0000 -0.059409543
C   C108      1.0  0.82550  0.59030  0.35590  1.0000 -0.059409543
C   C109      1.0  0.17450  0.59030  0.85590  1.0000 -0.059409543
C   C110      1.0  0.82550  0.90970  0.85590  1.0000 -0.059409543
C   C111      1.0  0.82550  0.09030  0.64410  1.0000 -0.059409543
C   C112      1.0  0.17450  0.40970  0.64410  1.0000 -0.059409543
C   C113      1.0  0.80630  0.16100  0.40250  1.0000 -0.0441015839
C   C114      1.0  0.19370  0.33900  0.40250  1.0000 -0.0441015839
C   C115      1.0  0.19370  0.66100  0.09750  1.0000 -0.0441015839
C   C116      1.0  0.80630  0.83900  0.09750  1.0000 -0.0441015839
C   C117      1.0  0.19370  0.83900  0.59750  1.0000 -0.0441015839
C   C118      1.0  0.80630  0.66100  0.59750  1.0000 -0.0441015839
C   C119      1.0  0.80630  0.33900  0.90250  1.0000 -0.0441015839
C   C120      1.0  0.19370  0.16100  0.90250  1.0000 -0.0441015839
C   C121      1.0  0.71570  0.44070  0.16230  1.0000 -0.0910809659
C   C122      1.0  0.28430  0.05930  0.16230  1.0000 -0.0910809659
C   C123      1.0  0.28430  0.94070  0.33770  1.0000 -0.0910809659
C   C124      1.0  0.71570  0.55930  0.33770  1.0000 -0.0910809659
C   C125      1.0  0.28430  0.55930  0.83770  1.0000 -0.0910809659
C   C126      1.0  0.71570  0.94070  0.83770  1.0000 -0.0910809659
C   C127      1.0  0.71570  0.05930  0.66230  1.0000 -0.0910809659
C   C128      1.0  0.28430  0.44070  0.66230  1.0000 -0.0910809659
C   C129      1.0  0.55470  0.77490  0.47250  1.0000 0.1103731942
C   C130      1.0  0.44530  0.72510  0.47250  1.0000 0.1103731942
C   C131      1.0  0.44530  0.27490  0.02750  1.0000 0.1103731942
C   C132      1.0  0.55470  0.22510  0.02750  1.0000 0.1103731942
C   C133      1.0  0.44530  0.22510  0.52750  1.0000 0.1103731942
C   C134      1.0  0.55470  0.27490  0.52750  1.0000 0.1103731942
C   C135      1.0  0.55470  0.72510  0.97250  1.0000 0.1103731942
C   C136      1.0  0.44530  0.77490  0.97250  1.0000 0.1103731942
C   C137      1.0  0.76570  0.79640  0.45760  1.0000 0.087638867
C   C138      1.0  0.23430  0.70360  0.45760  1.0000 0.087638867
C   C139      1.0  0.23430  0.29640  0.04240  1.0000 0.087638867
C   C140      1.0  0.76570  0.20360  0.04240  1.0000 0.087638867
C   C141      1.0  0.23430  0.20360  0.54240  1.0000 0.087638867
C   C142      1.0  0.76570  0.29640  0.54240  1.0000 0.087638867
C   C143      1.0  0.76570  0.70360  0.95760  1.0000 0.087638867
C   C144      1.0  0.23430  0.79640  0.95760  1.0000 0.087638867
C   C145      1.0  0.83860  0.24070  0.40080  1.0000 -0.0910809659
C   C146      1.0  0.16140  0.25930  0.40080  1.0000 -0.0910809659
C   C147      1.0  0.16140  0.74070  0.09920  1.0000 -0.0910809659
C   C148      1.0  0.83860  0.75930  0.09920  1.0000 -0.0910809659
C   C149      1.0  0.16140  0.75930  0.59920  1.0000 -0.0910809659
C   C150      1.0  0.83860  0.74070  0.59920  1.0000 -0.0910809659
C   C151      1.0  0.83860  0.25930  0.90080  1.0000 -0.0910809659
C   C152      1.0  0.16140  0.24070  0.90080  1.0000 -0.0910809659
N   N1        1.0  0.75980  0.86930  0.48010  1.0000 -0.2074333663
N   N2        1.0  0.24020  0.63070  0.48010  1.0000 -0.2074333663
N   N3        1.0  0.24020  0.36930  0.01990  1.0000 -0.2074333663
N   N4        1.0  0.75980  0.13070  0.01990  1.0000 -0.2074333663
N   N5        1.0  0.24020  0.13070  0.51990  1.0000 -0.2074333663
N   N6        1.0  0.75980  0.36930  0.51990  1.0000 -0.2074333663
N   N7        1.0  0.75980  0.63070  0.98010  1.0000 -0.2074333663
N   N8        1.0  0.24020  0.86930  0.98010  1.0000 -0.2074333663
O   O1        1.0  0.85000  0.50450  0.06780  1.0000 -0.5533414251
O   O2        1.0  0.15000  0.99550  0.06780  1.0000 -0.5533414251
O   O3        1.0  0.15000  0.00450  0.43220  1.0000 -0.5533414251
O   O4        1.0  0.85000  0.49550  0.43220  1.0000 -0.5533414251
O   O5        1.0  0.15000  0.49550  0.93220  1.0000 -0.5533414251
O   O6        1.0  0.85000  0.00450  0.93220  1.0000 -0.5533414251
O   O7        1.0  0.85000  0.99550  0.56780  1.0000 -0.5533414251
O   O8        1.0  0.15000  0.50450  0.56780  1.0000 -0.5533414251
O   O9        1.0  0.83300  0.03480  0.44670  1.0000 -0.539339631
O   O10       1.0  0.16700  0.46520  0.44670  1.0000 -0.539339631
O   O11       1.0  0.16700  0.53480  0.05330  1.0000 -0.539339631
O   O12       1.0  0.83300  0.96520  0.05330  1.0000 -0.539339631
O   O13       1.0  0.16700  0.96520  0.55330  1.0000 -0.539339631
O   O14       1.0  0.83300  0.53480  0.55330  1.0000 -0.539339631
O   O15       1.0  0.83300  0.46520  0.94670  1.0000 -0.539339631
O   O16       1.0  0.16700  0.03480  0.94670  1.0000 -0.539339631
O   O17       1.0  0.99390  0.41360  0.08106  1.0000 -0.5273138723
O   O18       1.0  0.00610  0.08640  0.08106  1.0000 -0.5273138723
O   O19       1.0  0.00610  0.91360  0.41894  1.0000 -0.5273138723
O   O20       1.0  0.99390  0.58640  0.41894  1.0000 -0.5273138723
O   O21       1.0  0.00610  0.58640  0.91894  1.0000 -0.5273138723
O   O22       1.0  0.99390  0.91360  0.91894  1.0000 -0.5273138723
O   O23       1.0  0.99390  0.08640  0.58106  1.0000 -0.5273138723
O   O24       1.0  0.00610  0.41360  0.58106  1.0000 -0.5273138723
O   O25       1.0  0.97480  0.12640  0.46142  1.0000 -0.539339631
O   O26       1.0  0.02520  0.37360  0.46142  1.0000 -0.539339631
O   O27       1.0  0.02520  0.62640  0.03858  1.0000 -0.539339631
O   O28       1.0  0.97480  0.87360  0.03858  1.0000 -0.539339631
O   O29       1.0  0.02520  0.87360  0.53858  1.0000 -0.539339631
O   O30       1.0  0.97480  0.62640  0.53858  1.0000 -0.539339631
O   O31       1.0  0.97480  0.37360  0.96142  1.0000 -0.539339631
O   O32       1.0  0.02520  0.12640  0.96142  1.0000 -0.539339631
O   O33       1.0  0.63370  0.31530  0.28610  1.0000 -0.2293533525
O   O34       1.0  0.36630  0.18470  0.28610  1.0000 -0.2293533525
O   O35       1.0  0.36630  0.81530  0.21390  1.0000 -0.2293533525
O   O36       1.0  0.63370  0.68470  0.21390  1.0000 -0.2293533525
O   O37       1.0  0.36630  0.68470  0.71390  1.0000 -0.2293533525
O   O38       1.0  0.63370  0.81530  0.71390  1.0000 -0.2293533525
O   O39       1.0  0.63370  0.18470  0.78610  1.0000 -0.2293533525
O   O40       1.0  0.36630  0.31530  0.78610  1.0000 -0.2293533525
