# DDEC6 charges by PACMAN v1.1 (https://github.com/mtap-research/PACMAN-charge/)
data_2012[Mn][pts]3[ASR]1
_chemical_formula_sum              "Mn6 H80 C104 O38"
_cell_length_a       14.1908
_cell_length_b       14.1908
_cell_length_c       34.2804
_cell_angle_alpha    77.7855
_cell_angle_beta     102.214
_cell_angle_gamma    137.124

_symmetry_space_group_name_H-M    "P 1"
_symmetry_Int_Tables_number       1

loop_
  _symmetry_equiv_pos_as_xyz
  'x, y, z'

loop_
  _atom_site_type_symbol
  _atom_site_label
  _atom_site_symmetry_multiplicity
  _atom_site_fract_x
  _atom_site_fract_y
  _atom_site_fract_z
  _atom_site_occupancy
  _atom_site_charge
Mn  Mn1       1.0  0.60038  0.93562  0.83793  1.0000 1.0954967365
Mn  Mn2       1.0  0.06438  0.39962  0.33793  1.0000 1.0935337171
Mn  Mn3       1.0  0.97477  0.17837  0.85526  1.0000 0.9928326234
Mn  Mn4       1.0  0.82163  0.02523  0.35526  1.0000 0.9928326234
Mn  Mn5       1.0  0.22518  0.69360  0.81838  1.0000 0.9928326234
Mn  Mn6       1.0  0.30640  0.77482  0.31838  1.0000 0.9928326234
H   H1        1.0  0.26090  0.34230  0.11730  1.0000 0.0988156447
H   H2        1.0  0.65770  0.73910  0.61730  1.0000 0.0988156447
H   H3        1.0  0.34150  0.36410  0.15960  1.0000 0.0988156447
H   H4        1.0  0.63590  0.65850  0.65960  1.0000 0.0988156447
H   H5        1.0  0.53010  0.63890  0.08260  1.0000 0.0988156447
H   H6        1.0  0.36110  0.46990  0.58260  1.0000 0.0988156447
H   H7        1.0  0.57820  0.58920  0.06360  1.0000 0.0988156447
H   H8        1.0  0.41080  0.42180  0.56360  1.0000 0.0988156447
H   H9        1.0  0.40960  0.27700  0.12680  1.0000 0.0988156447
H   H10       1.0  0.72300  0.59040  0.62680  1.0000 0.0988156447
H   H11       1.0  0.34450  0.28390  0.08460  1.0000 0.0917514562
H   H12       1.0  0.71610  0.65550  0.58460  1.0000 0.0917514562
H   H13       1.0  0.67810  0.57970  0.12920  1.0000 0.0988156447
H   H14       1.0  0.42030  0.32190  0.62920  1.0000 0.0988156447
H   H15       1.0  0.62500  0.62080  0.15020  1.0000 0.0988156447
H   H16       1.0  0.37920  0.37500  0.65020  1.0000 0.0988156447
H   H17       1.0  0.21460  0.34200  0.19470  1.0000 0.1211607183
H   H18       1.0  0.65800  0.78540  0.69470  1.0000 0.1211607183
H   H19       1.0  0.18340  0.38980  0.24880  1.0000 0.1315455222
H   H20       1.0  0.61020  0.81660  0.74880  1.0000 0.1315455222
H   H21       1.0  0.44900  0.79000  0.20910  1.0000 0.1107129603
H   H22       1.0  0.21000  0.55100  0.70910  1.0000 0.1107129603
H   H23       1.0  0.47880  0.74520  0.15420  1.0000 0.1315455222
H   H24       1.0  0.25480  0.52120  0.65420  1.0000 0.1315455222
H   H25       1.0  0.57850  0.73870  0.01610  1.0000 0.1315455222
H   H26       1.0  0.26130  0.42150  0.51610  1.0000 0.1315455222
H   H27       1.0  0.56360  0.82320  0.95120  1.0000 0.1211607183
H   H28       1.0  0.17680  0.43640  0.45120  1.0000 0.1211607183
H   H29       1.0  0.18240  0.44440  0.92960  1.0000 0.1211607183
H   H30       1.0  0.55560  0.81760  0.42960  1.0000 0.1211607183
H   H31       1.0  0.19280  0.36380  0.99430  1.0000 0.1315455222
H   H32       1.0  0.63620  0.80720  0.49430  1.0000 0.1315455222
H   H33       1.0  0.55730  0.28930  0.22710  1.0000 0.1377651095
H   H34       1.0  0.71070  0.44270  0.72710  1.0000 0.1377651095
H   H35       1.0  0.73000  0.33200  0.27240  1.0000 0.1211607183
H   H36       1.0  0.66800  0.27000  0.77240  1.0000 0.1211607183
H   H37       1.0  0.00890  0.73030  0.22780  1.0000 0.1211607183
H   H38       1.0  0.26970  0.99110  0.72780  1.0000 0.1211607183
H   H39       1.0  0.83770  0.68770  0.18170  1.0000 0.1211607183
H   H40       1.0  0.31230  0.16230  0.68170  1.0000 0.1211607183
H   H41       1.0  0.81720  0.51000  0.03140  1.0000 0.0988156447
H   H42       1.0  0.49000  0.18280  0.53140  1.0000 0.0988156447
H   H43       1.0  0.75510  0.54130  0.05270  1.0000 0.0988156447
H   H44       1.0  0.45870  0.24490  0.55270  1.0000 0.0988156447
H   H45       1.0  0.56040  0.22140  0.01410  1.0000 0.0988156447
H   H46       1.0  0.77860  0.43960  0.51410  1.0000 0.0988156447
H   H47       1.0  0.55360  0.13960  0.05450  1.0000 0.0988156447
H   H48       1.0  0.86040  0.44640  0.55450  1.0000 0.0988156447
H   H49       1.0  0.75550  0.42130  0.11640  1.0000 0.0988156447
H   H50       1.0  0.57870  0.24450  0.61640  1.0000 0.0988156447
H   H51       1.0  0.82350  0.39630  0.09550  1.0000 0.0988156447
H   H52       1.0  0.60370  0.17650  0.59550  1.0000 0.0988156447
H   H53       1.0  0.46730  0.19670  0.09180  1.0000 0.0917514562
H   H54       1.0  0.80330  0.53270  0.59180  1.0000 0.0917514562
H   H55       1.0  0.45080  0.25040  0.04850  1.0000 0.0988156447
H   H56       1.0  0.74960  0.54920  0.54850  1.0000 0.0988156447
H   H57       1.0  0.88490  0.71710  0.99770  1.0000 0.1211607183
H   H58       1.0  0.28290  0.11510  0.49770  1.0000 0.1211607183
H   H59       1.0  0.92960  0.88560  0.94960  1.0000 0.1211607183
H   H60       1.0  0.11440  0.07040  0.44960  1.0000 0.1211607183
H   H61       1.0  0.53700  0.60460  0.90200  1.0000 0.1211607183
H   H62       1.0  0.39540  0.46300  0.40200  1.0000 0.1211607183
H   H63       1.0  0.49480  0.43500  0.94700  1.0000 0.1377651095
H   H64       1.0  0.56500  0.50520  0.44700  1.0000 0.1377651095
H   H65       1.0  0.55210  0.09610  0.98100  1.0000 0.1211607183
H   H66       1.0  0.90390  0.44790  0.48100  1.0000 0.1211607183
H   H67       1.0  0.59250  0.05690  0.92670  1.0000 0.1315455222
H   H68       1.0  0.94310  0.40750  0.42670  1.0000 0.1315455222
H   H69       1.0  0.99910  0.34490  0.96040  1.0000 0.1107129603
H   H70       1.0  0.65510  0.00090  0.46040  1.0000 0.1107129603
H   H71       1.0  0.95940  0.39160  0.01200  1.0000 0.1315455222
H   H72       1.0  0.60840  0.04060  0.51200  1.0000 0.1315455222
H   H73       1.0  0.90480  0.41520  0.16550  1.0000 0.1315455222
H   H74       1.0  0.58480  0.09520  0.66550  1.0000 0.1315455222
H   H75       1.0  0.96900  0.37980  0.22960  1.0000 0.1211607183
H   H76       1.0  0.62020  0.03100  0.72960  1.0000 0.1211607183
H   H77       1.0  0.58310  0.99190  0.23850  1.0000 0.1211607183
H   H78       1.0  0.00810  0.41690  0.73850  1.0000 0.1211607183
H   H79       1.0  0.52270  0.02210  0.17250  1.0000 0.1315455222
H   H80       1.0  0.97790  0.47730  0.67250  1.0000 0.1315455222
C   C1        1.0  0.46900  0.46140  0.11299  1.0000 0.0632028095
C   C2        1.0  0.53860  0.53100  0.61299  1.0000 0.0632028095
C   C3        1.0  0.34820  0.40900  0.13319  1.0000 -0.0784787401
C   C4        1.0  0.59100  0.65180  0.63319  1.0000 -0.0784787401
C   C5        1.0  0.50250  0.55810  0.07575  1.0000 -0.0901626212
C   C6        1.0  0.44190  0.49750  0.57575  1.0000 -0.0901626212
C   C7        1.0  0.42720  0.33520  0.10266  1.0000 -0.0978453495
C   C8        1.0  0.66480  0.57280  0.60266  1.0000 -0.0978453495
C   C9        1.0  0.60090  0.54350  0.14195  1.0000 -0.0901626212
C   C10       1.0  0.45650  0.39910  0.64195  1.0000 -0.0901626212
C   C11       1.0  0.35130  0.53910  0.16961  1.0000 0.2494144588
C   C12       1.0  0.46090  0.64870  0.66961  1.0000 0.2494144588
C   C13       1.0  0.26220  0.43240  0.19752  1.0000 -0.2472635936
C   C14       1.0  0.56760  0.73780  0.69752  1.0000 -0.2472635936
C   C15       1.0  0.24420  0.46160  0.23009  1.0000 -0.0706584316
C   C16       1.0  0.53840  0.75580  0.73009  1.0000 -0.0706584316
C   C17       1.0  0.31520  0.59480  0.23477  1.0000 -0.0486710426
C   C18       1.0  0.40520  0.68480  0.73477  1.0000 -0.0486710426
C   C19       1.0  0.40200  0.69980  0.20625  1.0000 -0.0901626212
C   C20       1.0  0.30020  0.59800  0.70625  1.0000 -0.0901626212
C   C21       1.0  0.42070  0.67370  0.17341  1.0000 -0.2216779683
C   C22       1.0  0.32630  0.57930  0.67341  1.0000 -0.2216779683
C   C23       1.0  0.29990  0.62890  0.27054  1.0000 0.5904390538
C   C24       1.0  0.37110  0.70010  0.77054  1.0000 0.5904390538
C   C25       1.0  0.38730  0.54410  0.01128  1.0000 0.2494144588
C   C26       1.0  0.45590  0.61270  0.51128  1.0000 0.2494144588
C   C27       1.0  0.49860  0.68040  0.99891  1.0000 -0.2472635936
C   C28       1.0  0.31960  0.50140  0.49891  1.0000 -0.2472635936
C   C29       1.0  0.48970  0.73030  0.95971  1.0000 -0.0706584316
C   C30       1.0  0.26970  0.51030  0.45971  1.0000 -0.0706584316
C   C31       1.0  0.37300  0.64340  0.93384  1.0000 -0.0486710426
C   C32       1.0  0.35660  0.62700  0.43384  1.0000 -0.0486710426
C   C33       1.0  0.26120  0.50420  0.94691  1.0000 -0.0784787401
C   C34       1.0  0.49580  0.73880  0.44691  1.0000 -0.0784787401
C   C35       1.0  0.26810  0.45590  0.98542  1.0000 -0.2104797103
C   C36       1.0  0.54410  0.73190  0.48542  1.0000 -0.2104797103
C   C37       1.0  0.36127  0.69453  0.89206  1.0000 0.577315472
C   C38       1.0  0.30547  0.63873  0.39206  1.0000 0.577315472
C   C39       1.0  0.68140  0.48580  0.20055  1.0000 0.2403198518
C   C40       1.0  0.51420  0.31860  0.70055  1.0000 0.2403198518
C   C41       1.0  0.64810  0.37790  0.22726  1.0000 -0.2216779683
C   C42       1.0  0.62210  0.35190  0.72726  1.0000 -0.225394629
C   C43       1.0  0.75175  0.40345  0.25425  1.0000 -0.0784787401
C   C44       1.0  0.59655  0.24825  0.75425  1.0000 -0.0784787401
C   C45       1.0  0.88709  0.53471  0.25430  1.0000 -0.0486710426
C   C46       1.0  0.46529  0.11291  0.75430  1.0000 -0.0486710426
C   C47       1.0  0.91850  0.64150  0.22745  1.0000 -0.0784787401
C   C48       1.0  0.35850  0.08150  0.72745  1.0000 -0.0784787401
C   C49       1.0  0.81590  0.61670  0.20008  1.0000 -0.2472635936
C   C50       1.0  0.38330  0.18410  0.70008  1.0000 -0.2472635936
C   C51       1.0  0.00005  0.56155  0.28333  1.0000 0.5904390538
C   C52       1.0  0.43845  0.99995  0.78333  1.0000 0.5904390538
C   C53       1.0  0.64970  0.33550  0.06303  1.0000 0.0651559531
C   C54       1.0  0.66450  0.35030  0.56303  1.0000 0.0651559531
C   C55       1.0  0.73170  0.47410  0.03804  1.0000 -0.0901626212
C   C56       1.0  0.52590  0.26830  0.53804  1.0000 -0.0901626212
C   C57       1.0  0.61110  0.23010  0.03947  1.0000 -0.0901626212
C   C58       1.0  0.76990  0.38890  0.53947  1.0000 -0.0901626212
C   C59       1.0  0.73590  0.35730  0.10128  1.0000 -0.0901626212
C   C60       1.0  0.64270  0.26410  0.60128  1.0000 -0.0901626212
C   C61       1.0  0.51300  0.27760  0.07265  1.0000 -0.0784787401
C   C62       1.0  0.72240  0.48700  0.57265  1.0000 -0.0784787401
C   C63       1.0  0.68430  0.55830  0.97700  1.0000 0.2494144588
C   C64       1.0  0.44170  0.31570  0.47700  1.0000 0.2494144588
C   C65       1.0  0.81560  0.69400  0.97823  1.0000 -0.2472635936
C   C66       1.0  0.30600  0.18440  0.47823  1.0000 -0.2472635936
C   C67       1.0  0.84100  0.79500  0.94949  1.0000 -0.0784787401
C   C68       1.0  0.20500  0.15900  0.44949  1.0000 -0.0784787401
C   C69       1.0  0.73970  0.76490  0.92105  1.0000 -0.0486710426
C   C70       1.0  0.23510  0.26030  0.42105  1.0000 -0.0486710426
C   C71       1.0  0.60780  0.62740  0.92078  1.0000 -0.0706584316
C   C72       1.0  0.37260  0.39220  0.42078  1.0000 -0.0706584316
C   C73       1.0  0.58220  0.52640  0.94799  1.0000 -0.2216779683
C   C74       1.0  0.47360  0.41780  0.44799  1.0000 -0.2216779683
C   C75       1.0  0.76690  0.87610  0.89127  1.0000 0.5961777493
C   C76       1.0  0.12390  0.23310  0.39127  1.0000 0.5961777493
C   C77       1.0  0.75120  0.24760  0.00074  1.0000 0.2403198518
C   C78       1.0  0.75240  0.24880  0.50074  1.0000 0.2403198518
C   C79       1.0  0.64250  0.14790  0.97632  1.0000 -0.2400713452
C   C80       1.0  0.85210  0.35750  0.47632  1.0000 -0.2400713452
C   C81       1.0  0.66667  0.12320  0.94403  1.0000 -0.0706584316
C   C82       1.0  0.87680  0.33340  0.44403  1.0000 -0.0706584316
C   C83       1.0  0.80200  0.19820  0.93785  1.0000 -0.0607540273
C   C84       1.0  0.80180  0.19800  0.43785  1.0000 -0.0607540273
C   C85       1.0  0.90860  0.29580  0.96386  1.0000 -0.0784787401
C   C86       1.0  0.70420  0.09140  0.46386  1.0000 -0.0784787401
C   C87       1.0  0.88550  0.32330  0.99514  1.0000 -0.2216779683
C   C88       1.0  0.67670  0.11450  0.49514  1.0000 -0.2216779683
C   C89       1.0  0.83050  0.17670  0.90319  1.0000 0.5904390538
C   C90       1.0  0.82330  0.16950  0.40319  1.0000 0.5904390538
C   C91       1.0  0.70780  0.22080  0.16251  1.0000 0.2494144588
C   C92       1.0  0.77920  0.29220  0.66251  1.0000 0.2494144588
C   C93       1.0  0.84150  0.32950  0.17999  1.0000 -0.2400713452
C   C94       1.0  0.67050  0.15850  0.67999  1.0000 -0.2400713452
C   C95       1.0  0.87880  0.30880  0.21857  1.0000 -0.0706584316
C   C96       1.0  0.69120  0.12120  0.71857  1.0000 -0.0706584316
C   C97       1.0  0.78426  0.18374  0.24144  1.0000 -0.0607540273
C   C98       1.0  0.81626  0.21574  0.74144  1.0000 -0.0607540273
C   C99       1.0  0.64830  0.07590  0.22359  1.0000 -0.0784787401
C   C100      1.0  0.92410  0.35170  0.72359  1.0000 -0.0784787401
C   C101      1.0  0.61130  0.09410  0.18422  1.0000 -0.2216779683
C   C102      1.0  0.90590  0.38870  0.68422  1.0000 -0.225394629
C   C103      1.0  0.82103  0.15977  0.28311  1.0000 0.5693407878
C   C104      1.0  0.84023  0.17897  0.78311  1.0000 0.5693407878
O   O1        1.0  0.54566  0.38314  0.08880  1.0000 -0.1878936738
O   O2        1.0  0.61686  0.45434  0.58880  1.0000 -0.1878936738
O   O3        1.0  0.37641  0.52539  0.13601  1.0000 -0.179701826
O   O4        1.0  0.47461  0.62359  0.63601  1.0000 -0.179701826
O   O5        1.0  0.37939  0.48181  0.04851  1.0000 -0.179701826
O   O6        1.0  0.51819  0.62061  0.54851  1.0000 -0.179701826
O   O7        1.0  0.57124  0.44956  0.17562  1.0000 -0.179701826
O   O8        1.0  0.55044  0.42876  0.67562  1.0000 -0.179701826
O   O9        1.0  0.22475  0.53305  0.29681  1.0000 -0.560516951
O   O10       1.0  0.46695  0.77525  0.79681  1.0000 -0.560516951
O   O11       1.0  0.36577  0.75243  0.27197  1.0000 -0.534480609
O   O12       1.0  0.24757  0.63423  0.77197  1.0000 -0.534480609
O   O13       1.0  0.44815  0.82225  0.88151  1.0000 -0.5806521848
O   O14       1.0  0.17775  0.55185  0.38151  1.0000 -0.5806521848
O   O15       1.0  0.25879  0.60261  0.86870  1.0000 -0.560516951
O   O16       1.0  0.39739  0.74121  0.36870  1.0000 -0.560516951
O   O17       1.0  0.11987  0.68553  0.28339  1.0000 -0.5887068138
O   O18       1.0  0.31447  0.88013  0.78339  1.0000 -0.5887068138
O   O19       1.0  0.96714  0.46006  0.30484  1.0000 -0.5490002906
O   O20       1.0  0.53994  0.03286  0.80484  1.0000 -0.5490002906
O   O21       1.0  0.64419  0.44821  0.00233  1.0000 -0.179701826
O   O22       1.0  0.55179  0.35581  0.50233  1.0000 -0.179701826
O   O23       1.0  0.74122  0.28258  0.03305  1.0000 -0.2104797103
O   O24       1.0  0.71742  0.25878  0.53305  1.0000 -0.2104797103
O   O25       1.0  0.65932  0.22608  0.12370  1.0000 -0.179701826
O   O26       1.0  0.77392  0.34068  0.62370  1.0000 -0.179701826
O   O27       1.0  0.66387  0.84093  0.86950  1.0000 -0.5490002906
O   O28       1.0  0.15907  0.33613  0.36950  1.0000 -0.5490002906
O   O29       1.0  0.89057  0.99403  0.89036  1.0000 -0.5806521848
O   O30       1.0  0.00597  0.10943  0.39036  1.0000 -0.5806521848
O   O31       1.0  0.73261  0.09919  0.87744  1.0000 -0.560516951
O   O32       1.0  0.90081  0.26739  0.37744  1.0000 -0.560516951
O   O33       1.0  0.95382  0.23878  0.90168  1.0000 -0.544607319
O   O34       1.0  0.76122  0.04618  0.40168  1.0000 -0.544607319
O   O35       1.0  0.94637  0.23803  0.29683  1.0000 -0.5887068138
O   O36       1.0  0.76197  0.05363  0.79683  1.0000 -0.5887068138
O   O37       1.0  0.72367  0.05353  0.30455  1.0000 -0.5490002906
O   O38       1.0  0.94647  0.27633  0.80455  1.0000 -0.5490002906
