# DDEC6 charges by PACMAN v1.1 (https://github.com/mtap-research/PACMAN-charge/)
data_2012[Gd][nan]3[ASR]5
_chemical_formula_sum              "Gd8 H32 C56 N16 O48"
_cell_length_a       10.2288
_cell_length_b       11.2962
_cell_length_c       23.3343
_cell_angle_alpha    90
_cell_angle_beta     108.721
_cell_angle_gamma    90

_symmetry_space_group_name_H-M    "P 1"
_symmetry_Int_Tables_number       1

loop_
  _symmetry_equiv_pos_as_xyz
  'x, y, z'

loop_
  _atom_site_type_symbol
  _atom_site_label
  _atom_site_symmetry_multiplicity
  _atom_site_fract_x
  _atom_site_fract_y
  _atom_site_fract_z
  _atom_site_occupancy
  _atom_site_charge
Gd  Gd1       1.0  0.38605  0.68532  0.77485  1.0000 1.9073903894
Gd  Gd2       1.0  0.61395  0.18532  0.72515  1.0000 1.9073903894
Gd  Gd3       1.0  0.61395  0.31468  0.22515  1.0000 1.9073903894
Gd  Gd4       1.0  0.38605  0.81468  0.27485  1.0000 1.9073903894
Gd  Gd5       1.0  0.80583  0.90914  0.56420  1.0000 2.1146344876
Gd  Gd6       1.0  0.19417  0.40914  0.93580  1.0000 2.1146344876
Gd  Gd7       1.0  0.19417  0.09086  0.43580  1.0000 2.1146344876
Gd  Gd8       1.0  0.80583  0.59086  0.06420  1.0000 2.1146344876
H   H1        1.0  0.99270  0.96630  0.83540  1.0000 0.3088087698
H   H2        1.0  0.00730  0.46630  0.66460  1.0000 0.3088087698
H   H3        1.0  0.00730  0.03370  0.16460  1.0000 0.3088087698
H   H4        1.0  0.99270  0.53370  0.33540  1.0000 0.3088087698
H   H5        1.0  0.95720  0.61860  0.83790  1.0000 0.2886484301
H   H6        1.0  0.04280  0.11860  0.66210  1.0000 0.2886484301
H   H7        1.0  0.04280  0.38140  0.16210  1.0000 0.2886484301
H   H8        1.0  0.95720  0.88140  0.33790  1.0000 0.2886484301
H   H9        1.0  0.17550  0.89090  0.92560  1.0000 0.1407444449
H   H10       1.0  0.82450  0.39090  0.57440  1.0000 0.1407444449
H   H11       1.0  0.82450  0.10910  0.07440  1.0000 0.1407444449
H   H12       1.0  0.17550  0.60910  0.42560  1.0000 0.1407444449
H   H13       1.0  0.22400  0.76430  0.91370  1.0000 0.1710142874
H   H14       1.0  0.77600  0.26430  0.58630  1.0000 0.1710142874
H   H15       1.0  0.77600  0.23570  0.08630  1.0000 0.1710142874
H   H16       1.0  0.22400  0.73570  0.41370  1.0000 0.1710142874
H   H17       1.0  0.31560  0.87500  0.91260  1.0000 0.1710142874
H   H18       1.0  0.68440  0.37500  0.58740  1.0000 0.1710142874
H   H19       1.0  0.68440  0.12500  0.08740  1.0000 0.1710142874
H   H20       1.0  0.31560  0.62500  0.41260  1.0000 0.1710142874
H   H21       1.0  0.84740  0.64110  0.72800  1.0000 0.1453966534
H   H22       1.0  0.15260  0.14110  0.77200  1.0000 0.1407444449
H   H23       1.0  0.15260  0.35890  0.27200  1.0000 0.1407444449
H   H24       1.0  0.84740  0.85890  0.22800  1.0000 0.1407444449
H   H25       1.0  0.69630  0.59130  0.70680  1.0000 0.1710142874
H   H26       1.0  0.30370  0.09130  0.79320  1.0000 0.1710142874
H   H27       1.0  0.30370  0.40870  0.29320  1.0000 0.1710142874
H   H28       1.0  0.69630  0.90870  0.20680  1.0000 0.1710142874
H   H29       1.0  0.72170  0.72830  0.71270  1.0000 0.1710142874
H   H30       1.0  0.27830  0.22830  0.78730  1.0000 0.1710142874
H   H31       1.0  0.27830  0.27170  0.28730  1.0000 0.1710142874
H   H32       1.0  0.72170  0.77170  0.21270  1.0000 0.1710142874
C   C1        1.0  0.14890  0.86110  0.83670  1.0000 0.4422826132
C   C2        1.0  0.85110  0.36110  0.66330  1.0000 0.4422826132
C   C3        1.0  0.85110  0.13890  0.16330  1.0000 0.4422826132
C   C4        1.0  0.14890  0.63890  0.33670  1.0000 0.4422826132
C   C5        1.0  0.08660  0.85150  0.73813  1.0000 -0.0200953918
C   C6        1.0  0.91340  0.35150  0.76187  1.0000 -0.0200953918
C   C7        1.0  0.91340  0.14850  0.26187  1.0000 -0.0200953918
C   C8        1.0  0.08660  0.64850  0.23813  1.0000 -0.0200953918
C   C9        1.0  0.99240  0.92490  0.75128  1.0000 -0.0200953918
C   C10       1.0  0.00760  0.42490  0.74872  1.0000 -0.0200953918
C   C11       1.0  0.00760  0.07510  0.24872  1.0000 -0.0200953918
C   C12       1.0  0.99240  0.57510  0.25128  1.0000 -0.0200953918
C   C13       1.0  0.22270  0.84650  0.90310  1.0000 -0.4999425524
C   C14       1.0  0.77730  0.34650  0.59690  1.0000 -0.4999425524
C   C15       1.0  0.77730  0.15350  0.09690  1.0000 -0.4999425524
C   C16       1.0  0.22270  0.65350  0.40310  1.0000 -0.4999425524
C   C17       1.0  0.10070  0.81040  0.67967  1.0000 0.6305557227
C   C18       1.0  0.89930  0.31040  0.82033  1.0000 0.6305557227
C   C19       1.0  0.89930  0.18960  0.32033  1.0000 0.6305557227
C   C20       1.0  0.10070  0.68960  0.17967  1.0000 0.6305557227
C   C21       1.0  0.87480  0.00210  0.71600  1.0000 0.599823404
C   C22       1.0  0.12520  0.50210  0.78400  1.0000 0.599823404
C   C23       1.0  0.12520  0.99790  0.28400  1.0000 0.599823404
C   C24       1.0  0.87480  0.49790  0.21600  1.0000 0.599823404
C   C25       1.0  0.75810  0.64760  0.79393  1.0000 0.4266534186
C   C26       1.0  0.24190  0.14760  0.70607  1.0000 0.4266534186
C   C27       1.0  0.24190  0.35240  0.20607  1.0000 0.4266534186
C   C28       1.0  0.75810  0.85240  0.29393  1.0000 0.4266534186
C   C29       1.0  0.70300  0.64890  0.87664  1.0000 0.0076150185
C   C30       1.0  0.29700  0.14890  0.62336  1.0000 0.0076150185
C   C31       1.0  0.29700  0.35110  0.12336  1.0000 0.0076150185
C   C32       1.0  0.70300  0.85110  0.37664  1.0000 0.0076150185
C   C33       1.0  0.84420  0.63000  0.89420  1.0000 -0.0107649427
C   C34       1.0  0.15580  0.13000  0.60580  1.0000 -0.0107649427
C   C35       1.0  0.15580  0.37000  0.10580  1.0000 -0.0107649427
C   C36       1.0  0.84420  0.87000  0.39420  1.0000 -0.0107649427
C   C37       1.0  0.75570  0.65250  0.72960  1.0000 -0.5253342652
C   C38       1.0  0.24430  0.15250  0.77040  1.0000 -0.5248224997
C   C39       1.0  0.24430  0.34750  0.27040  1.0000 -0.5253342652
C   C40       1.0  0.75570  0.84750  0.22960  1.0000 -0.5253342652
C   C41       1.0  0.60570  0.65340  0.91241  1.0000 0.6501342466
C   C42       1.0  0.39430  0.15340  0.58759  1.0000 0.6501342466
C   C43       1.0  0.39430  0.34660  0.08759  1.0000 0.6501342466
C   C44       1.0  0.60570  0.84660  0.41241  1.0000 0.6501342466
C   C45       1.0  0.96100  0.61500  0.95182  1.0000 0.6501342466
C   C46       1.0  0.03900  0.11500  0.54818  1.0000 0.6501342466
C   C47       1.0  0.03900  0.38500  0.04818  1.0000 0.6501342466
C   C48       1.0  0.96100  0.88500  0.45182  1.0000 0.6501342466
C   C49       1.0  0.51790  0.90720  0.72164  1.0000 0.4735478497
C   C50       1.0  0.48210  0.40720  0.77836  1.0000 0.4735478497
C   C51       1.0  0.48210  0.09280  0.27836  1.0000 0.4735478497
C   C52       1.0  0.51790  0.59280  0.22164  1.0000 0.4735478497
C   C53       1.0  0.52340  0.95350  0.78498  1.0000 0.4735478497
C   C54       1.0  0.47660  0.45350  0.71502  1.0000 0.4735478497
C   C55       1.0  0.47660  0.04650  0.21502  1.0000 0.4735478497
C   C56       1.0  0.52340  0.54650  0.28498  1.0000 0.4735478497
N   N1        1.0  0.18460  0.81210  0.79116  1.0000 -0.4797114694
N   N2        1.0  0.81540  0.31210  0.70884  1.0000 -0.4797114694
N   N3        1.0  0.81540  0.18790  0.20884  1.0000 -0.4797114694
N   N4        1.0  0.18460  0.68790  0.29116  1.0000 -0.4797114694
N   N5        1.0  0.03370  0.92810  0.81422  1.0000 -0.2750759685
N   N6        1.0  0.96630  0.42810  0.68578  1.0000 -0.2750759685
N   N7        1.0  0.96630  0.07190  0.18578  1.0000 -0.2736423516
N   N8        1.0  0.03370  0.57190  0.31422  1.0000 -0.2750759685
N   N9        1.0  0.65110  0.65950  0.81446  1.0000 -0.4737908656
N   N10       1.0  0.34890  0.15950  0.68554  1.0000 -0.4737908656
N   N11       1.0  0.34890  0.34050  0.18554  1.0000 -0.4737908656
N   N12       1.0  0.65110  0.84050  0.31446  1.0000 -0.4737908656
N   N13       1.0  0.87640  0.62910  0.84085  1.0000 -0.2736423516
N   N14       1.0  0.12360  0.12910  0.65915  1.0000 -0.2736423516
N   N15       1.0  0.12360  0.37090  0.15915  1.0000 -0.2736423516
N   N16       1.0  0.87640  0.87090  0.34085  1.0000 -0.2736423516
O   O1        1.0  0.20770  0.75190  0.68264  1.0000 -0.5577149281
O   O2        1.0  0.79230  0.25190  0.81736  1.0000 -0.5577149281
O   O3        1.0  0.79230  0.24810  0.31736  1.0000 -0.5577149281
O   O4        1.0  0.20770  0.74810  0.18264  1.0000 -0.5577149281
O   O5        1.0  0.00900  0.83450  0.63075  1.0000 -0.6779877358
O   O6        1.0  0.99100  0.33450  0.86925  1.0000 -0.6779877358
O   O7        1.0  0.99100  0.16550  0.36925  1.0000 -0.6779877358
O   O8        1.0  0.00900  0.66550  0.13075  1.0000 -0.6779877358
O   O9        1.0  0.84510  0.01050  0.65974  1.0000 -0.6701759884
O   O10       1.0  0.15490  0.51050  0.84026  1.0000 -0.6701759884
O   O11       1.0  0.15490  0.98950  0.34026  1.0000 -0.6701759884
O   O12       1.0  0.84510  0.48950  0.15974  1.0000 -0.6701759884
O   O13       1.0  0.81770  0.05910  0.74817  1.0000 -0.6225607487
O   O14       1.0  0.18230  0.55910  0.75183  1.0000 -0.6225607487
O   O15       1.0  0.18230  0.94090  0.25183  1.0000 -0.6225607487
O   O16       1.0  0.81770  0.44090  0.24817  1.0000 -0.6225607487
O   O17       1.0  0.48030  0.67600  0.88393  1.0000 -0.5932703876
O   O18       1.0  0.51970  0.17600  0.61607  1.0000 -0.5959873263
O   O19       1.0  0.51970  0.32400  0.11607  1.0000 -0.5959873263
O   O20       1.0  0.48030  0.82400  0.38393  1.0000 -0.5959873263
O   O21       1.0  0.64860  0.63300  0.96836  1.0000 -0.7088993156
O   O22       1.0  0.35140  0.13300  0.53164  1.0000 -0.7088993156
O   O23       1.0  0.35140  0.36700  0.03164  1.0000 -0.7088993156
O   O24       1.0  0.64860  0.86700  0.46836  1.0000 -0.7088993156
O   O25       1.0  0.94400  0.63680  0.00175  1.0000 -0.6225607487
O   O26       1.0  0.05600  0.13680  0.49825  1.0000 -0.6225607487
O   O27       1.0  0.05600  0.36320  0.99825  1.0000 -0.6260743403
O   O28       1.0  0.94400  0.86320  0.50175  1.0000 -0.6225607487
O   O29       1.0  0.07490  0.58400  0.94593  1.0000 -0.6701759884
O   O30       1.0  0.92510  0.08400  0.55407  1.0000 -0.6701759884
O   O31       1.0  0.92510  0.41600  0.05407  1.0000 -0.6701759884
O   O32       1.0  0.07490  0.91600  0.44593  1.0000 -0.6701759884
O   O33       1.0  0.55500  0.97780  0.68829  1.0000 -0.5577149281
O   O34       1.0  0.44500  0.47780  0.81171  1.0000 -0.5577149281
O   O35       1.0  0.44500  0.02220  0.31171  1.0000 -0.5577149281
O   O36       1.0  0.55500  0.52220  0.18829  1.0000 -0.5577149281
O   O37       1.0  0.47810  0.80200  0.70874  1.0000 -0.5497780406
O   O38       1.0  0.52190  0.30200  0.79126  1.0000 -0.5497780406
O   O39       1.0  0.52190  0.19800  0.29126  1.0000 -0.5497780406
O   O40       1.0  0.47810  0.69800  0.20874  1.0000 -0.5497780406
O   O41       1.0  0.57160  0.05520  0.79977  1.0000 -0.5497780406
O   O42       1.0  0.42840  0.55520  0.70023  1.0000 -0.5497780406
O   O43       1.0  0.42840  0.94480  0.20023  1.0000 -0.5497780406
O   O44       1.0  0.57160  0.44480  0.29977  1.0000 -0.5497780406
O   O45       1.0  0.47610  0.88460  0.81631  1.0000 -0.5789857322
O   O46       1.0  0.52390  0.38460  0.68369  1.0000 -0.5789857322
O   O47       1.0  0.52390  0.11540  0.18369  1.0000 -0.5789857322
O   O48       1.0  0.47610  0.61540  0.31631  1.0000 -0.5789857322
