# DDEC6 charges by PACMAN v1.1 (https://github.com/mtap-research/PACMAN-charge/)
data_2012[Cd][dia]3[ASR]2
_chemical_formula_sum              "Cd4 H28 C48 Br8 N8 O18"
_cell_length_a       11.6083
_cell_length_b       11.6083
_cell_length_c       15.0543
_cell_angle_alpha    70.3805
_cell_angle_beta     109.619
_cell_angle_gamma    83.0798

_symmetry_space_group_name_H-M    "P 1"
_symmetry_Int_Tables_number       1

loop_
  _symmetry_equiv_pos_as_xyz
  'x, y, z'

loop_
  _atom_site_type_symbol
  _atom_site_label
  _atom_site_symmetry_multiplicity
  _atom_site_fract_x
  _atom_site_fract_y
  _atom_site_fract_z
  _atom_site_occupancy
  _atom_site_charge
Cd  Cd1       1.0  0.50118  0.23340  0.28570  1.0000 0.9028535036
Cd  Cd2       1.0  0.23340  0.50118  0.21430  1.0000 0.9028535036
Cd  Cd3       1.0  0.49882  0.76660  0.71430  1.0000 0.9028535036
Cd  Cd4       1.0  0.76660  0.49882  0.78570  1.0000 0.9028535036
H   H1        1.0  0.44440  0.49700  0.19370  1.0000 0.3735534993
H   H2        1.0  0.49700  0.44440  0.30630  1.0000 0.3735534993
H   H3        1.0  0.55560  0.50300  0.80630  1.0000 0.3735534993
H   H4        1.0  0.50300  0.55560  0.69370  1.0000 0.3735534993
H   H5        1.0  0.67910  0.43490  0.58840  1.0000 0.1201238816
H   H6        1.0  0.43490  0.67910  0.91160  1.0000 0.1201238816
H   H7        1.0  0.32090  0.56510  0.41160  1.0000 0.1201238816
H   H8        1.0  0.56510  0.32090  0.08840  1.0000 0.1201238816
H   H9        1.0  0.84510  0.18610  0.87300  1.0000 0.1201238816
H   H10       1.0  0.18610  0.84510  0.62700  1.0000 0.1201238816
H   H11       1.0  0.15490  0.81390  0.12700  1.0000 0.1201238816
H   H12       1.0  0.81390  0.15490  0.37300  1.0000 0.1201238816
H   H13       1.0  0.74440  0.06520  0.64450  1.0000 0.1374217753
H   H14       1.0  0.06520  0.74440  0.85550  1.0000 0.1374217753
H   H15       1.0  0.25560  0.93480  0.35550  1.0000 0.1374217753
H   H16       1.0  0.93480  0.25560  0.14450  1.0000 0.1374217753
H   H17       1.0  0.02210  0.39350  0.98160  1.0000 0.1148578745
H   H18       1.0  0.39350  0.02210  0.51840  1.0000 0.1148578745
H   H19       1.0  0.97790  0.60650  0.01840  1.0000 0.1148578745
H   H20       1.0  0.60650  0.97790  0.48160  1.0000 0.1148578745
H   H21       1.0  0.98280  0.51820  0.69500  1.0000 0.1201238816
H   H22       1.0  0.51820  0.98280  0.80500  1.0000 0.1201238816
H   H23       1.0  0.01720  0.48180  0.30500  1.0000 0.1201238816
H   H24       1.0  0.48180  0.01720  0.19500  1.0000 0.1201238816
H   H25       1.0  0.33120  0.38820  0.91830  1.0000 0.1487492469
H   H26       1.0  0.38820  0.33120  0.58170  1.0000 0.1487492469
H   H27       1.0  0.66880  0.61180  0.08170  1.0000 0.1487492469
H   H28       1.0  0.61180  0.66880  0.41830  1.0000 0.1487492469
C   C1        1.0  0.71210  0.35070  0.63520  1.0000 0.0589273197
C   C2        1.0  0.35070  0.71210  0.86480  1.0000 0.0589273197
C   C3        1.0  0.28790  0.64930  0.36480  1.0000 0.0589273197
C   C4        1.0  0.64930  0.28790  0.13520  1.0000 0.0589273197
C   C5        1.0  0.80880  0.20480  0.80280  1.0000 0.0047149628
C   C6        1.0  0.20480  0.80880  0.69720  1.0000 0.0061875462
C   C7        1.0  0.19120  0.79520  0.19720  1.0000 0.0047149628
C   C8        1.0  0.79520  0.19120  0.30280  1.0000 0.0047149628
C   C9        1.0  0.80280  0.10780  0.77040  1.0000 0.0488960754
C   C10       1.0  0.10780  0.80280  0.72960  1.0000 0.0488960754
C   C11       1.0  0.19720  0.89220  0.22960  1.0000 0.0488960754
C   C12       1.0  0.89220  0.19720  0.27040  1.0000 0.0488960754
C   C13       1.0  0.74980  0.13100  0.66667  1.0000 -0.1095448009
C   C14       1.0  0.13100  0.74980  0.83340  1.0000 -0.1095448009
C   C15       1.0  0.25020  0.86900  0.33340  1.0000 -0.1095448009
C   C16       1.0  0.86900  0.25020  0.16660  1.0000 -0.1095448009
C   C17       1.0  0.70540  0.25620  0.59760  1.0000 -0.0409415755
C   C18       1.0  0.25620  0.70540  0.90240  1.0000 -0.0409415755
C   C19       1.0  0.29460  0.74380  0.40240  1.0000 -0.0409415755
C   C20       1.0  0.74380  0.29460  0.09760  1.0000 -0.0409415755
C   C21       1.0  0.64370  0.29510  0.48170  1.0000 0.5599098352
C   C22       1.0  0.29510  0.64370  0.01830  1.0000 0.5599098352
C   C23       1.0  0.35630  0.70490  0.51830  1.0000 0.5599098352
C   C24       1.0  0.70490  0.35630  0.98170  1.0000 0.5599098352
C   C25       1.0  0.05830  0.41050  0.93360  1.0000 0.0410222669
C   C26       1.0  0.41050  0.05830  0.56640  1.0000 0.0410222669
C   C27       1.0  0.94170  0.58950  0.06640  1.0000 0.0410222669
C   C28       1.0  0.58950  0.94170  0.43360  1.0000 0.0410222669
C   C29       1.0  0.03500  0.48400  0.76490  1.0000 0.0061875462
C   C30       1.0  0.48400  0.03500  0.73510  1.0000 0.0061875462
C   C31       1.0  0.96500  0.51600  0.23510  1.0000 0.0061875462
C   C32       1.0  0.51600  0.96500  0.26490  1.0000 0.0061875462
C   C33       1.0  0.16380  0.46040  0.79470  1.0000 0.0488960754
C   C34       1.0  0.46040  0.16380  0.70530  1.0000 0.0488960754
C   C35       1.0  0.83620  0.53960  0.20530  1.0000 0.0488960754
C   C36       1.0  0.53960  0.83620  0.29470  1.0000 0.0488960754
C   C37       1.0  0.24360  0.40760  0.89730  1.0000 -0.1095448009
C   C38       1.0  0.40760  0.24360  0.60270  1.0000 -0.1095448009
C   C39       1.0  0.75640  0.59240  0.10270  1.0000 -0.1095448009
C   C40       1.0  0.59240  0.75640  0.39730  1.0000 -0.1095448009
C   C41       1.0  0.18900  0.38420  0.96850  1.0000 -0.0309113825
C   C42       1.0  0.38420  0.18900  0.53150  1.0000 -0.0309113825
C   C43       1.0  0.81100  0.61580  0.03150  1.0000 -0.0309113825
C   C44       1.0  0.61580  0.81100  0.46850  1.0000 -0.0309113825
C   C45       1.0  0.26700  0.33740  0.08340  1.0000 0.5684797314
C   C46       1.0  0.33740  0.26700  0.41660  1.0000 0.5684797314
C   C47       1.0  0.73300  0.66260  0.91660  1.0000 0.5684797314
C   C48       1.0  0.66260  0.73300  0.58340  1.0000 0.5684797314
Br  Br1       1.0  0.86407  0.93803  0.87019  1.0000 -0.0409415755
Br  Br2       1.0  0.93803  0.86407  0.62981  1.0000 -0.0409415755
Br  Br3       1.0  0.13593  0.06197  0.12981  1.0000 -0.0409415755
Br  Br4       1.0  0.06197  0.13593  0.37019  1.0000 -0.0409415755
Br  Br5       1.0  0.22954  0.50538  0.69204  1.0000 -0.0409415755
Br  Br6       1.0  0.50538  0.22954  0.80796  1.0000 -0.0409415755
Br  Br7       1.0  0.77046  0.49462  0.30796  1.0000 -0.0409415755
Br  Br8       1.0  0.49462  0.77046  0.19204  1.0000 -0.0409415755
N   N1        1.0  0.76330  0.32590  0.73530  1.0000 -0.2331309172
N   N2        1.0  0.32590  0.76330  0.76470  1.0000 -0.2331309172
N   N3        1.0  0.23670  0.67410  0.26470  1.0000 -0.2331309172
N   N4        1.0  0.67410  0.23670  0.23530  1.0000 -0.2331309172
N   N5        1.0  0.98190  0.45930  0.83310  1.0000 -0.210871205
N   N6        1.0  0.45930  0.98190  0.66690  1.0000 -0.210871205
N   N7        1.0  0.01810  0.54070  0.16690  1.0000 -0.210871205
N   N8        1.0  0.54070  0.01810  0.33310  1.0000 -0.210871205
O   O1        1.0  0.60250  0.41190  0.42830  1.0000 -0.5424920323
O   O2        1.0  0.41190  0.60250  0.07170  1.0000 -0.5424920323
O   O3        1.0  0.39750  0.58810  0.57170  1.0000 -0.5424920323
O   O4        1.0  0.58810  0.39750  0.92830  1.0000 -0.5424920323
O   O5        1.0  0.63930  0.20810  0.45000  1.0000 -0.566047177
O   O6        1.0  0.20810  0.63930  0.05000  1.0000 -0.566047177
O   O7        1.0  0.36070  0.79190  0.55000  1.0000 -0.566047177
O   O8        1.0  0.79190  0.36070  0.95000  1.0000 -0.566047177
O   O9        1.0  0.38050  0.27850  0.11740  1.0000 -0.5424920323
O   O10       1.0  0.27850  0.38050  0.38260  1.0000 -0.5424920323
O   O11       1.0  0.61950  0.72150  0.88260  1.0000 -0.5424920323
O   O12       1.0  0.72150  0.61950  0.61740  1.0000 -0.5424920323
O   O13       1.0  0.21000  0.36240  0.13440  1.0000 -0.5561860057
O   O14       1.0  0.36240  0.21000  0.36560  1.0000 -0.5561860057
O   O15       1.0  0.79000  0.63760  0.86560  1.0000 -0.5561860057
O   O16       1.0  0.63760  0.79000  0.63440  1.0000 -0.5561860057
O   O17       1.0  0.44580  0.44580  0.25000  1.0000 -0.7023288461
O   O18       1.0  0.55420  0.55420  0.75000  1.0000 -0.7023288461
