# DDEC6 charges by PACMAN v1.1 (https://github.com/mtap-research/PACMAN-charge/)
data_2012[Cu][dia]3[ASR]1
_chemical_formula_sum              "Cu4 H48 C72 N24 O16"
_cell_length_a       9.9017
_cell_length_b       13.063
_cell_length_c       17.472
_cell_angle_alpha    90
_cell_angle_beta     90
_cell_angle_gamma    90

_symmetry_space_group_name_H-M    "P 1"
_symmetry_Int_Tables_number       1

loop_
  _symmetry_equiv_pos_as_xyz
  'x, y, z'

loop_
  _atom_site_type_symbol
  _atom_site_label
  _atom_site_symmetry_multiplicity
  _atom_site_fract_x
  _atom_site_fract_y
  _atom_site_fract_z
  _atom_site_occupancy
  _atom_site_charge
Cu  Cu1       1.0  0.00000  0.75000  0.16177  1.0000 0.7476163362
Cu  Cu2       1.0  0.50000  0.25000  0.66177  1.0000 0.7476163362
Cu  Cu3       1.0  0.50000  0.75000  0.33823  1.0000 0.7476163362
Cu  Cu4       1.0  0.00000  0.25000  0.83823  1.0000 0.7476163362
H   H1        1.0  0.14120  0.53810  0.19890  1.0000 0.1196943079
H   H2        1.0  0.85880  0.96190  0.19890  1.0000 0.1196943079
H   H3        1.0  0.35880  0.03810  0.69890  1.0000 0.1196943079
H   H4        1.0  0.64120  0.46190  0.69890  1.0000 0.1196943079
H   H5        1.0  0.86710  0.67320  0.31910  1.0000 0.1327071244
H   H6        1.0  0.13290  0.82680  0.31910  1.0000 0.1327071244
H   H7        1.0  0.63290  0.17320  0.81910  1.0000 0.1327071244
H   H8        1.0  0.36710  0.32680  0.81910  1.0000 0.1327071244
H   H9        1.0  0.02510  0.37980  0.41320  1.0000 0.1327071244
H   H10       1.0  0.97490  0.12020  0.41320  1.0000 0.1327071244
H   H11       1.0  0.47490  0.87980  0.91320  1.0000 0.1327071244
H   H12       1.0  0.52510  0.62020  0.91320  1.0000 0.1327071244
H   H13       1.0  0.72610  0.58180  0.39640  1.0000 0.1327071244
H   H14       1.0  0.27390  0.91820  0.39640  1.0000 0.1327071244
H   H15       1.0  0.77390  0.08180  0.89640  1.0000 0.1327071244
H   H16       1.0  0.22610  0.41820  0.89640  1.0000 0.1327071244
H   H17       1.0  0.91680  0.30430  0.51530  1.0000 0.1126096961
H   H18       1.0  0.08320  0.19570  0.51530  1.0000 0.1126096961
H   H19       1.0  0.58320  0.80430  0.01530  1.0000 0.1126096961
H   H20       1.0  0.41680  0.69570  0.01530  1.0000 0.1126096961
H   H21       1.0  0.61160  0.49860  0.49470  1.0000 0.1196943079
H   H22       1.0  0.38840  0.00140  0.49470  1.0000 0.1196943079
H   H23       1.0  0.88840  0.99860  0.99470  1.0000 0.1196943079
H   H24       1.0  0.11160  0.50140  0.99470  1.0000 0.1196943079
H   H25       1.0  0.64120  0.96190  0.30110  1.0000 0.1196943079
H   H26       1.0  0.35880  0.53810  0.30110  1.0000 0.1196943079
H   H27       1.0  0.85880  0.46190  0.80110  1.0000 0.1196943079
H   H28       1.0  0.14120  0.03810  0.80110  1.0000 0.1196943079
H   H29       1.0  0.36710  0.82680  0.18090  1.0000 0.1327071244
H   H30       1.0  0.63290  0.67320  0.18090  1.0000 0.1327071244
H   H31       1.0  0.13290  0.32680  0.68090  1.0000 0.1327071244
H   H32       1.0  0.86710  0.17320  0.68090  1.0000 0.1327071244
H   H33       1.0  0.52510  0.12020  0.08680  1.0000 0.1327071244
H   H34       1.0  0.47490  0.37980  0.08680  1.0000 0.1327071244
H   H35       1.0  0.97490  0.62020  0.58680  1.0000 0.1327071244
H   H36       1.0  0.02510  0.87980  0.58680  1.0000 0.1327071244
H   H37       1.0  0.22610  0.91820  0.10360  1.0000 0.1327071244
H   H38       1.0  0.77390  0.58180  0.10360  1.0000 0.1327071244
H   H39       1.0  0.27390  0.41820  0.60360  1.0000 0.1327071244
H   H40       1.0  0.72610  0.08180  0.60360  1.0000 0.1327071244
H   H41       1.0  0.41680  0.19570  0.98470  1.0000 0.1126096961
H   H42       1.0  0.58320  0.30430  0.98470  1.0000 0.1126096961
H   H43       1.0  0.08320  0.69570  0.48470  1.0000 0.1126096961
H   H44       1.0  0.91680  0.80430  0.48470  1.0000 0.1126096961
H   H45       1.0  0.11160  0.00140  0.00530  1.0000 0.1196943079
H   H46       1.0  0.88840  0.49860  0.00530  1.0000 0.1196943079
H   H47       1.0  0.38840  0.50140  0.50530  1.0000 0.1196943079
H   H48       1.0  0.61160  0.99860  0.50530  1.0000 0.1196943079
C   C1        1.0  0.07730  0.55160  0.23660  1.0000 0.1537719075
C   C2        1.0  0.92270  0.94840  0.23660  1.0000 0.1537719075
C   C3        1.0  0.42270  0.05160  0.73660  1.0000 0.1537719075
C   C4        1.0  0.57730  0.44840  0.73660  1.0000 0.1537719075
C   C5        1.0  0.92860  0.62530  0.30090  1.0000 0.0940949121
C   C6        1.0  0.07140  0.87470  0.30090  1.0000 0.0940949121
C   C7        1.0  0.57140  0.12530  0.80090  1.0000 0.0940949121
C   C8        1.0  0.42860  0.37470  0.80090  1.0000 0.0940949121
C   C9        1.0  0.88510  0.48820  0.39570  1.0000 0.1414317363
C   C10       1.0  0.11490  0.01180  0.39570  1.0000 0.1414317363
C   C11       1.0  0.61490  0.98820  0.89570  1.0000 0.1414317363
C   C12       1.0  0.38510  0.51180  0.89570  1.0000 0.1414317363
C   C13       1.0  0.94240  0.40490  0.43010  1.0000 -0.1675314526
C   C14       1.0  0.05760  0.09510  0.43010  1.0000 -0.1675314526
C   C15       1.0  0.55760  0.90490  0.93010  1.0000 -0.1675314526
C   C16       1.0  0.44240  0.59510  0.93010  1.0000 -0.1675314526
C   C17       1.0  0.76370  0.52430  0.41940  1.0000 -0.1675314526
C   C18       1.0  0.23630  0.97570  0.41940  1.0000 -0.1675314526
C   C19       1.0  0.73630  0.02430  0.91940  1.0000 -0.1675314526
C   C20       1.0  0.26370  0.47570  0.91940  1.0000 -0.1675314526
C   C21       1.0  0.87570  0.35880  0.49020  1.0000 -0.095914952
C   C22       1.0  0.12430  0.14120  0.49020  1.0000 -0.0949340458
C   C23       1.0  0.62430  0.85880  0.99020  1.0000 -0.095914952
C   C24       1.0  0.37570  0.64120  0.99020  1.0000 -0.095914952
C   C25       1.0  0.69550  0.47470  0.47880  1.0000 -0.0785902436
C   C26       1.0  0.30450  0.02530  0.47880  1.0000 -0.0785902436
C   C27       1.0  0.80450  0.97470  0.97880  1.0000 -0.0785902436
C   C28       1.0  0.19550  0.52530  0.97880  1.0000 -0.0785902436
C   C29       1.0  0.75200  0.39050  0.51370  1.0000 -0.0316336318
C   C30       1.0  0.24800  0.10950  0.51370  1.0000 -0.0316336318
C   C31       1.0  0.74800  0.89050  0.01370  1.0000 -0.0316336318
C   C32       1.0  0.25200  0.60950  0.01370  1.0000 -0.0316336318
C   C33       1.0  0.67830  0.33440  0.57460  1.0000 0.5429603015
C   C34       1.0  0.32170  0.16560  0.57460  1.0000 0.5429603015
C   C35       1.0  0.82170  0.83440  0.07460  1.0000 0.5429603015
C   C36       1.0  0.17830  0.66560  0.07460  1.0000 0.5429603015
C   C37       1.0  0.57730  0.94840  0.26340  1.0000 0.1537719075
C   C38       1.0  0.42270  0.55160  0.26340  1.0000 0.1537719075
C   C39       1.0  0.92270  0.44840  0.76340  1.0000 0.1537719075
C   C40       1.0  0.07730  0.05160  0.76340  1.0000 0.1537719075
C   C41       1.0  0.42860  0.87470  0.19910  1.0000 0.0940949121
C   C42       1.0  0.57140  0.62530  0.19910  1.0000 0.0940949121
C   C43       1.0  0.07140  0.37470  0.69910  1.0000 0.0940949121
C   C44       1.0  0.92860  0.12530  0.69910  1.0000 0.0940949121
C   C45       1.0  0.38510  0.01180  0.10430  1.0000 0.1414317363
C   C46       1.0  0.61490  0.48820  0.10430  1.0000 0.1414317363
C   C47       1.0  0.11490  0.51180  0.60430  1.0000 0.1414317363
C   C48       1.0  0.88510  0.98820  0.60430  1.0000 0.1414317363
C   C49       1.0  0.44240  0.09510  0.06990  1.0000 -0.1675314526
C   C50       1.0  0.55760  0.40490  0.06990  1.0000 -0.1675314526
C   C51       1.0  0.05760  0.59510  0.56990  1.0000 -0.1675314526
C   C52       1.0  0.94240  0.90490  0.56990  1.0000 -0.1675314526
C   C53       1.0  0.26370  0.97570  0.08060  1.0000 -0.1675314526
C   C54       1.0  0.73630  0.52430  0.08060  1.0000 -0.1675314526
C   C55       1.0  0.23630  0.47570  0.58060  1.0000 -0.1675314526
C   C56       1.0  0.76370  0.02430  0.58060  1.0000 -0.1675314526
C   C57       1.0  0.37570  0.14120  0.00980  1.0000 -0.0949340458
C   C58       1.0  0.62430  0.35880  0.00980  1.0000 -0.095914952
C   C59       1.0  0.12430  0.64120  0.50980  1.0000 -0.095914952
C   C60       1.0  0.87570  0.85880  0.50980  1.0000 -0.095914952
C   C61       1.0  0.19550  0.02530  0.02120  1.0000 -0.0785902436
C   C62       1.0  0.80450  0.47470  0.02120  1.0000 -0.0785902436
C   C63       1.0  0.30450  0.52530  0.52120  1.0000 -0.0785902436
C   C64       1.0  0.69550  0.97470  0.52120  1.0000 -0.0785902436
C   C65       1.0  0.25200  0.10950  0.98630  1.0000 -0.0316336318
C   C66       1.0  0.74800  0.39050  0.98630  1.0000 -0.0316336318
C   C67       1.0  0.24800  0.60950  0.48630  1.0000 -0.0316336318
C   C68       1.0  0.75200  0.89050  0.48630  1.0000 -0.0316336318
C   C69       1.0  0.17830  0.16560  0.92540  1.0000 0.5429603015
C   C70       1.0  0.82170  0.33440  0.92540  1.0000 0.5429603015
C   C71       1.0  0.32170  0.66560  0.42540  1.0000 0.5429603015
C   C72       1.0  0.67830  0.83440  0.42540  1.0000 0.5429603015
N   N1        1.0  0.00450  0.63810  0.23940  1.0000 -0.325606897
N   N2        1.0  0.99550  0.86190  0.23940  1.0000 -0.325606897
N   N3        1.0  0.49550  0.13810  0.73940  1.0000 -0.3249851014
N   N4        1.0  0.50450  0.36190  0.73940  1.0000 -0.3249851014
N   N5        1.0  0.04900  0.48730  0.29300  1.0000 -0.2323295693
N   N6        1.0  0.95100  0.01270  0.29300  1.0000 -0.2323295693
N   N7        1.0  0.45100  0.98730  0.79300  1.0000 -0.2323295693
N   N8        1.0  0.54900  0.51270  0.79300  1.0000 -0.2323295693
N   N9        1.0  0.95130  0.53630  0.33280  1.0000 0.1414317363
N   N10       1.0  0.04870  0.96370  0.33280  1.0000 0.1414317363
N   N11       1.0  0.54870  0.03630  0.83280  1.0000 0.1414317363
N   N12       1.0  0.45130  0.46370  0.83280  1.0000 0.1414317363
N   N13       1.0  0.50450  0.86190  0.26060  1.0000 -0.325606897
N   N14       1.0  0.49550  0.63810  0.26060  1.0000 -0.325606897
N   N15       1.0  0.99550  0.36190  0.76060  1.0000 -0.325606897
N   N16       1.0  0.00450  0.13810  0.76060  1.0000 -0.3249851014
N   N17       1.0  0.54900  0.01270  0.20700  1.0000 -0.2323295693
N   N18       1.0  0.45100  0.48730  0.20700  1.0000 -0.2323295693
N   N19       1.0  0.95100  0.51270  0.70700  1.0000 -0.2323295693
N   N20       1.0  0.04900  0.98730  0.70700  1.0000 -0.2323295693
N   N21       1.0  0.45130  0.96370  0.16720  1.0000 0.1414317363
N   N22       1.0  0.54870  0.53630  0.16720  1.0000 0.1414317363
N   N23       1.0  0.04870  0.46370  0.66720  1.0000 0.1414317363
N   N24       1.0  0.95130  0.03630  0.66720  1.0000 0.1414317363
O   O1        1.0  0.55240  0.34990  0.58230  1.0000 -0.5045950334
O   O2        1.0  0.44760  0.15010  0.58230  1.0000 -0.5045950334
O   O3        1.0  0.94760  0.84990  0.08230  1.0000 -0.5045950334
O   O4        1.0  0.05240  0.65010  0.08230  1.0000 -0.5045950334
O   O5        1.0  0.74040  0.27380  0.61850  1.0000 -0.5943636144
O   O6        1.0  0.25960  0.22620  0.61850  1.0000 -0.5943636144
O   O7        1.0  0.75960  0.77380  0.11850  1.0000 -0.5943636144
O   O8        1.0  0.24040  0.72620  0.11850  1.0000 -0.5943636144
O   O9        1.0  0.05240  0.15010  0.91770  1.0000 -0.5045950334
O   O10       1.0  0.94760  0.34990  0.91770  1.0000 -0.5045950334
O   O11       1.0  0.44760  0.65010  0.41770  1.0000 -0.5045950334
O   O12       1.0  0.55240  0.84990  0.41770  1.0000 -0.5045950334
O   O13       1.0  0.24040  0.22620  0.88150  1.0000 -0.5943636144
O   O14       1.0  0.75960  0.27380  0.88150  1.0000 -0.5943636144
O   O15       1.0  0.25960  0.72620  0.38150  1.0000 -0.5943636144
O   O16       1.0  0.74040  0.77380  0.38150  1.0000 -0.5943636144
