# DDEC6 charges by PACMAN v1.1 (https://github.com/mtap-research/PACMAN-charge/)
data_2012[U][qtz]3[ASR]1
_chemical_formula_sum              "U6 P12 H12 C6 O36"
_cell_length_a       11.883
_cell_length_b       11.883
_cell_length_c       18.066
_cell_angle_alpha    90
_cell_angle_beta     90
_cell_angle_gamma    120

_symmetry_space_group_name_H-M    "P 1"
_symmetry_Int_Tables_number       1

loop_
  _symmetry_equiv_pos_as_xyz
  'x, y, z'

loop_
  _atom_site_type_symbol
  _atom_site_label
  _atom_site_symmetry_multiplicity
  _atom_site_fract_x
  _atom_site_fract_y
  _atom_site_fract_z
  _atom_site_occupancy
  _atom_site_charge
U   U1        1.0  0.14348  0.58572  0.04228  1.0000 2.4090026116
U   U2        1.0  0.41428  0.55776  0.37561  1.0000 2.4045099711
U   U3        1.0  0.44224  0.85652  0.70895  1.0000 2.4090026116
U   U4        1.0  0.58572  0.14348  0.95772  1.0000 2.4164294696
U   U5        1.0  0.55776  0.41428  0.62439  1.0000 2.4090026116
U   U6        1.0  0.85652  0.44224  0.29105  1.0000 2.4090026116
P   P1        1.0  0.48710  0.82400  0.03114  1.0000 1.39985309
P   P2        1.0  0.17600  0.66310  0.36447  1.0000 1.39985309
P   P3        1.0  0.33690  0.51290  0.69781  1.0000 1.39985309
P   P4        1.0  0.82400  0.48710  0.96886  1.0000 1.3917618489
P   P5        1.0  0.66310  0.17600  0.63553  1.0000 1.3917618489
P   P6        1.0  0.51290  0.33690  0.30219  1.0000 1.39985309
P   P7        1.0  0.33880  0.82420  0.90056  1.0000 1.4506872392
P   P8        1.0  0.17580  0.51460  0.23389  1.0000 1.4506872392
P   P9        1.0  0.48540  0.66120  0.56723  1.0000 1.4506872392
P   P10       1.0  0.82420  0.33880  0.09944  1.0000 1.4506872392
P   P11       1.0  0.51460  0.17580  0.76611  1.0000 1.4557554221
P   P12       1.0  0.66120  0.48540  0.43277  1.0000 1.4506872392
H   H1        1.0  0.53730  0.83320  0.90540  1.0000 0.1531749687
H   H2        1.0  0.16680  0.70410  0.23873  1.0000 0.1531749687
H   H3        1.0  0.29590  0.46270  0.57207  1.0000 0.1531749687
H   H4        1.0  0.83320  0.53730  0.09460  1.0000 0.1531749687
H   H5        1.0  0.70410  0.16680  0.76127  1.0000 0.1531749687
H   H6        1.0  0.46270  0.29590  0.42793  1.0000 0.1531749687
H   H7        1.0  0.42270  0.69040  0.92660  1.0000 0.1898442329
H   H8        1.0  0.30960  0.73230  0.25993  1.0000 0.1898442329
H   H9        1.0  0.26770  0.57730  0.59327  1.0000 0.1898442329
H   H10       1.0  0.69040  0.42270  0.07340  1.0000 0.1898442329
H   H11       1.0  0.73230  0.30960  0.74007  1.0000 0.1898442329
H   H12       1.0  0.57730  0.26770  0.40673  1.0000 0.1898442329
C   C1        1.0  0.45560  0.78430  0.93380  1.0000 -0.821124266
C   C2        1.0  0.21570  0.67130  0.26713  1.0000 -0.821124266
C   C3        1.0  0.32870  0.54440  0.60047  1.0000 -0.821124266
C   C4        1.0  0.78430  0.45560  0.06620  1.0000 -0.821124266
C   C5        1.0  0.67130  0.21570  0.73287  1.0000 -0.821124266
C   C6        1.0  0.54440  0.32870  0.39953  1.0000 -0.821124266
O   O1        1.0  0.21180  0.73470  0.94080  1.0000 -0.789222076
O   O2        1.0  0.26530  0.47710  0.27413  1.0000 -0.789222076
O   O3        1.0  0.52290  0.78820  0.60747  1.0000 -0.8015054199
O   O4        1.0  0.73470  0.21180  0.05920  1.0000 -0.789222076
O   O5        1.0  0.47710  0.26530  0.72587  1.0000 -0.789222076
O   O6        1.0  0.78820  0.52290  0.39253  1.0000 -0.789222076
O   O7        1.0  0.31450  0.79360  0.81800  1.0000 -0.8015054199
O   O8        1.0  0.20640  0.52090  0.15133  1.0000 -0.8015054199
O   O9        1.0  0.47910  0.68550  0.48467  1.0000 -0.8015054199
O   O10       1.0  0.79360  0.31450  0.18200  1.0000 -0.8015054199
O   O11       1.0  0.52090  0.20640  0.84867  1.0000 -0.8015054199
O   O12       1.0  0.68550  0.47910  0.51533  1.0000 -0.8015054199
O   O13       1.0  0.38660  0.96560  0.91810  1.0000 -0.8765915736
O   O14       1.0  0.03440  0.42100  0.25143  1.0000 -0.8765915736
O   O15       1.0  0.57900  0.61340  0.58477  1.0000 -0.8700959786
O   O16       1.0  0.96560  0.38660  0.08190  1.0000 -0.8700959786
O   O17       1.0  0.42100  0.03440  0.74857  1.0000 -0.8765915736
O   O18       1.0  0.61340  0.57900  0.41523  1.0000 -0.8700959786
O   O19       1.0  0.53550  0.96890  0.03960  1.0000 -0.821124266
O   O20       1.0  0.03110  0.56660  0.37293  1.0000 -0.8256898427
O   O21       1.0  0.43340  0.46450  0.70627  1.0000 -0.821124266
O   O22       1.0  0.96890  0.53550  0.96040  1.0000 -0.821124266
O   O23       1.0  0.56660  0.03110  0.62707  1.0000 -0.8256898427
O   O24       1.0  0.46450  0.43340  0.29373  1.0000 -0.8256898427
O   O25       1.0  0.35650  0.74390  0.06940  1.0000 -0.8501178885
O   O26       1.0  0.25610  0.61260  0.40273  1.0000 -0.8501178885
O   O27       1.0  0.38740  0.64350  0.73607  1.0000 -0.8501178885
O   O28       1.0  0.74390  0.35650  0.93060  1.0000 -0.8444487953
O   O29       1.0  0.61260  0.25610  0.59727  1.0000 -0.8501178885
O   O30       1.0  0.64350  0.38740  0.26393  1.0000 -0.8501178885
O   O31       1.0  0.58480  0.78860  0.05990  1.0000 -0.6413759395
O   O32       1.0  0.21140  0.79620  0.39323  1.0000 -0.6413759395
O   O33       1.0  0.20380  0.41520  0.72657  1.0000 -0.6413759395
O   O34       1.0  0.78860  0.58480  0.94010  1.0000 -0.6413759395
O   O35       1.0  0.79620  0.21140  0.60677  1.0000 -0.6413759395
O   O36       1.0  0.41520  0.20380  0.27343  1.0000 -0.6413759395
