# DDEC6 charges by PACMAN v1.1 (https://github.com/mtap-research/PACMAN-charge/)
data_2012[Cd][crs]3[ASR]1
_chemical_formula_sum              "Cd8 H64 C128 Br8 N24 O32"
_cell_length_a       17.6211
_cell_length_b       17.6211
_cell_length_c       17.6211
_cell_angle_alpha    102.756
_cell_angle_beta     102.756
_cell_angle_gamma    123.946

_symmetry_space_group_name_H-M    "P 1"
_symmetry_Int_Tables_number       1

loop_
  _symmetry_equiv_pos_as_xyz
  'x, y, z'

loop_
  _atom_site_type_symbol
  _atom_site_label
  _atom_site_symmetry_multiplicity
  _atom_site_fract_x
  _atom_site_fract_y
  _atom_site_fract_z
  _atom_site_occupancy
  _atom_site_charge
Cd  Cd1       1.0  0.68459  0.50329  0.34182  1.0000 0.8583984499
Cd  Cd2       1.0  0.16147  0.34277  0.65818  1.0000 0.8583984499
Cd  Cd3       1.0  0.59277  0.43459  0.68130  1.0000 0.8583984499
Cd  Cd4       1.0  0.75329  0.91147  0.31870  1.0000 0.8583984499
Cd  Cd5       1.0  0.56541  0.24671  0.15818  1.0000 0.8583984499
Cd  Cd6       1.0  0.08853  0.40723  0.84182  1.0000 0.8583984499
Cd  Cd7       1.0  0.65723  0.31541  0.81870  1.0000 0.8583984499
Cd  Cd8       1.0  0.49671  0.83853  0.18130  1.0000 0.8583984499
H   H1        1.0  0.80330  0.63750  0.68260  1.0000 0.1385413936
H   H2        1.0  0.95490  0.12070  0.31740  1.0000 0.1385413936
H   H3        1.0  0.37070  0.55330  0.66580  1.0000 0.1385413936
H   H4        1.0  0.88750  0.70490  0.33420  1.0000 0.1385413936
H   H5        1.0  0.44670  0.11250  0.81740  1.0000 0.1385413936
H   H6        1.0  0.29510  0.62930  0.18260  1.0000 0.1385413936
H   H7        1.0  0.87930  0.19670  0.83420  1.0000 0.1385413936
H   H8        1.0  0.36250  0.04510  0.16580  1.0000 0.1385413936
H   H9        1.0  0.89410  0.81120  0.75030  1.0000 0.1385413936
H   H10       1.0  0.06090  0.14380  0.24970  1.0000 0.1385413936
H   H11       1.0  0.39380  0.64410  0.58290  1.0000 0.1385413936
H   H12       1.0  0.06120  0.81090  0.41710  1.0000 0.1385413936
H   H13       1.0  0.35590  0.93880  0.74970  1.0000 0.1385413936
H   H14       1.0  0.18910  0.60620  0.25030  1.0000 0.1385413936
H   H15       1.0  0.85620  0.10590  0.91710  1.0000 0.1385413936
H   H16       1.0  0.18880  0.93910  0.08290  1.0000 0.1385413936
H   H17       1.0  0.72680  0.79780  0.54520  1.0000 0.1457465881
H   H18       1.0  0.25260  0.18160  0.45480  1.0000 0.1457465881
H   H19       1.0  0.43160  0.47680  0.42900  1.0000 0.1457465881
H   H20       1.0  0.04780  0.00260  0.57100  1.0000 0.1457465881
H   H21       1.0  0.52320  0.95220  0.95480  1.0000 0.1457465881
H   H22       1.0  0.99740  0.56840  0.04520  1.0000 0.1457465881
H   H23       1.0  0.81840  0.27320  0.07100  1.0000 0.1457465881
H   H24       1.0  0.20220  0.74740  0.92900  1.0000 0.1457465881
H   H25       1.0  0.63860  0.62580  0.47620  1.0000 0.1259531708
H   H26       1.0  0.14960  0.16240  0.52380  1.0000 0.1259531708
H   H27       1.0  0.41240  0.38860  0.51280  1.0000 0.1259531708
H   H28       1.0  0.87580  0.89960  0.48720  1.0000 0.1259531708
H   H29       1.0  0.61140  0.12420  0.02380  1.0000 0.1259531708
H   H30       1.0  0.10040  0.58760  0.97620  1.0000 0.1259531708
H   H31       1.0  0.83760  0.36140  0.98720  1.0000 0.1259531708
H   H32       1.0  0.37420  0.85040  0.01280  1.0000 0.1259531708
H   H33       1.0  0.85980  0.59790  0.52850  1.0000 0.1163676158
H   H34       1.0  0.06940  0.33130  0.47150  1.0000 0.1163676158
H   H35       1.0  0.58130  0.60980  0.76190  1.0000 0.1163676158
H   H36       1.0  0.84790  0.81940  0.23810  1.0000 0.1163676158
H   H37       1.0  0.39020  0.15210  0.97150  1.0000 0.1163676158
H   H38       1.0  0.18060  0.41870  0.02850  1.0000 0.1163676158
H   H39       1.0  0.66870  0.14020  0.73810  1.0000 0.1163676158
H   H40       1.0  0.40210  0.93060  0.26190  1.0000 0.1163676158
H   H41       1.0  0.97610  0.58300  0.59030  1.0000 0.1603633402
H   H42       1.0  0.99270  0.38580  0.40970  1.0000 0.1603633402
H   H43       1.0  0.63580  0.72610  0.89310  1.0000 0.1603633402
H   H44       1.0  0.83300  0.74270  0.10690  1.0000 0.1603633402
H   H45       1.0  0.27390  0.16700  0.90970  1.0000 0.1603633402
H   H46       1.0  0.25730  0.36420  0.09030  1.0000 0.1603633402
H   H47       1.0  0.61420  0.02390  0.60690  1.0000 0.1603633402
H   H48       1.0  0.41700  0.00730  0.39310  1.0000 0.1603633402
H   H49       1.0  0.97570  0.49260  0.36150  1.0000 0.1385413936
H   H50       1.0  0.13110  0.61420  0.63850  1.0000 0.1385413936
H   H51       1.0  0.86420  0.72570  0.98310  1.0000 0.1385413936
H   H52       1.0  0.74260  0.88110  0.01690  1.0000 0.1385413936
H   H53       1.0  0.27430  0.25740  0.13850  1.0000 0.1385413936
H   H54       1.0  0.11890  0.13580  0.86150  1.0000 0.1385413936
H   H55       1.0  0.38580  0.02430  0.51690  1.0000 0.1385413936
H   H56       1.0  0.50740  0.86890  0.48310  1.0000 0.1385413936
H   H57       1.0  0.85740  0.50900  0.30540  1.0000 0.1163676158
H   H58       1.0  0.20360  0.55200  0.69460  1.0000 0.1163676158
H   H59       1.0  0.80200  0.60740  0.84840  1.0000 0.1163676158
H   H60       1.0  0.75900  0.95360  0.15160  1.0000 0.1163676158
H   H61       1.0  0.39260  0.24100  0.19460  1.0000 0.1163676158
H   H62       1.0  0.04640  0.19800  0.80540  1.0000 0.1163676158
H   H63       1.0  0.44800  0.14260  0.65160  1.0000 0.1163676158
H   H64       1.0  0.49100  0.79640  0.34840  1.0000 0.1163676158
C   C1        1.0  0.54607  0.28551  0.34038  1.0000 0.5660621053
C   C2        1.0  0.94513  0.20569  0.65962  1.0000 0.5660621053
C   C3        1.0  0.45569  0.29607  0.76056  1.0000 0.5660621053
C   C4        1.0  0.53551  0.69513  0.23944  1.0000 0.5660621053
C   C5        1.0  0.70393  0.46449  0.15962  1.0000 0.5660621053
C   C6        1.0  0.30487  0.54431  0.84038  1.0000 0.5660621053
C   C7        1.0  0.79431  0.45393  0.73944  1.0000 0.5660621053
C   C8        1.0  0.71449  0.05487  0.26056  1.0000 0.5660621053
C   C9        1.0  0.57654  0.35819  0.42413  1.0000 0.0277832056
C   C10       1.0  0.93406  0.15241  0.57587  1.0000 0.0277832056
C   C11       1.0  0.40241  0.32654  0.71835  1.0000 0.0277832056
C   C12       1.0  0.60819  0.68406  0.28165  1.0000 0.0277832056
C   C13       1.0  0.67346  0.39181  0.07587  1.0000 0.0277832056
C   C14       1.0  0.31594  0.59759  0.92413  1.0000 0.0277832056
C   C15       1.0  0.84759  0.42346  0.78165  1.0000 0.0277832056
C   C16       1.0  0.64181  0.06594  0.21835  1.0000 0.0277832056
C   C17       1.0  0.55533  0.34407  0.49320  1.0000 0.0206037883
C   C18       1.0  0.85087  0.06213  0.50680  1.0000 0.0206037883
C   C19       1.0  0.31213  0.30533  0.71126  1.0000 0.0206037883
C   C20       1.0  0.59407  0.60087  0.28874  1.0000 0.0206037883
C   C21       1.0  0.69467  0.40593  0.00680  1.0000 0.0206037883
C   C22       1.0  0.39913  0.68787  0.99320  1.0000 0.0206037883
C   C23       1.0  0.93787  0.44467  0.78874  1.0000 0.0206037883
C   C24       1.0  0.65593  0.14913  0.21126  1.0000 0.0206037883
C   C25       1.0  0.48762  0.25192  0.50354  1.0000 0.5443667894
C   C26       1.0  0.74838  0.98408  0.49646  1.0000 0.5443667894
C   C27       1.0  0.23408  0.23762  0.73570  1.0000 0.5443667894
C   C28       1.0  0.50192  0.49838  0.26430  1.0000 0.5443667894
C   C29       1.0  0.76238  0.49808  0.99646  1.0000 0.5443667894
C   C30       1.0  0.50162  0.76592  0.00354  1.0000 0.5443667894
C   C31       1.0  0.01592  0.51238  0.76430  1.0000 0.5443667894
C   C32       1.0  0.74808  0.25162  0.23570  1.0000 0.5443667894
C   C33       1.0  0.65398  0.50416  0.52674  1.0000 0.3159127882
C   C34       1.0  0.97742  0.12724  0.47326  1.0000 0.3159127882
C   C35       1.0  0.37724  0.40398  0.64982  1.0000 0.3159127882
C   C36       1.0  0.75416  0.72742  0.35018  1.0000 0.3159127882
C   C37       1.0  0.59602  0.24584  0.97326  1.0000 0.3159127882
C   C38       1.0  0.27258  0.62276  0.02674  1.0000 0.3159127882
C   C39       1.0  0.87276  0.34602  0.85018  1.0000 0.3159127882
C   C40       1.0  0.49584  0.02258  0.14982  1.0000 0.3159127882
C   C41       1.0  0.71241  0.61465  0.57266  1.0000 0.0206037883
C   C42       1.0  0.04199  0.13975  0.42734  1.0000 0.0206037883
C   C43       1.0  0.38975  0.46241  0.59776  1.0000 0.0206037883
C   C44       1.0  0.86465  0.79199  0.40224  1.0000 0.0206037883
C   C45       1.0  0.53759  0.13535  0.92734  1.0000 0.0206037883
C   C46       1.0  0.20801  0.61025  0.07266  1.0000 0.0206037883
C   C47       1.0  0.86025  0.28759  0.90224  1.0000 0.0206037883
C   C48       1.0  0.38535  0.95801  0.09776  1.0000 0.0206037883
C   C49       1.0  0.78820  0.66950  0.65450  1.0000 -0.1034441876
C   C50       1.0  0.01500  0.13370  0.34550  1.0000 -0.1034441876
C   C51       1.0  0.38370  0.53820  0.61870  1.0000 -0.1034441876
C   C52       1.0  0.91950  0.76500  0.38130  1.0000 -0.1034441876
C   C53       1.0  0.46180  0.08050  0.84550  1.0000 -0.1034441876
C   C54       1.0  0.23500  0.61630  0.15450  1.0000 -0.1034441876
C   C55       1.0  0.86630  0.21180  0.88130  1.0000 -0.1034441876
C   C56       1.0  0.33050  0.98500  0.11870  1.0000 -0.1034441876
C   C57       1.0  0.84230  0.77320  0.69510  1.0000 -0.1418699703
C   C58       1.0  0.07810  0.14720  0.30490  1.0000 -0.1418699703
C   C59       1.0  0.39720  0.59230  0.56910  1.0000 -0.1418699703
C   C60       1.0  0.02320  0.82810  0.43090  1.0000 -0.1418699703
C   C61       1.0  0.40770  0.97680  0.80490  1.0000 -0.1418699703
C   C62       1.0  0.17190  0.60280  0.19510  1.0000 -0.1418699703
C   C63       1.0  0.85280  0.15770  0.93090  1.0000 -0.1418699703
C   C64       1.0  0.22680  0.92190  0.06910  1.0000 -0.1418699703
C   C65       1.0  0.81850  0.81850  0.65300  1.0000 0.1012328364
C   C66       1.0  0.16550  0.16550  0.34700  1.0000 0.1012328364
C   C67       1.0  0.41550  0.56850  0.50000  1.0000 0.1012328364
C   C68       1.0  0.06850  0.91550  0.50000  1.0000 0.1012328364
C   C69       1.0  0.43150  0.93150  0.84700  1.0000 0.1012328364
C   C70       1.0  0.08450  0.58450  0.15300  1.0000 0.1012328364
C   C71       1.0  0.83450  0.18150  0.00000  1.0000 0.1012328364
C   C72       1.0  0.18150  0.83450  0.00000  1.0000 0.1012328364
C   C73       1.0  0.74260  0.76560  0.57220  1.0000 -0.1291422272
C   C74       1.0  0.19340  0.17040  0.42780  1.0000 -0.1291422272
C   C75       1.0  0.42040  0.49260  0.47700  1.0000 -0.1291422272
C   C76       1.0  0.01560  0.94340  0.52300  1.0000 -0.1291422272
C   C77       1.0  0.50740  0.98440  0.92780  1.0000 -0.1291422272
C   C78       1.0  0.05660  0.57960  0.07220  1.0000 -0.1291422272
C   C79       1.0  0.82960  0.25740  0.02300  1.0000 -0.1291422272
C   C80       1.0  0.23440  0.80660  0.97700  1.0000 -0.1291422272
C   C81       1.0  0.68980  0.66300  0.53160  1.0000 -0.1034441876
C   C82       1.0  0.13140  0.15820  0.46840  1.0000 -0.1034441876
C   C83       1.0  0.40820  0.43980  0.52680  1.0000 -0.1034441876
C   C84       1.0  0.91300  0.88140  0.47320  1.0000 -0.1034441876
C   C85       1.0  0.56020  0.08700  0.96840  1.0000 -0.1034441876
C   C86       1.0  0.11860  0.59180  0.03160  1.0000 -0.1034441876
C   C87       1.0  0.84180  0.31020  0.97320  1.0000 -0.1034441876
C   C88       1.0  0.33700  0.86860  0.02680  1.0000 -0.1034441876
C   C89       1.0  0.88160  0.57410  0.49390  1.0000 0.0798186896
C   C90       1.0  0.08020  0.38770  0.50610  1.0000 0.0798186896
C   C91       1.0  0.63770  0.63160  0.80750  1.0000 0.0798186896
C   C92       1.0  0.82410  0.83020  0.19250  1.0000 0.0798186896
C   C93       1.0  0.36840  0.17590  0.00610  1.0000 0.0798186896
C   C94       1.0  0.16980  0.36230  0.99390  1.0000 0.0798186896
C   C95       1.0  0.61230  0.11840  0.69250  1.0000 0.0798186896
C   C96       1.0  0.42590  0.91980  0.30750  1.0000 0.0798186896
C   C97       1.0  0.95142  0.56510  0.53152  1.0000 -0.1546293522
C   C98       1.0  0.03358  0.41990  0.46848  1.0000 -0.1546293522
C   C99       1.0  0.66990  0.70142  0.88632  1.0000 -0.1546293522
C   C100      1.0  0.81510  0.78358  0.11368  1.0000 -0.1546293522
C   C101      1.0  0.29858  0.18490  0.96848  1.0000 -0.1546293522
C   C102      1.0  0.21642  0.33010  0.03152  1.0000 -0.1546293522
C   C103      1.0  0.58010  0.04858  0.61368  1.0000 -0.1546293522
C   C104      1.0  0.43490  0.96642  0.38632  1.0000 -0.1546293522
C   C105      1.0  0.98525  0.52909  0.48174  1.0000 0.1125041743
C   C106      1.0  0.04735  0.50351  0.51826  1.0000 0.1125041743
C   C107      1.0  0.75351  0.73525  0.95616  1.0000 0.1125041743
C   C108      1.0  0.77909  0.79735  0.04384  1.0000 0.1125041743
C   C109      1.0  0.26475  0.22091  0.01826  1.0000 0.1125041743
C   C110      1.0  0.20265  0.24649  0.98174  1.0000 0.1125041743
C   C111      1.0  0.49649  0.01475  0.54384  1.0000 0.1125041743
C   C112      1.0  0.47091  0.95265  0.45616  1.0000 0.1125041743
C   C113      1.0  0.95125  0.51148  0.39653  1.0000 -0.1546293522
C   C114      1.0  0.11495  0.55472  0.60347  1.0000 -0.1553011412
C   C115      1.0  0.80472  0.70125  0.93977  1.0000 -0.1553011412
C   C116      1.0  0.76148  0.86495  0.06023  1.0000 -0.1553011412
C   C117      1.0  0.29875  0.23852  0.10347  1.0000 -0.1553011412
C   C118      1.0  0.13505  0.19528  0.89653  1.0000 -0.1553011412
C   C119      1.0  0.44528  0.04875  0.56023  1.0000 -0.1553011412
C   C120      1.0  0.48852  0.88505  0.43977  1.0000 -0.1553011412
C   C121      1.0  0.88016  0.52228  0.36324  1.0000 0.1163676158
C   C122      1.0  0.15904  0.51692  0.63676  1.0000 0.1163676158
C   C123      1.0  0.76692  0.63016  0.85788  1.0000 0.1163676158
C   C124      1.0  0.77228  0.90904  0.14212  1.0000 0.1163676158
C   C125      1.0  0.36984  0.22772  0.13676  1.0000 0.1163676158
C   C126      1.0  0.09096  0.23308  0.86324  1.0000 0.1163676158
C   C127      1.0  0.48308  0.11984  0.64212  1.0000 0.1163676158
C   C128      1.0  0.47772  0.84096  0.35788  1.0000 0.1163676158
Br  Br1       1.0  0.89383  0.96062  0.70697  1.0000 -0.0323932419
Br  Br2       1.0  0.25365  0.18686  0.29303  1.0000 -0.0323932419
Br  Br3       1.0  0.43686  0.64383  0.43321  1.0000 -0.0323932419
Br  Br4       1.0  0.21062  0.00365  0.56679  1.0000 -0.0323932419
Br  Br5       1.0  0.35617  0.78938  0.79303  1.0000 -0.0323932419
Br  Br6       1.0  0.99635  0.56314  0.20697  1.0000 -0.0323932419
Br  Br7       1.0  0.81314  0.10617  0.06679  1.0000 -0.0323932419
Br  Br8       1.0  0.03938  0.74635  0.93321  1.0000 -0.0323932419
N   N1        1.0  0.63908  0.46037  0.44605  1.0000 -0.3775027233
N   N2        1.0  0.01432  0.19303  0.55395  1.0000 -0.3775027233
N   N3        1.0  0.44303  0.38908  0.67871  1.0000 -0.3775027233
N   N4        1.0  0.71037  0.76432  0.32129  1.0000 -0.3775027233
N   N5        1.0  0.61092  0.28963  0.05395  1.0000 -0.3775027233
N   N6        1.0  0.23568  0.55697  0.94605  1.0000 -0.3775027233
N   N7        1.0  0.80697  0.36092  0.82129  1.0000 -0.3775027233
N   N8        1.0  0.53963  0.98568  0.17871  1.0000 -0.3775027233
N   N9        1.0  0.60558  0.43733  0.55845  1.0000 -0.3775027233
N   N10       1.0  0.87888  0.04713  0.44155  1.0000 -0.3775027233
N   N11       1.0  0.29713  0.35558  0.66825  1.0000 -0.3775027233
N   N12       1.0  0.68733  0.62888  0.33175  1.0000 -0.3775027233
N   N13       1.0  0.64442  0.31267  0.94155  1.0000 -0.3775027233
N   N14       1.0  0.37112  0.70287  0.05845  1.0000 -0.3775027233
N   N15       1.0  0.95287  0.39442  0.83175  1.0000 -0.3775027233
N   N16       1.0  0.56267  0.12112  0.16825  1.0000 -0.3775027233
N   N17       1.0  0.84331  0.55030  0.40961  1.0000 -0.241965572
N   N18       1.0  0.14069  0.43370  0.59039  1.0000 -0.241965572
N   N19       1.0  0.68370  0.59331  0.79301  1.0000 -0.241965572
N   N20       1.0  0.80030  0.89069  0.20699  1.0000 -0.241965572
N   N21       1.0  0.40669  0.19970  0.09039  1.0000 -0.241965572
N   N22       1.0  0.10931  0.31630  0.90961  1.0000 -0.241965572
N   N23       1.0  0.56630  0.15669  0.70699  1.0000 -0.241965572
N   N24       1.0  0.44970  0.85931  0.29301  1.0000 -0.241965572
O   O1        1.0  0.47974  0.25901  0.57235  1.0000 -0.5093795086
O   O2        1.0  0.68666  0.90739  0.42765  1.0000 -0.5093795086
O   O3        1.0  0.15739  0.22974  0.72073  1.0000 -0.5093795086
O   O4        1.0  0.50901  0.43666  0.27927  1.0000 -0.5093795086
O   O5        1.0  0.77026  0.49099  0.92765  1.0000 -0.5093795086
O   O6        1.0  0.56334  0.84261  0.07235  1.0000 -0.5093795086
O   O7        1.0  0.09261  0.52026  0.77927  1.0000 -0.5093795086
O   O8        1.0  0.74099  0.31334  0.22073  1.0000 -0.5093795086
O   O9        1.0  0.43568  0.16494  0.43870  1.0000 -0.5093795086
O   O10       1.0  0.72624  0.99698  0.56130  1.0000 -0.5093795086
O   O11       1.0  0.24698  0.18568  0.77074  1.0000 -0.5093795086
O   O12       1.0  0.41494  0.47624  0.22926  1.0000 -0.5093795086
O   O13       1.0  0.81432  0.58506  0.06130  1.0000 -0.5093795086
O   O14       1.0  0.52376  0.75302  0.93870  1.0000 -0.5093795086
O   O15       1.0  0.00302  0.56432  0.72926  1.0000 -0.5093795086
O   O16       1.0  0.83506  0.27376  0.27074  1.0000 -0.5093795086
O   O17       1.0  0.48108  0.19231  0.31807  1.0000 -0.4872209529
O   O18       1.0  0.87424  0.16301  0.68193  1.0000 -0.4872209529
O   O19       1.0  0.41301  0.23108  0.78877  1.0000 -0.4872209529
O   O20       1.0  0.44231  0.62424  0.21123  1.0000 -0.4872209529
O   O21       1.0  0.76892  0.55769  0.18193  1.0000 -0.4872209529
O   O22       1.0  0.37576  0.58699  0.81807  1.0000 -0.4872209529
O   O23       1.0  0.83699  0.51892  0.71123  1.0000 -0.4872209529
O   O24       1.0  0.80769  0.12576  0.28877  1.0000 -0.4872209529
O   O25       1.0  0.58757  0.32208  0.29355  1.0000 -0.5209854196
O   O26       1.0  0.02853  0.29402  0.70645  1.0000 -0.5209854196
O   O27       1.0  0.54402  0.33757  0.76549  1.0000 -0.5209854196
O   O28       1.0  0.57208  0.77853  0.23451  1.0000 -0.5209854196
O   O29       1.0  0.66243  0.42792  0.20645  1.0000 -0.5209854196
O   O30       1.0  0.22147  0.45598  0.79355  1.0000 -0.5209854196
O   O31       1.0  0.70598  0.41243  0.73451  1.0000 -0.5209854196
O   O32       1.0  0.67792  0.97147  0.26549  1.0000 -0.5209854196
