# DDEC6 charges by PACMAN v1.1 (https://github.com/mtap-research/PACMAN-charge/)
data_2012[Cd][nan]3[ASR]2
_chemical_formula_sum              "Cd10 H120 C216 O48"
_cell_length_a       19.8466
_cell_length_b       19.8466
_cell_length_c       27.824
_cell_angle_alpha    60.761
_cell_angle_beta     119.239
_cell_angle_gamma    129.219

_symmetry_space_group_name_H-M    "P 1"
_symmetry_Int_Tables_number       1

loop_
  _symmetry_equiv_pos_as_xyz
  'x, y, z'

loop_
  _atom_site_type_symbol
  _atom_site_label
  _atom_site_symmetry_multiplicity
  _atom_site_fract_x
  _atom_site_fract_y
  _atom_site_fract_z
  _atom_site_occupancy
  _atom_site_charge
Cd  Cd1       1.0  0.56340  0.83826  0.54793  1.0000 1.0060451933
Cd  Cd2       1.0  0.83826  0.56340  0.95207  1.0000 1.0060451933
Cd  Cd3       1.0  0.43660  0.16174  0.45207  1.0000 1.0060451933
Cd  Cd4       1.0  0.16174  0.43660  0.04793  1.0000 1.0060451933
Cd  Cd5       1.0  0.65960  0.69532  0.62953  1.0000 1.0226127514
Cd  Cd6       1.0  0.69532  0.65960  0.87047  1.0000 1.0226127514
Cd  Cd7       1.0  0.34040  0.30468  0.37047  1.0000 1.0226127514
Cd  Cd8       1.0  0.30468  0.34040  0.12953  1.0000 1.0226127514
Cd  Cd9       1.0  0.50000  0.00000  0.50000  1.0000 1.1085687884
Cd  Cd10      1.0  0.00000  0.50000  0.00000  1.0000 1.1085687884
H   H1        1.0  0.04260  0.45520  0.46720  1.0000 0.1203030286
H   H2        1.0  0.45520  0.04260  0.03280  1.0000 0.1203030286
H   H3        1.0  0.95740  0.54480  0.53280  1.0000 0.1203030286
H   H4        1.0  0.54480  0.95740  0.96720  1.0000 0.1203030286
H   H5        1.0  0.88480  0.44280  0.30680  1.0000 0.1203030286
H   H6        1.0  0.44280  0.88480  0.19320  1.0000 0.1203030286
H   H7        1.0  0.11520  0.55720  0.69320  1.0000 0.1203030286
H   H8        1.0  0.55720  0.11520  0.80680  1.0000 0.1203030286
H   H9        1.0  0.15320  0.56280  0.34090  1.0000 0.1120167977
H   H10       1.0  0.56280  0.15320  0.15910  1.0000 0.1120167977
H   H11       1.0  0.84680  0.43720  0.65910  1.0000 0.1120167977
H   H12       1.0  0.43720  0.84680  0.84090  1.0000 0.1120167977
H   H13       1.0  0.16410  0.43070  0.51780  1.0000 0.1203030286
H   H14       1.0  0.43070  0.16410  0.98220  1.0000 0.1203030286
H   H15       1.0  0.83590  0.56930  0.48220  1.0000 0.1203030286
H   H16       1.0  0.56930  0.83590  0.01780  1.0000 0.1203030286
H   H17       1.0  0.30540  0.47660  0.58370  1.0000 0.1203030286
H   H18       1.0  0.47660  0.30540  0.91630  1.0000 0.1203030286
H   H19       1.0  0.69460  0.52340  0.41630  1.0000 0.1203030286
H   H20       1.0  0.52340  0.69460  0.08370  1.0000 0.1203030286
H   H21       1.0  0.41130  0.70690  0.46500  1.0000 0.1286480648
H   H22       1.0  0.70690  0.41130  0.03500  1.0000 0.1286480648
H   H23       1.0  0.58870  0.29310  0.53500  1.0000 0.1286480648
H   H24       1.0  0.29310  0.58870  0.96500  1.0000 0.1286480648
H   H25       1.0  0.27260  0.66180  0.40090  1.0000 0.1120167977
H   H26       1.0  0.66180  0.27260  0.09910  1.0000 0.1120167977
H   H27       1.0  0.72740  0.33820  0.59910  1.0000 0.1120167977
H   H28       1.0  0.33820  0.72740  0.90090  1.0000 0.1120167977
H   H29       1.0  0.81660  0.47000  0.35260  1.0000 0.1286480648
H   H30       1.0  0.47000  0.81660  0.14740  1.0000 0.1286480648
H   H31       1.0  0.18340  0.53000  0.64740  1.0000 0.1286480648
H   H32       1.0  0.53000  0.18340  0.85260  1.0000 0.1286480648
H   H33       1.0  0.68590  0.38550  0.38010  1.0000 0.1286480648
H   H34       1.0  0.38550  0.68590  0.11990  1.0000 0.1286480648
H   H35       1.0  0.31410  0.61450  0.61990  1.0000 0.1286480648
H   H36       1.0  0.61450  0.31410  0.88010  1.0000 0.1286480648
H   H37       1.0  0.75340  0.20300  0.49520  1.0000 0.1286480648
H   H38       1.0  0.20300  0.75340  0.00480  1.0000 0.1286480648
H   H39       1.0  0.24660  0.79700  0.50480  1.0000 0.1286480648
H   H40       1.0  0.79700  0.24660  0.99520  1.0000 0.1286480648
H   H41       1.0  0.88960  0.28840  0.47270  1.0000 0.1203030286
H   H42       1.0  0.28840  0.88960  0.02730  1.0000 0.1203030286
H   H43       1.0  0.11040  0.71160  0.52730  1.0000 0.1203030286
H   H44       1.0  0.71160  0.11040  0.97270  1.0000 0.1203030286
H   H45       1.0  0.90470  0.54650  0.21710  1.0000 0.1203030286
H   H46       1.0  0.54650  0.90470  0.28290  1.0000 0.1203030286
H   H47       1.0  0.09530  0.45350  0.78290  1.0000 0.1203030286
H   H48       1.0  0.45350  0.09530  0.71710  1.0000 0.1203030286
H   H49       1.0  0.87760  0.55300  0.12490  1.0000 0.1286480648
H   H50       1.0  0.55300  0.87760  0.37510  1.0000 0.1286480648
H   H51       1.0  0.12240  0.44700  0.87510  1.0000 0.1203030286
H   H52       1.0  0.44700  0.12240  0.62490  1.0000 0.1203030286
H   H53       1.0  0.07490  0.50910  0.17350  1.0000 0.1203030286
H   H54       1.0  0.50910  0.07490  0.32650  1.0000 0.1203030286
H   H55       1.0  0.92510  0.49090  0.82650  1.0000 0.1203030286
H   H56       1.0  0.49090  0.92510  0.67350  1.0000 0.1203030286
H   H57       1.0  0.09980  0.49680  0.26720  1.0000 0.1203030286
H   H58       1.0  0.49680  0.09980  0.23280  1.0000 0.1203030286
H   H59       1.0  0.90020  0.50320  0.73280  1.0000 0.1203030286
H   H60       1.0  0.50320  0.90020  0.76720  1.0000 0.1203030286
H   H61       1.0  0.82710  0.29410  0.84540  1.0000 0.1120167977
H   H62       1.0  0.29410  0.82710  0.65460  1.0000 0.1120167977
H   H63       1.0  0.17290  0.70590  0.15460  1.0000 0.1120167977
H   H64       1.0  0.70590  0.17290  0.34540  1.0000 0.1120167977
H   H65       1.0  0.67010  0.20230  0.70610  1.0000 0.1120167977
H   H66       1.0  0.20230  0.67010  0.79390  1.0000 0.1120167977
H   H67       1.0  0.32990  0.79770  0.29390  1.0000 0.1120167977
H   H68       1.0  0.79770  0.32990  0.20610  1.0000 0.1120167977
H   H69       1.0  0.84590  0.12470  0.82180  1.0000 0.1203030286
H   H70       1.0  0.12470  0.84590  0.67820  1.0000 0.1203030286
H   H71       1.0  0.15410  0.87530  0.17820  1.0000 0.1203030286
H   H72       1.0  0.87530  0.15410  0.32180  1.0000 0.1203030286
H   H73       1.0  0.99450  0.20570  0.87350  1.0000 0.1203030286
H   H74       1.0  0.20570  0.99450  0.62650  1.0000 0.1203030286
H   H75       1.0  0.00550  0.79430  0.12650  1.0000 0.1203030286
H   H76       1.0  0.79430  0.00550  0.37350  1.0000 0.1203030286
H   H77       1.0  0.11510  0.22950  0.95490  1.0000 0.1203030286
H   H78       1.0  0.22950  0.11510  0.54510  1.0000 0.1203030286
H   H79       1.0  0.88490  0.77050  0.04510  1.0000 0.1203030286
H   H80       1.0  0.77050  0.88490  0.45490  1.0000 0.1203030286
H   H81       1.0  0.98950  0.25050  0.02010  1.0000 0.1286480648
H   H82       1.0  0.25050  0.98950  0.47990  1.0000 0.1286480648
H   H83       1.0  0.01050  0.74950  0.97990  1.0000 0.1286480648
H   H84       1.0  0.74950  0.01050  0.52010  1.0000 0.1286480648
H   H85       1.0  0.87080  0.22840  0.93850  1.0000 0.1120167977
H   H86       1.0  0.22840  0.87080  0.56150  1.0000 0.1203030286
H   H87       1.0  0.12920  0.77160  0.06150  1.0000 0.1203030286
H   H88       1.0  0.77160  0.12920  0.43850  1.0000 0.1120167977
H   H89       1.0  0.73560  0.33540  0.82340  1.0000 0.1120167977
H   H90       1.0  0.33540  0.73560  0.67660  1.0000 0.1120167977
H   H91       1.0  0.26440  0.66460  0.17660  1.0000 0.1120167977
H   H92       1.0  0.66460  0.26440  0.32340  1.0000 0.1120167977
H   H93       1.0  0.70480  0.44820  0.78880  1.0000 0.1286480648
H   H94       1.0  0.44820  0.70480  0.71120  1.0000 0.1286480648
H   H95       1.0  0.29520  0.55180  0.21120  1.0000 0.1286480648
H   H96       1.0  0.55180  0.29520  0.28880  1.0000 0.1286480648
H   H97       1.0  0.64540  0.44780  0.62900  1.0000 0.1286480648
H   H98       1.0  0.44780  0.64540  0.87100  1.0000 0.1286480648
H   H99       1.0  0.35460  0.55220  0.37100  1.0000 0.1286480648
H   H100      1.0  0.55220  0.35460  0.12900  1.0000 0.1286480648
H   H101      1.0  0.67590  0.33610  0.66280  1.0000 0.1120167977
H   H102      1.0  0.33610  0.67590  0.83720  1.0000 0.1120167977
H   H103      1.0  0.32410  0.66390  0.33720  1.0000 0.1120167977
H   H104      1.0  0.66390  0.32410  0.16280  1.0000 0.1120167977
H   H105      1.0  0.73030  0.99390  0.78680  1.0000 0.1286480648
H   H106      1.0  0.99390  0.73030  0.71320  1.0000 0.1286480648
H   H107      1.0  0.26970  0.00610  0.21320  1.0000 0.1286480648
H   H108      1.0  0.00610  0.26970  0.28680  1.0000 0.1286480648
H   H109      1.0  0.67960  0.90640  0.73130  1.0000 0.1286480648
H   H110      1.0  0.90640  0.67960  0.76870  1.0000 0.1286480648
H   H111      1.0  0.32040  0.09360  0.26870  1.0000 0.1286480648
H   H112      1.0  0.09360  0.32040  0.23130  1.0000 0.1286480648
H   H113      1.0  0.66780  0.10400  0.59130  1.0000 0.1286480648
H   H114      1.0  0.10400  0.66780  0.90870  1.0000 0.1286480648
H   H115      1.0  0.33220  0.89600  0.40870  1.0000 0.1286480648
H   H116      1.0  0.89600  0.33220  0.09130  1.0000 0.1286480648
H   H117      1.0  0.71140  0.18860  0.64600  1.0000 0.1203030286
H   H118      1.0  0.18860  0.71140  0.85400  1.0000 0.1203030286
H   H119      1.0  0.28860  0.81140  0.35400  1.0000 0.1203030286
H   H120      1.0  0.81140  0.28860  0.14600  1.0000 0.1203030286
C   C1        1.0  0.11180  0.51380  0.41070  1.0000 0.0808585691
C   C2        1.0  0.51380  0.11180  0.08930  1.0000 0.0808585691
C   C3        1.0  0.88820  0.48620  0.58930  1.0000 0.0808585691
C   C4        1.0  0.48620  0.88820  0.91070  1.0000 0.0808585691
C   C5        1.0  0.03630  0.46830  0.42880  1.0000 -0.1905936284
C   C6        1.0  0.46830  0.03630  0.07120  1.0000 -0.1905936284
C   C7        1.0  0.96370  0.53170  0.57120  1.0000 -0.1950659296
C   C8        1.0  0.53170  0.96370  0.92880  1.0000 -0.1905936284
C   C9        1.0  0.94900  0.44080  0.39020  1.0000 0.0734041065
C   C10       1.0  0.44080  0.94900  0.10980  1.0000 0.0734041065
C   C11       1.0  0.05100  0.55920  0.60980  1.0000 0.0734041065
C   C12       1.0  0.55920  0.05100  0.89020  1.0000 0.0734041065
C   C13       1.0  0.94140  0.46020  0.33290  1.0000 -0.1905936284
C   C14       1.0  0.46020  0.94140  0.16710  1.0000 -0.1905936284
C   C15       1.0  0.05860  0.53980  0.66710  1.0000 -0.1905936284
C   C16       1.0  0.53980  0.05860  0.83290  1.0000 -0.1905936284
C   C17       1.0  0.01630  0.50470  0.31390  1.0000 0.0881187356
C   C18       1.0  0.50470  0.01630  0.18610  1.0000 0.0881187356
C   C19       1.0  0.98370  0.49530  0.68610  1.0000 0.0881187356
C   C20       1.0  0.49530  0.98370  0.81390  1.0000 0.0881187356
C   C21       1.0  0.10240  0.53220  0.35330  1.0000 -0.1905936284
C   C22       1.0  0.53220  0.10240  0.14670  1.0000 -0.1905936284
C   C23       1.0  0.89760  0.46780  0.64670  1.0000 -0.1905936284
C   C24       1.0  0.46780  0.89760  0.85330  1.0000 -0.1905936284
C   C25       1.0  0.20220  0.54280  0.45240  1.0000 0.0808585691
C   C26       1.0  0.54280  0.20220  0.04760  1.0000 0.0808585691
C   C27       1.0  0.79780  0.45720  0.54760  1.0000 0.0734041065
C   C28       1.0  0.45720  0.79780  0.95240  1.0000 0.0734041065
C   C29       1.0  0.21350  0.48650  0.50730  1.0000 -0.1502086318
C   C30       1.0  0.48650  0.21350  0.99270  1.0000 -0.1502086318
C   C31       1.0  0.78650  0.51350  0.49270  1.0000 -0.1502086318
C   C32       1.0  0.51350  0.78650  0.00730  1.0000 -0.1502086318
C   C33       1.0  0.29880  0.51340  0.54670  1.0000 -0.09049456
C   C34       1.0  0.51340  0.29880  0.95330  1.0000 -0.09049456
C   C35       1.0  0.70120  0.48660  0.45330  1.0000 -0.09049456
C   C36       1.0  0.48660  0.70120  0.04670  1.0000 -0.09049456
C   C37       1.0  0.37410  0.59650  0.53000  1.0000 -0.0186702782
C   C38       1.0  0.59650  0.37410  0.97000  1.0000 -0.0186702782
C   C39       1.0  0.62590  0.40350  0.47000  1.0000 -0.0186702782
C   C40       1.0  0.40350  0.62590  0.03000  1.0000 -0.0186702782
C   C41       1.0  0.36220  0.65100  0.47590  1.0000 -0.09049456
C   C42       1.0  0.65100  0.36220  0.02410  1.0000 -0.09049456
C   C43       1.0  0.63780  0.34900  0.52410  1.0000 -0.09049456
C   C44       1.0  0.34900  0.63780  0.97590  1.0000 -0.09049456
C   C45       1.0  0.27850  0.62430  0.43770  1.0000 -0.1502086318
C   C46       1.0  0.62430  0.27850  0.06230  1.0000 -0.1502086318
C   C47       1.0  0.72150  0.37570  0.56230  1.0000 -0.1502086318
C   C48       1.0  0.37570  0.72150  0.93770  1.0000 -0.1502086318
C   C49       1.0  0.86830  0.38930  0.40950  1.0000 0.0734041065
C   C50       1.0  0.38930  0.86830  0.09050  1.0000 0.0734041065
C   C51       1.0  0.13170  0.61070  0.59050  1.0000 0.0734041065
C   C52       1.0  0.61070  0.13170  0.90950  1.0000 0.0734041065
C   C53       1.0  0.80510  0.41670  0.38170  1.0000 -0.1502086318
C   C54       1.0  0.41670  0.80510  0.11830  1.0000 -0.1502086318
C   C55       1.0  0.19490  0.58330  0.61830  1.0000 -0.1502086318
C   C56       1.0  0.58330  0.19490  0.88170  1.0000 -0.1502086318
C   C57       1.0  0.72560  0.36500  0.39740  1.0000 -0.081199922
C   C58       1.0  0.36500  0.72560  0.10260  1.0000 -0.081199922
C   C59       1.0  0.27440  0.63500  0.60260  1.0000 -0.081199922
C   C60       1.0  0.63500  0.27440  0.89740  1.0000 -0.081199922
C   C61       1.0  0.70500  0.28400  0.43800  1.0000 -0.0323612619
C   C62       1.0  0.28400  0.70500  0.06200  1.0000 -0.0411732169
C   C63       1.0  0.29500  0.71600  0.56200  1.0000 -0.0411732169
C   C64       1.0  0.71600  0.29500  0.93800  1.0000 -0.0323612619
C   C65       1.0  0.76660  0.25680  0.46640  1.0000 -0.096939004
C   C66       1.0  0.25680  0.76660  0.03360  1.0000 -0.096939004
C   C67       1.0  0.23340  0.74320  0.53360  1.0000 -0.096939004
C   C68       1.0  0.74320  0.23340  0.96640  1.0000 -0.096939004
C   C69       1.0  0.84860  0.30780  0.45310  1.0000 -0.1585407819
C   C70       1.0  0.30780  0.84860  0.04690  1.0000 -0.1585407819
C   C71       1.0  0.15140  0.69220  0.54690  1.0000 -0.1585407819
C   C72       1.0  0.69220  0.15140  0.95310  1.0000 -0.1585407819
C   C73       1.0  0.00480  0.51820  0.25330  1.0000 0.0808585691
C   C74       1.0  0.51820  0.00480  0.24670  1.0000 0.0808585691
C   C75       1.0  0.99520  0.48180  0.74670  1.0000 0.0808585691
C   C76       1.0  0.48180  0.99520  0.75330  1.0000 0.0808585691
C   C77       1.0  0.93810  0.53710  0.20900  1.0000 -0.1585407819
C   C78       1.0  0.53710  0.93810  0.29100  1.0000 -0.1585407819
C   C79       1.0  0.06190  0.46290  0.79100  1.0000 -0.1585407819
C   C80       1.0  0.46290  0.06190  0.70900  1.0000 -0.1585407819
C   C81       1.0  0.92260  0.54180  0.15350  1.0000 -0.096939004
C   C82       1.0  0.54180  0.92260  0.34650  1.0000 -0.096939004
C   C83       1.0  0.07740  0.45820  0.84650  1.0000 -0.096939004
C   C84       1.0  0.45820  0.07740  0.65350  1.0000 -0.096939004
C   C85       1.0  0.97140  0.53040  0.13960  1.0000 -0.0323612619
C   C86       1.0  0.53040  0.97140  0.36040  1.0000 -0.0323612619
C   C87       1.0  0.02860  0.46960  0.86040  1.0000 -0.0323612619
C   C88       1.0  0.46960  0.02860  0.63960  1.0000 -0.0323612619
C   C89       1.0  0.03960  0.51500  0.18240  1.0000 -0.09049456
C   C90       1.0  0.51500  0.03960  0.31760  1.0000 -0.09049456
C   C91       1.0  0.96040  0.48500  0.81760  1.0000 -0.09049456
C   C92       1.0  0.48500  0.96040  0.68240  1.0000 -0.09049456
C   C93       1.0  0.05490  0.50830  0.23880  1.0000 -0.1395441682
C   C94       1.0  0.50830  0.05490  0.26120  1.0000 -0.1395441682
C   C95       1.0  0.94510  0.49170  0.76120  1.0000 -0.1395441682
C   C96       1.0  0.49170  0.94510  0.73880  1.0000 -0.1395441682
C   C97       1.0  0.46440  0.62160  0.57230  1.0000 0.5715960199
C   C98       1.0  0.62160  0.46440  0.92770  1.0000 0.5715960199
C   C99       1.0  0.53560  0.37840  0.42770  1.0000 0.5715960199
C   C100      1.0  0.37840  0.53560  0.07230  1.0000 0.5715960199
C   C101      1.0  0.61500  0.22180  0.45180  1.0000 0.5931723127
C   C102      1.0  0.22180  0.61500  0.04820  1.0000 0.5931723127
C   C103      1.0  0.38500  0.77820  0.54820  1.0000 0.5931723127
C   C104      1.0  0.77820  0.38500  0.95180  1.0000 0.5931723127
C   C105      1.0  0.95200  0.53540  0.07810  1.0000 0.5802288437
C   C106      1.0  0.53540  0.95200  0.42190  1.0000 0.5802288437
C   C107      1.0  0.04800  0.46460  0.92190  1.0000 0.5802288437
C   C108      1.0  0.46460  0.04800  0.57810  1.0000 0.5802288437
C   C109      1.0  0.84700  0.20840  0.84380  1.0000 0.0881187356
C   C110      1.0  0.20840  0.84700  0.65620  1.0000 0.0881187356
C   C111      1.0  0.15300  0.79160  0.15620  1.0000 0.0881187356
C   C112      1.0  0.79160  0.15300  0.34380  1.0000 0.0881187356
C   C113      1.0  0.80880  0.25900  0.82350  1.0000 -0.1798902257
C   C114      1.0  0.25900  0.80880  0.67650  1.0000 -0.1798902257
C   C115      1.0  0.19120  0.74100  0.17650  1.0000 -0.1798902257
C   C116      1.0  0.74100  0.19120  0.32350  1.0000 -0.1798902257
C   C117      1.0  0.74350  0.25990  0.77130  1.0000 0.0808585691
C   C118      1.0  0.25990  0.74350  0.72870  1.0000 0.0808585691
C   C119      1.0  0.25650  0.74010  0.22870  1.0000 0.0808585691
C   C120      1.0  0.74010  0.25650  0.27130  1.0000 0.0808585691
C   C121      1.0  0.71460  0.20420  0.74040  1.0000 -0.1905936284
C   C122      1.0  0.20420  0.71460  0.75960  1.0000 -0.1905936284
C   C123      1.0  0.28540  0.79580  0.25960  1.0000 -0.1905936284
C   C124      1.0  0.79580  0.28540  0.24040  1.0000 -0.1905936284
C   C125      1.0  0.75120  0.15140  0.75990  1.0000 0.0808585691
C   C126      1.0  0.15140  0.75120  0.74010  1.0000 0.0808585691
C   C127      1.0  0.24880  0.84860  0.24010  1.0000 0.0808585691
C   C128      1.0  0.84860  0.24880  0.25990  1.0000 0.0808585691
C   C129      1.0  0.81840  0.15660  0.81000  1.0000 -0.1905936284
C   C130      1.0  0.15660  0.81840  0.69000  1.0000 -0.1905936284
C   C131      1.0  0.18160  0.84340  0.19000  1.0000 -0.1905936284
C   C132      1.0  0.84340  0.18160  0.31000  1.0000 -0.1905936284
C   C133      1.0  0.92090  0.21510  0.89820  1.0000 0.0734041065
C   C134      1.0  0.21510  0.92090  0.60180  1.0000 0.0734041065
C   C135      1.0  0.07910  0.78490  0.10180  1.0000 0.0734041065
C   C136      1.0  0.78490  0.07910  0.39820  1.0000 0.0734041065
C   C137      1.0  0.99410  0.21530  0.90280  1.0000 -0.1502086318
C   C138      1.0  0.21530  0.99410  0.59720  1.0000 -0.1502086318
C   C139      1.0  0.00590  0.78470  0.09720  1.0000 -0.1502086318
C   C140      1.0  0.78470  0.00590  0.40280  1.0000 -0.1502086318
C   C141      1.0  0.06630  0.22990  0.95140  1.0000 -0.09049456
C   C142      1.0  0.22990  0.06630  0.54860  1.0000 -0.09049456
C   C143      1.0  0.93370  0.77010  0.04860  1.0000 -0.09049456
C   C144      1.0  0.77010  0.93370  0.45140  1.0000 -0.09049456
C   C145      1.0  0.06539  0.24521  0.99500  1.0000 -0.0186702782
C   C146      1.0  0.24521  0.06539  0.50500  1.0000 -0.0186702782
C   C147      1.0  0.93461  0.75479  0.00500  1.0000 -0.0186702782
C   C148      1.0  0.75479  0.93461  0.49500  1.0000 -0.0186702782
C   C149      1.0  0.99130  0.24270  0.99040  1.0000 -0.09049456
C   C150      1.0  0.24270  0.99130  0.50960  1.0000 -0.09049456
C   C151      1.0  0.00870  0.75730  0.00960  1.0000 -0.09049456
C   C152      1.0  0.75730  0.00870  0.49040  1.0000 -0.09049456
C   C153      1.0  0.91991  0.22869  0.94180  1.0000 -0.1342137149
C   C154      1.0  0.22869  0.91991  0.55820  1.0000 -0.1342137149
C   C155      1.0  0.08009  0.77131  0.05820  1.0000 -0.1342137149
C   C156      1.0  0.77131  0.08009  0.44180  1.0000 -0.1342137149
C   C157      1.0  0.71050  0.32290  0.74910  1.0000 0.0613584909
C   C158      1.0  0.32290  0.71050  0.75090  1.0000 0.0613584909
C   C159      1.0  0.28950  0.67710  0.25090  1.0000 0.0613584909
C   C160      1.0  0.67710  0.28950  0.24910  1.0000 0.0613584909
C   C161      1.0  0.71760  0.35780  0.78410  1.0000 -0.1502086318
C   C162      1.0  0.35780  0.71760  0.71590  1.0000 -0.1502086318
C   C163      1.0  0.28240  0.64220  0.21590  1.0000 -0.1502086318
C   C164      1.0  0.64220  0.28240  0.28410  1.0000 -0.1502086318
C   C165      1.0  0.69920  0.42560  0.76380  1.0000 -0.09049456
C   C166      1.0  0.42560  0.69920  0.73620  1.0000 -0.09049456
C   C167      1.0  0.30080  0.57440  0.23620  1.0000 -0.09049456
C   C168      1.0  0.57440  0.30080  0.26380  1.0000 -0.09049456
C   C169      1.0  0.67180  0.45920  0.70410  1.0000 0.007526932
C   C170      1.0  0.45920  0.67180  0.79590  1.0000 0.007526932
C   C171      1.0  0.32820  0.54080  0.29590  1.0000 0.007526932
C   C172      1.0  0.54080  0.32820  0.20410  1.0000 0.007526932
C   C173      1.0  0.66380  0.42520  0.66830  1.0000 -0.09049456
C   C174      1.0  0.42520  0.66380  0.83170  1.0000 -0.09049456
C   C175      1.0  0.33620  0.57480  0.33170  1.0000 -0.09049456
C   C176      1.0  0.57480  0.33620  0.16830  1.0000 -0.09049456
C   C177      1.0  0.68190  0.35830  0.68830  1.0000 -0.1585407819
C   C178      1.0  0.35830  0.68190  0.81170  1.0000 -0.1585407819
C   C179      1.0  0.31810  0.64170  0.31170  1.0000 -0.1585407819
C   C180      1.0  0.64170  0.31810  0.18830  1.0000 -0.1585407819
C   C181      1.0  0.72370  0.09730  0.72400  1.0000 0.0808585691
C   C182      1.0  0.09730  0.72370  0.77600  1.0000 0.0808585691
C   C183      1.0  0.27630  0.90270  0.27600  1.0000 0.0808585691
C   C184      1.0  0.90270  0.27630  0.22400  1.0000 0.0808585691
C   C185      1.0  0.71580  0.01580  0.74720  1.0000 -0.1395441682
C   C186      1.0  0.01580  0.71580  0.75280  1.0000 -0.1395441682
C   C187      1.0  0.28420  0.98420  0.25280  1.0000 -0.1395441682
C   C188      1.0  0.98420  0.28420  0.24720  1.0000 -0.1395441682
C   C189      1.0  0.68680  0.96360  0.71410  1.0000 -0.081199922
C   C190      1.0  0.96360  0.68680  0.78590  1.0000 -0.081199922
C   C191      1.0  0.31320  0.03640  0.28590  1.0000 -0.081199922
C   C192      1.0  0.03640  0.31320  0.21410  1.0000 -0.081199922
C   C193      1.0  0.66840  0.99700  0.65440  1.0000 -0.0411732169
C   C194      1.0  0.99700  0.66840  0.84560  1.0000 -0.0411732169
C   C195      1.0  0.33160  0.00300  0.34560  1.0000 -0.0411732169
C   C196      1.0  0.00300  0.33160  0.15440  1.0000 -0.0411732169
C   C197      1.0  0.67890  0.08090  0.63070  1.0000 -0.081199922
C   C198      1.0  0.08090  0.67890  0.86930  1.0000 -0.081199922
C   C199      1.0  0.32110  0.91910  0.36930  1.0000 -0.081199922
C   C200      1.0  0.91910  0.32110  0.13070  1.0000 -0.081199922
C   C201      1.0  0.70540  0.13200  0.66320  1.0000 -0.1395441682
C   C202      1.0  0.13200  0.70540  0.83680  1.0000 -0.1395441682
C   C203      1.0  0.29460  0.86800  0.33680  1.0000 -0.1395441682
C   C204      1.0  0.86800  0.29460  0.16320  1.0000 -0.1395441682
C   C205      1.0  0.14900  0.27240  0.04380  1.0000 0.5715960199
C   C206      1.0  0.27240  0.14900  0.45620  1.0000 0.5715960199
C   C207      1.0  0.85100  0.72760  0.95620  1.0000 0.5715960199
C   C208      1.0  0.72760  0.85100  0.54380  1.0000 0.5715960199
C   C209      1.0  0.65780  0.53820  0.68050  1.0000 0.5434333691
C   C210      1.0  0.53820  0.65780  0.81950  1.0000 0.5434333691
C   C211      1.0  0.34220  0.46180  0.31950  1.0000 0.5434333691
C   C212      1.0  0.46180  0.34220  0.18050  1.0000 0.5434333691
C   C213      1.0  0.63630  0.94170  0.61890  1.0000 0.5802288437
C   C214      1.0  0.94170  0.63630  0.88110  1.0000 0.5802288437
C   C215      1.0  0.36370  0.05830  0.38110  1.0000 0.5802288437
C   C216      1.0  0.05830  0.36370  0.11890  1.0000 0.5802288437
O   O1        1.0  0.53221  0.69579  0.55800  1.0000 -0.5655157707
O   O2        1.0  0.69579  0.53221  0.94200  1.0000 -0.5655157707
O   O3        1.0  0.46779  0.30421  0.44200  1.0000 -0.5655157707
O   O4        1.0  0.30421  0.46779  0.05800  1.0000 -0.5655157707
O   O5        1.0  0.47350  0.56990  0.61970  1.0000 -0.4513470149
O   O6        1.0  0.56990  0.47350  0.88030  1.0000 -0.4513470149
O   O7        1.0  0.52650  0.43010  0.38030  1.0000 -0.4513470149
O   O8        1.0  0.43010  0.52650  0.11970  1.0000 -0.4513470149
O   O9        1.0  0.55906  0.24874  0.42280  1.0000 -0.5243780944
O   O10       1.0  0.24874  0.55906  0.07720  1.0000 -0.5243780944
O   O11       1.0  0.44094  0.75126  0.57720  1.0000 -0.5243780944
O   O12       1.0  0.75126  0.44094  0.92280  1.0000 -0.5243780944
O   O13       1.0  0.59948  0.14852  0.49060  1.0000 -0.600568398
O   O14       1.0  0.14852  0.59948  0.00940  1.0000 -0.600568398
O   O15       1.0  0.40052  0.85148  0.50940  1.0000 -0.600568398
O   O16       1.0  0.85148  0.40052  0.99060  1.0000 -0.600568398
O   O17       1.0  0.88251  0.53809  0.04489  1.0000 -0.5428377307
O   O18       1.0  0.53809  0.88251  0.45511  1.0000 -0.5428377307
O   O19       1.0  0.11749  0.46191  0.95511  1.0000 -0.5428377307
O   O20       1.0  0.46191  0.11749  0.54489  1.0000 -0.5428377307
O   O21       1.0  0.00749  0.53691  0.06748  1.0000 -0.5626644483
O   O22       1.0  0.53691  0.00749  0.43252  1.0000 -0.5626644483
O   O23       1.0  0.99251  0.46309  0.93252  1.0000 -0.5626644483
O   O24       1.0  0.46309  0.99251  0.56748  1.0000 -0.5626644483
O   O25       1.0  0.21359  0.26821  0.05130  1.0000 -0.4909853479
O   O26       1.0  0.26821  0.21359  0.44870  1.0000 -0.4909853479
O   O27       1.0  0.78641  0.73179  0.94870  1.0000 -0.4909853479
O   O28       1.0  0.73179  0.78641  0.55130  1.0000 -0.4909853479
O   O29       1.0  0.15005  0.30075  0.07774  1.0000 -0.600568398
O   O30       1.0  0.30075  0.15005  0.42226  1.0000 -0.600568398
O   O31       1.0  0.84995  0.69925  0.92226  1.0000 -0.600568398
O   O32       1.0  0.69925  0.84995  0.57774  1.0000 -0.600568398
O   O33       1.0  0.64600  0.55680  0.71290  1.0000 -0.5428377307
O   O34       1.0  0.55680  0.64600  0.78710  1.0000 -0.5428377307
O   O35       1.0  0.35400  0.44320  0.28710  1.0000 -0.5428377307
O   O36       1.0  0.44320  0.35400  0.21290  1.0000 -0.5428377307
O   O37       1.0  0.65830  0.58050  0.62940  1.0000 -0.5243780944
O   O38       1.0  0.58050  0.65830  0.87060  1.0000 -0.5243780944
O   O39       1.0  0.34170  0.41950  0.37060  1.0000 -0.5243780944
O   O40       1.0  0.41950  0.34170  0.12940  1.0000 -0.5251279465
O   O41       1.0  0.63400  0.86860  0.64130  1.0000 -0.4739033571
O   O42       1.0  0.86860  0.63400  0.85870  1.0000 -0.4739033571
O   O43       1.0  0.36600  0.13140  0.35870  1.0000 -0.4739033571
O   O44       1.0  0.13140  0.36600  0.14130  1.0000 -0.4739033571
O   O45       1.0  0.61261  0.96959  0.56429  1.0000 -0.600568398
O   O46       1.0  0.96959  0.61261  0.93571  1.0000 -0.600568398
O   O47       1.0  0.38739  0.03041  0.43571  1.0000 -0.600568398
O   O48       1.0  0.03041  0.38739  0.06429  1.0000 -0.600568398
