# DDEC6 charges by PACMAN v1.1 (https://github.com/mtap-research/PACMAN-charge/)
data_2012[Zn][sod]3[ASR]13
_chemical_formula_sum              "Zn6 H60 C48 N24"
_cell_length_a       14.7701
_cell_length_b       14.7701
_cell_length_c       14.7701
_cell_angle_alpha    109.471
_cell_angle_beta     109.471
_cell_angle_gamma    109.471

_symmetry_space_group_name_H-M    "P 1"
_symmetry_Int_Tables_number       1

loop_
  _symmetry_equiv_pos_as_xyz
  'x, y, z'

loop_
  _atom_site_type_symbol
  _atom_site_label
  _atom_site_symmetry_multiplicity
  _atom_site_fract_x
  _atom_site_fract_y
  _atom_site_fract_z
  _atom_site_occupancy
  _atom_site_charge
Zn  Zn1       1.0  0.25000  0.50000  0.75000  1.0000 0.6470016251
Zn  Zn2       1.0  0.75000  0.50000  0.25000  1.0000 0.6470016251
Zn  Zn3       1.0  0.75000  0.25000  0.50000  1.0000 0.6470016251
Zn  Zn4       1.0  0.25000  0.75000  0.50000  1.0000 0.6470016251
Zn  Zn5       1.0  0.50000  0.75000  0.25000  1.0000 0.6470016251
Zn  Zn6       1.0  0.50000  0.25000  0.75000  1.0000 0.6470016251
H   H1        1.0  0.10050  0.51560  0.85850  1.0000 0.114238242
H   H2        1.0  0.65710  0.24200  0.14150  1.0000 0.114238242
H   H3        1.0  0.34290  0.48440  0.58490  1.0000 0.114238242
H   H4        1.0  0.89950  0.75800  0.41510  1.0000 0.114238242
H   H5        1.0  0.85850  0.10050  0.51560  1.0000 0.114238242
H   H6        1.0  0.14150  0.65710  0.24200  1.0000 0.114238242
H   H7        1.0  0.58490  0.34290  0.48440  1.0000 0.114238242
H   H8        1.0  0.41510  0.89950  0.75800  1.0000 0.114238242
H   H9        1.0  0.51560  0.85850  0.10050  1.0000 0.114238242
H   H10       1.0  0.24200  0.14150  0.65710  1.0000 0.114238242
H   H11       1.0  0.48440  0.58490  0.34290  1.0000 0.114238242
H   H12       1.0  0.75800  0.41510  0.89950  1.0000 0.114238242
H   H13       1.0  0.51560  0.10050  0.85850  1.0000 0.114238242
H   H14       1.0  0.24200  0.65710  0.14150  1.0000 0.114238242
H   H15       1.0  0.48440  0.34290  0.58490  1.0000 0.114238242
H   H16       1.0  0.75800  0.89950  0.41510  1.0000 0.114238242
H   H17       1.0  0.10050  0.85850  0.51560  1.0000 0.114238242
H   H18       1.0  0.65710  0.14150  0.24200  1.0000 0.114238242
H   H19       1.0  0.34290  0.58490  0.48440  1.0000 0.114238242
H   H20       1.0  0.89950  0.41510  0.75800  1.0000 0.114238242
H   H21       1.0  0.85850  0.51560  0.10050  1.0000 0.114238242
H   H22       1.0  0.14150  0.24200  0.65710  1.0000 0.114238242
H   H23       1.0  0.58490  0.48440  0.34290  1.0000 0.114238242
H   H24       1.0  0.41510  0.75800  0.89950  1.0000 0.114238242
H   H25       1.0  0.00000  0.23950  0.49270  1.0000 0.1505876806
H   H26       1.0  0.74680  0.50730  0.50730  1.0000 0.1505876806
H   H27       1.0  0.25320  0.76050  0.76050  1.0000 0.1505876806
H   H28       1.0  0.00000  0.49270  0.23950  1.0000 0.1505876806
H   H29       1.0  0.49270  0.00000  0.23950  1.0000 0.1505876806
H   H30       1.0  0.50730  0.74680  0.50730  1.0000 0.1505876806
H   H31       1.0  0.76050  0.25320  0.76050  1.0000 0.1505876806
H   H32       1.0  0.23950  0.00000  0.49270  1.0000 0.1505876806
H   H33       1.0  0.23950  0.49270  0.00000  1.0000 0.1505876806
H   H34       1.0  0.50730  0.50730  0.74680  1.0000 0.1505876806
H   H35       1.0  0.76050  0.76050  0.25320  1.0000 0.1505876806
H   H36       1.0  0.49270  0.23950  0.00000  1.0000 0.1505876806
H   H37       1.0  0.06610  0.35990  0.50920  1.0000 0.1505876806
H   H38       1.0  0.85070  0.55690  0.49080  1.0000 0.1505876806
H   H39       1.0  0.14930  0.64010  0.70620  1.0000 0.1505876806
H   H40       1.0  0.93390  0.44310  0.29380  1.0000 0.1505876806
H   H41       1.0  0.50920  0.06610  0.35990  1.0000 0.1505876806
H   H42       1.0  0.49080  0.85070  0.55690  1.0000 0.1505876806
H   H43       1.0  0.70620  0.14930  0.64010  1.0000 0.1505876806
H   H44       1.0  0.29380  0.93390  0.44310  1.0000 0.1505876806
H   H45       1.0  0.35990  0.50920  0.06610  1.0000 0.1505876806
H   H46       1.0  0.55690  0.49080  0.85070  1.0000 0.1505876806
H   H47       1.0  0.64010  0.70620  0.14930  1.0000 0.1505876806
H   H48       1.0  0.44310  0.29380  0.93390  1.0000 0.1505876806
H   H49       1.0  0.35990  0.06610  0.50920  1.0000 0.1505876806
H   H50       1.0  0.55690  0.85070  0.49080  1.0000 0.1505876806
H   H51       1.0  0.64010  0.14930  0.70620  1.0000 0.1505876806
H   H52       1.0  0.44310  0.93390  0.29380  1.0000 0.1505876806
H   H53       1.0  0.06610  0.50920  0.35990  1.0000 0.1505876806
H   H54       1.0  0.85070  0.49080  0.55690  1.0000 0.1505876806
H   H55       1.0  0.14930  0.70620  0.64010  1.0000 0.1505876806
H   H56       1.0  0.93390  0.29380  0.44310  1.0000 0.1505876806
H   H57       1.0  0.50920  0.35990  0.06610  1.0000 0.1505876806
H   H58       1.0  0.49080  0.55690  0.85070  1.0000 0.1505876806
H   H59       1.0  0.70620  0.64010  0.14930  1.0000 0.1505876806
H   H60       1.0  0.29380  0.44310  0.93390  1.0000 0.1505876806
C   C1        1.0  0.00000  0.36180  0.61220  1.0000 0.3710181027
C   C2        1.0  0.74960  0.38780  0.38780  1.0000 0.3710181027
C   C3        1.0  0.25040  0.63820  0.63820  1.0000 0.3710181027
C   C4        1.0  0.00000  0.61220  0.36180  1.0000 0.3710181027
C   C5        1.0  0.61220  0.00000  0.36180  1.0000 0.3710181027
C   C6        1.0  0.38780  0.74960  0.38780  1.0000 0.3710181027
C   C7        1.0  0.63820  0.25040  0.63820  1.0000 0.3710181027
C   C8        1.0  0.36180  0.00000  0.61220  1.0000 0.3710181027
C   C9        1.0  0.36180  0.61220  0.00000  1.0000 0.3710181027
C   C10       1.0  0.38780  0.38780  0.74960  1.0000 0.3710181027
C   C11       1.0  0.63820  0.63820  0.25040  1.0000 0.3710181027
C   C12       1.0  0.61220  0.36180  0.00000  1.0000 0.3710181027
C   C13       1.0  0.05480  0.46440  0.78120  1.0000 -0.0685383437
C   C14       1.0  0.68320  0.27360  0.21880  1.0000 -0.0685383437
C   C15       1.0  0.31680  0.53560  0.59040  1.0000 -0.0685383437
C   C16       1.0  0.94520  0.72640  0.40960  1.0000 -0.0685383437
C   C17       1.0  0.78120  0.05480  0.46440  1.0000 -0.0685383437
C   C18       1.0  0.21880  0.68320  0.27360  1.0000 -0.0685383437
C   C19       1.0  0.59040  0.31680  0.53560  1.0000 -0.0685383437
C   C20       1.0  0.40960  0.94520  0.72640  1.0000 -0.0685383437
C   C21       1.0  0.46440  0.78120  0.05480  1.0000 -0.0685383437
C   C22       1.0  0.27360  0.21880  0.68320  1.0000 -0.0685383437
C   C23       1.0  0.53560  0.59040  0.31680  1.0000 -0.0685383437
C   C24       1.0  0.72640  0.40960  0.94520  1.0000 -0.0685383437
C   C25       1.0  0.46440  0.05480  0.78120  1.0000 -0.0685383437
C   C26       1.0  0.27360  0.68320  0.21880  1.0000 -0.0685383437
C   C27       1.0  0.53560  0.31680  0.59040  1.0000 -0.0685383437
C   C28       1.0  0.72640  0.94520  0.40960  1.0000 -0.0685383437
C   C29       1.0  0.05480  0.78120  0.46440  1.0000 -0.0685383437
C   C30       1.0  0.68320  0.21880  0.27360  1.0000 -0.0685383437
C   C31       1.0  0.31680  0.59040  0.53560  1.0000 -0.0685383437
C   C32       1.0  0.94520  0.40960  0.72640  1.0000 -0.0685383437
C   C33       1.0  0.78120  0.46440  0.05480  1.0000 -0.0685383437
C   C34       1.0  0.21880  0.27360  0.68320  1.0000 -0.0685383437
C   C35       1.0  0.59040  0.53560  0.31680  1.0000 -0.0685383437
C   C36       1.0  0.40960  0.72640  0.94520  1.0000 -0.0685383437
C   C37       1.0  0.00000  0.30900  0.50480  1.0000 -0.5465820323
C   C38       1.0  0.80420  0.49520  0.49520  1.0000 -0.5465820323
C   C39       1.0  0.19580  0.69100  0.69100  1.0000 -0.5465820323
C   C40       1.0  0.00000  0.50480  0.30900  1.0000 -0.5465820323
C   C41       1.0  0.50480  0.00000  0.30900  1.0000 -0.5465820323
C   C42       1.0  0.49520  0.80420  0.49520  1.0000 -0.5465820323
C   C43       1.0  0.69100  0.19580  0.69100  1.0000 -0.5465820323
C   C44       1.0  0.30900  0.00000  0.50480  1.0000 -0.5465820323
C   C45       1.0  0.30900  0.50480  0.00000  1.0000 -0.5465820323
C   C46       1.0  0.49520  0.49520  0.80420  1.0000 -0.5465820323
C   C47       1.0  0.69100  0.69100  0.19580  1.0000 -0.5465820323
C   C48       1.0  0.50480  0.30900  0.00000  1.0000 -0.5465820323
N   N1        1.0  0.09122  0.43587  0.70949  1.0000 -0.3455498606
N   N2        1.0  0.72638  0.38173  0.29051  1.0000 -0.3455498606
N   N3        1.0  0.27362  0.56413  0.65535  1.0000 -0.3455498606
N   N4        1.0  0.90878  0.61827  0.34465  1.0000 -0.3455498606
N   N5        1.0  0.70949  0.09122  0.43587  1.0000 -0.3455498606
N   N6        1.0  0.29051  0.72638  0.38173  1.0000 -0.3455498606
N   N7        1.0  0.65535  0.27362  0.56413  1.0000 -0.3455498606
N   N8        1.0  0.34465  0.90878  0.61827  1.0000 -0.3455498606
N   N9        1.0  0.43587  0.70949  0.09122  1.0000 -0.3455498606
N   N10       1.0  0.38173  0.29051  0.72638  1.0000 -0.3455498606
N   N11       1.0  0.56413  0.65535  0.27362  1.0000 -0.3455498606
N   N12       1.0  0.61827  0.34465  0.90878  1.0000 -0.3455498606
N   N13       1.0  0.43587  0.09122  0.70949  1.0000 -0.3455498606
N   N14       1.0  0.38173  0.72638  0.29051  1.0000 -0.3455498606
N   N15       1.0  0.56413  0.27362  0.65535  1.0000 -0.3455498606
N   N16       1.0  0.61827  0.90878  0.34465  1.0000 -0.3455498606
N   N17       1.0  0.09122  0.70949  0.43587  1.0000 -0.3455498606
N   N18       1.0  0.72638  0.29051  0.38173  1.0000 -0.3455498606
N   N19       1.0  0.27362  0.65535  0.56413  1.0000 -0.3455498606
N   N20       1.0  0.90878  0.34465  0.61827  1.0000 -0.3455498606
N   N21       1.0  0.70949  0.43587  0.09122  1.0000 -0.3455498606
N   N22       1.0  0.29051  0.38173  0.72638  1.0000 -0.3455498606
N   N23       1.0  0.65535  0.56413  0.27362  1.0000 -0.3455498606
N   N24       1.0  0.34465  0.61827  0.90878  1.0000 -0.3455498606
