# DDEC6 charges by PACMAN v1.1 (https://github.com/mtap-research/PACMAN-charge/)
data_2012[Cd][nan]3[ASR]7
_chemical_formula_sum              "Cd2 H24 C36 N12 O8"
_cell_length_a       11.1801
_cell_length_b       11.1801
_cell_length_c       9.2343
_cell_angle_alpha    81.1096
_cell_angle_beta     98.8904
_cell_angle_gamma    88.6882

_symmetry_space_group_name_H-M    "P 1"
_symmetry_Int_Tables_number       1

loop_
  _symmetry_equiv_pos_as_xyz
  'x, y, z'

loop_
  _atom_site_type_symbol
  _atom_site_label
  _atom_site_symmetry_multiplicity
  _atom_site_fract_x
  _atom_site_fract_y
  _atom_site_fract_z
  _atom_site_occupancy
  _atom_site_charge
Cd  Cd1       1.0  0.50000  0.50000  0.00000  1.0000 0.9572433616
Cd  Cd2       1.0  0.50000  0.50000  0.50000  1.0000 0.9572433616
H   H1        1.0  0.73390  0.68890  0.93380  1.0000 0.116066658
H   H2        1.0  0.68890  0.73390  0.56620  1.0000 0.116066658
H   H3        1.0  0.26610  0.31110  0.06620  1.0000 0.116066658
H   H4        1.0  0.31110  0.26610  0.43380  1.0000 0.116066658
H   H5        1.0  0.49660  0.75340  0.17790  1.0000 0.1281072321
H   H6        1.0  0.75340  0.49660  0.32210  1.0000 0.1281072321
H   H7        1.0  0.50340  0.24660  0.82210  1.0000 0.1281072321
H   H8        1.0  0.24660  0.50340  0.67790  1.0000 0.1281072321
H   H9        1.0  0.72420  0.05900  0.03470  1.0000 0.13682105
H   H10       1.0  0.05900  0.72420  0.46530  1.0000 0.13682105
H   H11       1.0  0.27580  0.94100  0.96530  1.0000 0.13682105
H   H12       1.0  0.94100  0.27580  0.53470  1.0000 0.13682105
H   H13       1.0  0.51040  0.90820  0.31390  1.0000 0.13682105
H   H14       1.0  0.90820  0.51040  0.18610  1.0000 0.13682105
H   H15       1.0  0.48960  0.09180  0.68610  1.0000 0.13682105
H   H16       1.0  0.09180  0.48960  0.81390  1.0000 0.13682105
H   H17       1.0  0.70160  0.24080  0.11640  1.0000 0.1281072321
H   H18       1.0  0.24080  0.70160  0.38360  1.0000 0.1281072321
H   H19       1.0  0.29840  0.75920  0.88360  1.0000 0.1281072321
H   H20       1.0  0.75920  0.29840  0.61640  1.0000 0.1281072321
H   H21       1.0  0.49060  0.09120  0.39890  1.0000 0.1123610918
H   H22       1.0  0.09120  0.49060  0.10110  1.0000 0.1123610918
H   H23       1.0  0.50940  0.90880  0.60110  1.0000 0.1123610918
H   H24       1.0  0.90880  0.50940  0.89890  1.0000 0.1123610918
C   C1        1.0  0.69010  0.72750  0.99250  1.0000 0.1502504954
C   C2        1.0  0.72750  0.69010  0.50750  1.0000 0.1502504954
C   C3        1.0  0.30990  0.27250  0.00750  1.0000 0.1502504954
C   C4        1.0  0.27250  0.30990  0.49250  1.0000 0.1502504954
C   C5        1.0  0.56090  0.75990  0.12470  1.0000 0.1048979024
C   C6        1.0  0.75990  0.56090  0.37530  1.0000 0.1048979024
C   C7        1.0  0.43910  0.24010  0.87530  1.0000 0.1123610918
C   C8        1.0  0.24010  0.43910  0.62470  1.0000 0.1048979024
C   C9        1.0  0.62090  0.96570  0.16830  1.0000 0.13682105
C   C10       1.0  0.96570  0.62090  0.33170  1.0000 0.13682105
C   C11       1.0  0.37910  0.03430  0.83170  1.0000 0.13682105
C   C12       1.0  0.03430  0.37910  0.66830  1.0000 0.13682105
C   C13       1.0  0.67690  0.06530  0.10790  1.0000 -0.1764456247
C   C14       1.0  0.06530  0.67690  0.39210  1.0000 -0.1764456247
C   C15       1.0  0.32310  0.93470  0.89210  1.0000 -0.1764456247
C   C16       1.0  0.93470  0.32310  0.60790  1.0000 -0.1764456247
C   C17       1.0  0.54970  0.97530  0.27490  1.0000 -0.1990498518
C   C18       1.0  0.97530  0.54970  0.22510  1.0000 -0.1990498518
C   C19       1.0  0.45030  0.02470  0.72510  1.0000 -0.1990498518
C   C20       1.0  0.02470  0.45030  0.77490  1.0000 -0.1990498518
C   C21       1.0  0.66250  0.17390  0.15640  1.0000 -0.0912366351
C   C22       1.0  0.17390  0.66250  0.34360  1.0000 -0.0912366351
C   C23       1.0  0.33750  0.82610  0.84360  1.0000 -0.0912366351
C   C24       1.0  0.82610  0.33750  0.65640  1.0000 -0.0912366351
C   C25       1.0  0.53660  0.08540  0.32430  1.0000 -0.0912366351
C   C26       1.0  0.08540  0.53660  0.17570  1.0000 -0.0912366351
C   C27       1.0  0.46340  0.91460  0.67570  1.0000 -0.0912366351
C   C28       1.0  0.91460  0.46340  0.82430  1.0000 -0.0912366351
C   C29       1.0  0.59124  0.18604  0.26330  1.0000 -0.0371542041
C   C30       1.0  0.18604  0.59124  0.23670  1.0000 -0.0371542041
C   C31       1.0  0.40876  0.81396  0.73670  1.0000 -0.0371542041
C   C32       1.0  0.81396  0.40876  0.76330  1.0000 -0.0371542041
C   C33       1.0  0.57140  0.30760  0.30980  1.0000 0.5629370148
C   C34       1.0  0.30760  0.57140  0.19020  1.0000 0.5629370148
C   C35       1.0  0.42860  0.69240  0.69020  1.0000 0.5629370148
C   C36       1.0  0.69240  0.42860  0.80980  1.0000 0.5629370148
N   N1        1.0  0.59518  0.67710  0.04950  1.0000 -0.3244039928
N   N2        1.0  0.67710  0.59518  0.45050  1.0000 -0.3244039928
N   N3        1.0  0.40482  0.32290  0.95050  1.0000 -0.3244039928
N   N4        1.0  0.32290  0.40482  0.54950  1.0000 -0.3244039928
N   N5        1.0  0.71603  0.83463  0.02610  1.0000 -0.2538810884
N   N6        1.0  0.83463  0.71603  0.47390  1.0000 -0.2538810884
N   N7        1.0  0.28397  0.16537  0.97390  1.0000 -0.2538810884
N   N8        1.0  0.16537  0.28397  0.52610  1.0000 -0.2538810884
N   N9        1.0  0.63133  0.85355  0.11330  1.0000 0.1123610918
N   N10       1.0  0.85355  0.63133  0.38670  1.0000 0.1123610918
N   N11       1.0  0.36867  0.14645  0.88670  1.0000 0.1123610918
N   N12       1.0  0.14645  0.36867  0.61330  1.0000 0.1123610918
O   O1        1.0  0.53163  0.31127  0.42800  1.0000 -0.5509636616
O   O2        1.0  0.31127  0.53163  0.07200  1.0000 -0.5509636616
O   O3        1.0  0.46837  0.68873  0.57200  1.0000 -0.5509636616
O   O4        1.0  0.68873  0.46837  0.92800  1.0000 -0.5509636616
O   O5        1.0  0.59748  0.39988  0.22570  1.0000 -0.5816676532
O   O6        1.0  0.39988  0.59748  0.27430  1.0000 -0.5816676532
O   O7        1.0  0.40252  0.60012  0.77430  1.0000 -0.5816676532
O   O8        1.0  0.60012  0.40252  0.72570  1.0000 -0.5816676532
