# DDEC6 charges by PACMAN v1.1 (https://github.com/mtap-research/PACMAN-charge/)
data_2012[Mn][fet]3[ASR]1
_chemical_formula_sum              "Mn4 H60 C76 S4 N12 O24"
_cell_length_a       8.707
_cell_length_b       28.005
_cell_length_c       11.678
_cell_angle_alpha    90
_cell_angle_beta     104.2
_cell_angle_gamma    90

_symmetry_space_group_name_H-M    "P 1"
_symmetry_Int_Tables_number       1

loop_
  _symmetry_equiv_pos_as_xyz
  'x, y, z'

loop_
  _atom_site_type_symbol
  _atom_site_label
  _atom_site_symmetry_multiplicity
  _atom_site_fract_x
  _atom_site_fract_y
  _atom_site_fract_z
  _atom_site_occupancy
  _atom_site_charge
Mn  Mn1       1.0  0.19194  0.19905  0.36568  1.0000 0.871184593
Mn  Mn2       1.0  0.30806  0.69905  0.63432  1.0000 0.871184593
Mn  Mn3       1.0  0.80806  0.80095  0.63432  1.0000 0.871184593
Mn  Mn4       1.0  0.69194  0.30095  0.36568  1.0000 0.871184593
H   H1        1.0  0.43340  0.12780  0.49660  1.0000 0.2832597027
H   H2        1.0  0.06660  0.62780  0.50340  1.0000 0.2832597027
H   H3        1.0  0.56660  0.87220  0.50340  1.0000 0.2832597027
H   H4        1.0  0.93340  0.37220  0.49660  1.0000 0.2832597027
H   H5        1.0  0.63230  0.12920  0.39090  1.0000 0.1399117167
H   H6        1.0  0.86770  0.62920  0.60910  1.0000 0.1399117167
H   H7        1.0  0.36770  0.87080  0.60910  1.0000 0.1399117167
H   H8        1.0  0.13230  0.37080  0.39090  1.0000 0.1399117167
H   H9        1.0  0.73940  0.15320  0.50360  1.0000 0.1293459043
H   H10       1.0  0.76060  0.65320  0.49640  1.0000 0.1293459043
H   H11       1.0  0.26060  0.84680  0.49640  1.0000 0.1199371091
H   H12       1.0  0.23940  0.34680  0.50360  1.0000 0.1199371091
H   H13       1.0  0.48860  0.01890  0.67950  1.0000 0.1293459043
H   H14       1.0  0.01140  0.51890  0.32050  1.0000 0.1293459043
H   H15       1.0  0.51140  0.98110  0.32050  1.0000 0.1293459043
H   H16       1.0  0.98860  0.48110  0.67950  1.0000 0.1293459043
H   H17       1.0  0.58960  0.94260  0.66650  1.0000 0.1199371091
H   H18       1.0  0.91040  0.44260  0.33350  1.0000 0.1199371091
H   H19       1.0  0.41040  0.05740  0.33350  1.0000 0.1199371091
H   H20       1.0  0.08960  0.55740  0.66650  1.0000 0.1199371091
H   H21       1.0  0.98680  0.99900  0.61180  1.0000 0.1199371091
H   H22       1.0  0.51320  0.49900  0.38820  1.0000 0.1199371091
H   H23       1.0  0.01320  0.00100  0.38820  1.0000 0.1199371091
H   H24       1.0  0.48680  0.50100  0.61180  1.0000 0.1199371091
H   H25       1.0  0.88480  0.07500  0.62220  1.0000 0.1199371091
H   H26       1.0  0.61520  0.57500  0.37780  1.0000 0.1199371091
H   H27       1.0  0.11520  0.92500  0.37780  1.0000 0.1199371091
H   H28       1.0  0.38480  0.42500  0.62220  1.0000 0.1199371091
H   H29       1.0  0.05730  0.14450  0.55700  1.0000 0.1097186523
H   H30       1.0  0.44270  0.64450  0.44300  1.0000 0.1097186523
H   H31       1.0  0.94270  0.85550  0.44300  1.0000 0.1097186523
H   H32       1.0  0.55730  0.35550  0.55700  1.0000 0.1097186523
H   H33       1.0  0.04990  0.14400  0.75050  1.0000 0.1293459043
H   H34       1.0  0.45010  0.64400  0.24950  1.0000 0.1293459043
H   H35       1.0  0.95010  0.85600  0.24950  1.0000 0.1293459043
H   H36       1.0  0.54990  0.35600  0.75050  1.0000 0.1293459043
H   H37       1.0  0.34410  0.25480  0.80390  1.0000 0.1293459043
H   H38       1.0  0.15590  0.75480  0.19610  1.0000 0.1293459043
H   H39       1.0  0.65590  0.74520  0.19610  1.0000 0.1293459043
H   H40       1.0  0.84410  0.24520  0.80390  1.0000 0.1293459043
H   H41       1.0  0.34540  0.25160  0.60780  1.0000 0.1097186523
H   H42       1.0  0.15460  0.75160  0.39220  1.0000 0.1097186523
H   H43       1.0  0.65460  0.74840  0.39220  1.0000 0.1097186523
H   H44       1.0  0.84540  0.24840  0.60780  1.0000 0.1097186523
H   H45       1.0  0.04190  0.14840  0.11850  1.0000 0.1199371091
H   H46       1.0  0.45810  0.64840  0.88150  1.0000 0.1199371091
H   H47       1.0  0.95810  0.85160  0.88150  1.0000 0.1199371091
H   H48       1.0  0.54190  0.35160  0.11850  1.0000 0.1199371091
H   H49       1.0  0.03520  0.14800  0.92390  1.0000 0.1399117167
H   H50       1.0  0.46480  0.64800  0.07610  1.0000 0.1399117167
H   H51       1.0  0.96480  0.85200  0.07610  1.0000 0.1399117167
H   H52       1.0  0.53520  0.35200  0.92390  1.0000 0.1399117167
H   H53       1.0  0.34720  0.25240  0.98260  1.0000 0.1293459043
H   H54       1.0  0.15280  0.75240  0.01740  1.0000 0.1293459043
H   H55       1.0  0.65280  0.74760  0.01740  1.0000 0.1293459043
H   H56       1.0  0.84720  0.24760  0.98260  1.0000 0.1293459043
H   H57       1.0  0.32620  0.25460  0.17310  1.0000 0.1097186523
H   H58       1.0  0.17380  0.75460  0.82690  1.0000 0.1097186523
H   H59       1.0  0.67380  0.74540  0.82690  1.0000 0.1097186523
H   H60       1.0  0.82620  0.24540  0.17310  1.0000 0.1097186523
C   C1        1.0  0.57790  0.19919  0.40630  1.0000 0.6120241786
C   C2        1.0  0.92210  0.69919  0.59370  1.0000 0.6120241786
C   C3        1.0  0.42210  0.80081  0.59370  1.0000 0.6120241786
C   C4        1.0  0.07790  0.30081  0.40630  1.0000 0.6120241786
C   C5        1.0  0.63160  0.15070  0.45590  1.0000 -0.1983607096
C   C6        1.0  0.86840  0.65070  0.54410  1.0000 -0.1983607096
C   C7        1.0  0.36840  0.84930  0.54410  1.0000 -0.1983607096
C   C8        1.0  0.13160  0.34930  0.45590  1.0000 -0.1983607096
C   C9        1.0  0.67800  0.05380  0.64930  1.0000 -0.0891631694
C   C10       1.0  0.82200  0.55380  0.35070  1.0000 -0.0891631694
C   C11       1.0  0.32200  0.94620  0.35070  1.0000 -0.0891631694
C   C12       1.0  0.17800  0.44620  0.64930  1.0000 -0.0891631694
C   C13       1.0  0.58820  0.01480  0.66500  1.0000 -0.0988209193
C   C14       1.0  0.91180  0.51480  0.33500  1.0000 -0.0988209193
C   C15       1.0  0.41180  0.98520  0.33500  1.0000 -0.0988209193
C   C16       1.0  0.08820  0.48520  0.66500  1.0000 -0.0988209193
C   C17       1.0  0.65040  0.96920  0.65870  1.0000 -0.0988209193
C   C18       1.0  0.84960  0.46920  0.34130  1.0000 -0.0988209193
C   C19       1.0  0.34960  0.03080  0.34130  1.0000 -0.0988209193
C   C20       1.0  0.15040  0.53080  0.65870  1.0000 -0.0988209193
C   C21       1.0  0.79860  0.96270  0.64130  1.0000 -0.0182019562
C   C22       1.0  0.70140  0.46270  0.35870  1.0000 -0.0182019562
C   C23       1.0  0.20140  0.03730  0.35870  1.0000 -0.0182019562
C   C24       1.0  0.29860  0.53730  0.64130  1.0000 -0.0182019562
C   C25       1.0  0.88690  0.00280  0.62570  1.0000 -0.0891631694
C   C26       1.0  0.61310  0.50280  0.37430  1.0000 -0.0891631694
C   C27       1.0  0.11310  0.99720  0.37430  1.0000 -0.0891631694
C   C28       1.0  0.38690  0.49720  0.62570  1.0000 -0.0891631694
C   C29       1.0  0.82530  0.04830  0.63110  1.0000 -0.0988209193
C   C30       1.0  0.67470  0.54830  0.36890  1.0000 -0.0988209193
C   C31       1.0  0.17470  0.95170  0.36890  1.0000 -0.0988209193
C   C32       1.0  0.32530  0.45170  0.63110  1.0000 -0.0988209193
C   C33       1.0  0.86770  0.91360  0.63950  1.0000 0.5535949076
C   C34       1.0  0.63230  0.41360  0.36050  1.0000 0.5535949076
C   C35       1.0  0.13230  0.08640  0.36050  1.0000 0.5535949076
C   C36       1.0  0.36770  0.58640  0.63950  1.0000 0.5535949076
C   C37       1.0  0.11600  0.16720  0.60740  1.0000 0.0995765222
C   C38       1.0  0.38400  0.66720  0.39260  1.0000 0.0995765222
C   C39       1.0  0.88400  0.83280  0.39260  1.0000 0.0995765222
C   C40       1.0  0.61600  0.33280  0.60740  1.0000 0.0995765222
C   C41       1.0  0.11100  0.16680  0.72400  1.0000 -0.1742040907
C   C42       1.0  0.38900  0.66680  0.27600  1.0000 -0.1742040907
C   C43       1.0  0.88900  0.83320  0.27600  1.0000 -0.1742040907
C   C44       1.0  0.61100  0.33320  0.72400  1.0000 -0.1742040907
C   C45       1.0  0.19600  0.20000  0.80260  1.0000 0.1097186523
C   C46       1.0  0.30400  0.70000  0.19740  1.0000 0.1097186523
C   C47       1.0  0.80400  0.80000  0.19740  1.0000 0.1097186523
C   C48       1.0  0.69600  0.30000  0.80260  1.0000 0.1097186523
C   C49       1.0  0.28390  0.23170  0.75560  1.0000 -0.1813534593
C   C50       1.0  0.21610  0.73170  0.24440  1.0000 -0.1813534593
C   C51       1.0  0.71610  0.76830  0.24440  1.0000 -0.1813534593
C   C52       1.0  0.78390  0.26830  0.75560  1.0000 -0.1813534593
C   C53       1.0  0.28380  0.22980  0.63680  1.0000 0.0995765222
C   C54       1.0  0.21620  0.72980  0.36320  1.0000 0.0995765222
C   C55       1.0  0.71620  0.77020  0.36320  1.0000 0.0995765222
C   C56       1.0  0.78380  0.27020  0.63680  1.0000 0.0995765222
C   C57       1.0  0.10450  0.17050  0.09140  1.0000 0.0489806364
C   C58       1.0  0.39550  0.67050  0.90860  1.0000 0.0489806364
C   C59       1.0  0.89550  0.82950  0.90860  1.0000 0.0489806364
C   C60       1.0  0.60450  0.32950  0.09140  1.0000 0.0489806364
C   C61       1.0  0.10110  0.16960  0.97350  1.0000 -0.1983607096
C   C62       1.0  0.39890  0.66960  0.02650  1.0000 -0.1983607096
C   C63       1.0  0.89890  0.83040  0.02650  1.0000 -0.1983607096
C   C64       1.0  0.60110  0.33040  0.97350  1.0000 -0.1983607096
C   C65       1.0  0.19310  0.19980  0.92870  1.0000 0.0995765222
C   C66       1.0  0.30690  0.69980  0.07130  1.0000 0.0995765222
C   C67       1.0  0.80690  0.80020  0.07130  1.0000 0.0995765222
C   C68       1.0  0.69310  0.30020  0.92870  1.0000 0.0995765222
C   C69       1.0  0.28030  0.23090  0.00720  1.0000 -0.2070901041
C   C70       1.0  0.21970  0.73090  0.99280  1.0000 -0.2070901041
C   C71       1.0  0.71970  0.76910  0.99280  1.0000 -0.2070901041
C   C72       1.0  0.78030  0.26910  0.00720  1.0000 -0.2070901041
C   C73       1.0  0.27070  0.23100  0.12400  1.0000 0.0905317421
C   C74       1.0  0.22930  0.73100  0.87600  1.0000 0.0905317421
C   C75       1.0  0.72930  0.76900  0.87600  1.0000 0.0905317421
C   C76       1.0  0.77070  0.26900  0.12400  1.0000 0.0905317421
S   S1        1.0  0.60110  0.11214  0.65910  1.0000 1.0778522397
S   S2        1.0  0.89890  0.61214  0.34090  1.0000 1.0778522397
S   S3        1.0  0.39890  0.88786  0.34090  1.0000 1.0778522397
S   S4        1.0  0.10110  0.38786  0.65910  1.0000 1.0778522397
N   N1        1.0  0.53360  0.13020  0.52720  1.0000 -0.4533490633
N   N2        1.0  0.96640  0.63020  0.47280  1.0000 -0.4533490633
N   N3        1.0  0.46640  0.86980  0.47280  1.0000 -0.4533490633
N   N4        1.0  0.03360  0.36980  0.52720  1.0000 -0.4533490633
N   N5        1.0  0.19980  0.19825  0.56330  1.0000 -0.221360827
N   N6        1.0  0.30020  0.69825  0.43670  1.0000 -0.221360827
N   N7        1.0  0.80020  0.80175  0.43670  1.0000 -0.221360827
N   N8        1.0  0.69980  0.30175  0.56330  1.0000 -0.221360827
N   N9        1.0  0.18970  0.20043  0.17040  1.0000 -0.2286769544
N   N10       1.0  0.31030  0.70043  0.82960  1.0000 -0.2286769544
N   N11       1.0  0.81030  0.79957  0.82960  1.0000 -0.2286769544
N   N12       1.0  0.68970  0.29957  0.17040  1.0000 -0.2286769544
O   O1        1.0  0.44330  0.21327  0.40660  1.0000 -0.539588282
O   O2        1.0  0.05670  0.71327  0.59340  1.0000 -0.539588282
O   O3        1.0  0.55670  0.78673  0.59340  1.0000 -0.539588282
O   O4        1.0  0.94330  0.28673  0.40660  1.0000 -0.539588282
O   O5        1.0  0.67870  0.22314  0.37020  1.0000 -0.5599902068
O   O6        1.0  0.82130  0.72314  0.62980  1.0000 -0.5599902068
O   O7        1.0  0.32130  0.77686  0.62980  1.0000 -0.5599902068
O   O8        1.0  0.17870  0.27686  0.37020  1.0000 -0.5599902068
O   O9        1.0  0.46740  0.10810  0.70790  1.0000 -0.5303321277
O   O10       1.0  0.03260  0.60810  0.29210  1.0000 -0.5303321277
O   O11       1.0  0.53260  0.89190  0.29210  1.0000 -0.5303321277
O   O12       1.0  0.96740  0.39190  0.70790  1.0000 -0.5303321277
O   O13       1.0  0.73170  0.14160  0.71300  1.0000 -0.539588282
O   O14       1.0  0.76830  0.64160  0.28700  1.0000 -0.539588282
O   O15       1.0  0.26830  0.85840  0.28700  1.0000 -0.539588282
O   O16       1.0  0.23170  0.35840  0.71300  1.0000 -0.539588282
O   O17       1.0  0.77350  0.87861  0.63030  1.0000 -0.5785051977
O   O18       1.0  0.72650  0.37861  0.36970  1.0000 -0.5785051977
O   O19       1.0  0.22650  0.12139  0.36970  1.0000 -0.5785051977
O   O20       1.0  0.27350  0.62139  0.63030  1.0000 -0.5785051977
O   O21       1.0  0.01210  0.91014  0.64540  1.0000 -0.572878102
O   O22       1.0  0.48790  0.41014  0.35460  1.0000 -0.572878102
O   O23       1.0  0.98790  0.08986  0.35460  1.0000 -0.572878102
O   O24       1.0  0.51210  0.58986  0.64540  1.0000 -0.572878102
