# DDEC6 charges by PACMAN v1.1 (https://github.com/mtap-research/PACMAN-charge/)
data_2012[Sm][nan]3[ASR]2
_chemical_formula_sum              "Sm8 H32 C56 N16 O48"
_cell_length_a       10.255
_cell_length_b       11.268
_cell_length_c       23.2762
_cell_angle_alpha    90
_cell_angle_beta     108.867
_cell_angle_gamma    90

_symmetry_space_group_name_H-M    "P 1"
_symmetry_Int_Tables_number       1

loop_
  _symmetry_equiv_pos_as_xyz
  'x, y, z'

loop_
  _atom_site_type_symbol
  _atom_site_label
  _atom_site_symmetry_multiplicity
  _atom_site_fract_x
  _atom_site_fract_y
  _atom_site_fract_z
  _atom_site_occupancy
  _atom_site_charge
Sm  Sm1       1.0  0.61543  0.81166  0.22551  1.0000 1.9500171879
Sm  Sm2       1.0  0.38457  0.31166  0.27449  1.0000 1.9500171879
Sm  Sm3       1.0  0.38457  0.18834  0.77449  1.0000 1.9500171879
Sm  Sm4       1.0  0.61543  0.68834  0.72551  1.0000 1.9500171879
Sm  Sm5       1.0  0.80394  0.08515  0.06417  1.0000 2.1640039721
Sm  Sm6       1.0  0.19606  0.58515  0.43583  1.0000 2.1654455701
Sm  Sm7       1.0  0.19606  0.91485  0.93583  1.0000 2.1640039721
Sm  Sm8       1.0  0.80394  0.41485  0.56417  1.0000 2.1654455701
H   H1        1.0  0.99770  0.02590  0.33500  1.0000 0.3117331901
H   H2        1.0  0.00230  0.52590  0.16500  1.0000 0.3117331901
H   H3        1.0  0.00230  0.97410  0.66500  1.0000 0.3117331901
H   H4        1.0  0.99770  0.47410  0.83500  1.0000 0.3117331901
H   H5        1.0  0.04660  0.87930  0.16200  1.0000 0.2914859021
H   H6        1.0  0.95340  0.37930  0.33800  1.0000 0.2914859021
H   H7        1.0  0.95340  0.12070  0.83800  1.0000 0.2914859021
H   H8        1.0  0.04660  0.62070  0.66200  1.0000 0.2914859021
H   H9        1.0  0.29780  0.20470  0.40730  1.0000 0.1734092144
H   H10       1.0  0.70220  0.70470  0.09270  1.0000 0.1734092144
H   H11       1.0  0.70220  0.79530  0.59270  1.0000 0.1734092144
H   H12       1.0  0.29780  0.29530  0.90730  1.0000 0.1734092144
H   H13       1.0  0.15950  0.18410  0.42090  1.0000 0.1558696592
H   H14       1.0  0.84050  0.68410  0.07910  1.0000 0.1558696592
H   H15       1.0  0.84050  0.81590  0.57910  1.0000 0.1558696592
H   H16       1.0  0.15950  0.31590  0.92090  1.0000 0.1558696592
H   H17       1.0  0.25460  0.07600  0.41940  1.0000 0.1491541603
H   H18       1.0  0.74540  0.57600  0.08060  1.0000 0.1491541603
H   H19       1.0  0.74540  0.92400  0.58060  1.0000 0.1491541603
H   H20       1.0  0.25460  0.42400  0.91940  1.0000 0.1491541603
H   H21       1.0  0.15380  0.85270  0.27110  1.0000 0.1491541603
H   H22       1.0  0.84620  0.35270  0.22890  1.0000 0.1491541603
H   H23       1.0  0.84620  0.14730  0.72890  1.0000 0.1491541603
H   H24       1.0  0.15380  0.64730  0.77110  1.0000 0.1491541603
H   H25       1.0  0.30490  0.90190  0.29260  1.0000 0.1752971449
H   H26       1.0  0.69510  0.40190  0.20740  1.0000 0.1752971449
H   H27       1.0  0.69510  0.09810  0.70740  1.0000 0.1752971449
H   H28       1.0  0.30490  0.59810  0.79260  1.0000 0.1752971449
H   H29       1.0  0.27880  0.76490  0.28510  1.0000 0.1734092144
H   H30       1.0  0.72120  0.26490  0.21490  1.0000 0.1734092144
H   H31       1.0  0.72120  0.23510  0.71490  1.0000 0.1734092144
H   H32       1.0  0.27880  0.73510  0.78510  1.0000 0.1734092144
C   C1        1.0  0.47960  0.54480  0.21440  1.0000 0.4720514269
C   C2        1.0  0.52040  0.04480  0.28560  1.0000 0.4720514269
C   C3        1.0  0.52040  0.45520  0.78560  1.0000 0.4720514269
C   C4        1.0  0.47960  0.95520  0.71440  1.0000 0.4720514269
C   C5        1.0  0.48170  0.59120  0.27750  1.0000 0.4720514269
C   C6        1.0  0.51830  0.09120  0.22250  1.0000 0.4720514269
C   C7        1.0  0.51830  0.40880  0.72250  1.0000 0.4720514269
C   C8        1.0  0.48170  0.90880  0.77750  1.0000 0.4720514269
C   C9        1.0  0.87640  0.99270  0.21640  1.0000 0.5955917278
C   C10       1.0  0.12360  0.49270  0.28360  1.0000 0.5955917278
C   C11       1.0  0.12360  0.00730  0.78360  1.0000 0.5955917278
C   C12       1.0  0.87640  0.50730  0.71640  1.0000 0.5955917278
C   C13       1.0  0.99280  0.07030  0.25230  1.0000 -0.0087261409
C   C14       1.0  0.00720  0.57030  0.24770  1.0000 -0.0087261409
C   C15       1.0  0.00720  0.92970  0.74770  1.0000 -0.0087261409
C   C16       1.0  0.99280  0.42970  0.75230  1.0000 -0.0087261409
C   C17       1.0  0.14770  0.13640  0.33580  1.0000 0.4187112489
C   C18       1.0  0.85230  0.63640  0.16420  1.0000 0.4187112489
C   C19       1.0  0.85230  0.86360  0.66420  1.0000 0.4187112489
C   C20       1.0  0.14770  0.36360  0.83580  1.0000 0.4187112489
C   C21       1.0  0.22150  0.15160  0.40170  1.0000 -0.5044645032
C   C22       1.0  0.77850  0.65160  0.09830  1.0000 -0.5044645032
C   C23       1.0  0.77850  0.84840  0.59830  1.0000 -0.5044645032
C   C24       1.0  0.22150  0.34840  0.90170  1.0000 -0.5044645032
C   C25       1.0  0.08830  0.14410  0.23820  1.0000 -0.0304861365
C   C26       1.0  0.91170  0.64410  0.26180  1.0000 -0.0304861365
C   C27       1.0  0.91170  0.85590  0.76180  1.0000 -0.0304861365
C   C28       1.0  0.08830  0.35590  0.73820  1.0000 -0.0304861365
C   C29       1.0  0.09910  0.18500  0.17970  1.0000 0.6290403941
C   C30       1.0  0.90090  0.68500  0.32030  1.0000 0.6290403941
C   C31       1.0  0.90090  0.81500  0.82030  1.0000 0.6290403941
C   C32       1.0  0.09910  0.31500  0.67970  1.0000 0.6290403941
C   C33       1.0  0.04140  0.88530  0.04850  1.0000 0.6491337308
C   C34       1.0  0.95860  0.38530  0.45150  1.0000 0.6491337308
C   C35       1.0  0.95860  0.11470  0.95150  1.0000 0.6491337308
C   C36       1.0  0.04140  0.61470  0.54850  1.0000 0.6491337308
C   C37       1.0  0.15730  0.86950  0.10640  1.0000 -0.0182058447
C   C38       1.0  0.84270  0.36950  0.39360  1.0000 -0.0182058447
C   C39       1.0  0.84270  0.13050  0.89360  1.0000 -0.0182058447
C   C40       1.0  0.15730  0.63050  0.60640  1.0000 -0.0182058447
C   C41       1.0  0.24180  0.84950  0.20630  1.0000 0.4057694116
C   C42       1.0  0.75820  0.34950  0.29370  1.0000 0.4045760968
C   C43       1.0  0.75820  0.15050  0.79370  1.0000 0.4045760968
C   C44       1.0  0.24180  0.65050  0.70630  1.0000 0.4045760968
C   C45       1.0  0.24510  0.84160  0.26910  1.0000 -0.5363583526
C   C46       1.0  0.75490  0.34160  0.23090  1.0000 -0.5363583526
C   C47       1.0  0.75490  0.15840  0.73090  1.0000 -0.5363583526
C   C48       1.0  0.24510  0.65840  0.76910  1.0000 -0.5363583526
C   C49       1.0  0.29680  0.85010  0.12300  1.0000 -0.0013950342
C   C50       1.0  0.70320  0.35010  0.37700  1.0000 -0.0013950342
C   C51       1.0  0.70320  0.14990  0.87700  1.0000 -0.0013950342
C   C52       1.0  0.29680  0.64990  0.62300  1.0000 -0.0013950342
C   C53       1.0  0.39350  0.84790  0.08730  1.0000 0.6553822795
C   C54       1.0  0.60650  0.34790  0.41270  1.0000 0.6553822795
C   C55       1.0  0.60650  0.15210  0.91270  1.0000 0.6553822795
C   C56       1.0  0.39350  0.65210  0.58730  1.0000 0.6553822795
N   N1        1.0  0.18340  0.18290  0.29060  1.0000 -0.4682905226
N   N2        1.0  0.81660  0.68290  0.20940  1.0000 -0.4682905226
N   N3        1.0  0.81660  0.81710  0.70940  1.0000 -0.4682905226
N   N4        1.0  0.18340  0.31710  0.79060  1.0000 -0.4682905226
N   N5        1.0  0.03580  0.06660  0.31350  1.0000 -0.2571862897
N   N6        1.0  0.96420  0.56660  0.18650  1.0000 -0.2571862897
N   N7        1.0  0.96420  0.93340  0.68650  1.0000 -0.2571862897
N   N8        1.0  0.03580  0.43340  0.81350  1.0000 -0.2571862897
N   N9        1.0  0.34790  0.83850  0.18470  1.0000 -0.4682905226
N   N10       1.0  0.65210  0.33850  0.31530  1.0000 -0.4682905226
N   N11       1.0  0.65210  0.16150  0.81530  1.0000 -0.4682905226
N   N12       1.0  0.34790  0.66150  0.68470  1.0000 -0.4682905226
N   N13       1.0  0.12740  0.86880  0.15920  1.0000 -0.2571862897
N   N14       1.0  0.87260  0.36880  0.34080  1.0000 -0.2571862897
N   N15       1.0  0.87260  0.13120  0.84080  1.0000 -0.2571862897
N   N16       1.0  0.12740  0.63120  0.65920  1.0000 -0.2571862897
O   O1        1.0  0.52550  0.61180  0.18420  1.0000 -0.5498939565
O   O2        1.0  0.47450  0.11180  0.31580  1.0000 -0.5498939565
O   O3        1.0  0.47450  0.38820  0.81580  1.0000 -0.5498939565
O   O4        1.0  0.52550  0.88820  0.68420  1.0000 -0.5498939565
O   O5        1.0  0.42760  0.44270  0.19930  1.0000 -0.5683374515
O   O6        1.0  0.57240  0.94270  0.30070  1.0000 -0.5683374515
O   O7        1.0  0.57240  0.55730  0.80070  1.0000 -0.5683374515
O   O8        1.0  0.42760  0.05730  0.69930  1.0000 -0.5683374515
O   O9        1.0  0.52180  0.69410  0.29100  1.0000 -0.5498939565
O   O10       1.0  0.47820  0.19410  0.20900  1.0000 -0.5498939565
O   O11       1.0  0.47820  0.30590  0.70900  1.0000 -0.5498939565
O   O12       1.0  0.52180  0.80590  0.79100  1.0000 -0.5498939565
O   O13       1.0  0.44340  0.52080  0.31040  1.0000 -0.5683374515
O   O14       1.0  0.55660  0.02080  0.18960  1.0000 -0.5683374515
O   O15       1.0  0.55660  0.47920  0.68960  1.0000 -0.5683374515
O   O16       1.0  0.44340  0.97920  0.81040  1.0000 -0.5683374515
O   O17       1.0  0.82050  0.93790  0.24820  1.0000 -0.6036027631
O   O18       1.0  0.17950  0.43790  0.25180  1.0000 -0.6036027631
O   O19       1.0  0.17950  0.06210  0.75180  1.0000 -0.6036027631
O   O20       1.0  0.82050  0.56210  0.74820  1.0000 -0.6036027631
O   O21       1.0  0.84650  0.98460  0.16020  1.0000 -0.6815941295
O   O22       1.0  0.15350  0.48460  0.33980  1.0000 -0.6815941295
O   O23       1.0  0.15350  0.01540  0.83980  1.0000 -0.6815941295
O   O24       1.0  0.84650  0.51540  0.66020  1.0000 -0.6815941295
O   O25       1.0  0.00680  0.15970  0.13110  1.0000 -0.6955509445
O   O26       1.0  0.99320  0.65970  0.36890  1.0000 -0.6955509445
O   O27       1.0  0.99320  0.84030  0.86890  1.0000 -0.6955509445
O   O28       1.0  0.00680  0.34030  0.63110  1.0000 -0.6955509445
O   O29       1.0  0.20690  0.24190  0.18240  1.0000 -0.5790402553
O   O30       1.0  0.79310  0.74190  0.31760  1.0000 -0.5790402553
O   O31       1.0  0.79310  0.75810  0.81760  1.0000 -0.5790402553
O   O32       1.0  0.20690  0.25810  0.68240  1.0000 -0.5790402553
O   O33       1.0  0.05990  0.86590  0.99850  1.0000 -0.6571088096
O   O34       1.0  0.94010  0.36590  0.50150  1.0000 -0.6544394454
O   O35       1.0  0.94010  0.13410  0.00150  1.0000 -0.6544394454
O   O36       1.0  0.05990  0.63410  0.49850  1.0000 -0.6571088096
O   O37       1.0  0.92900  0.91140  0.05440  1.0000 -0.6571088096
O   O38       1.0  0.07100  0.41140  0.44560  1.0000 -0.6571088096
O   O39       1.0  0.07100  0.08860  0.94560  1.0000 -0.6571088096
O   O40       1.0  0.92900  0.58860  0.55440  1.0000 -0.6571088096
O   O41       1.0  0.35250  0.87210  0.03220  1.0000 -0.7102438769
O   O42       1.0  0.64750  0.37210  0.46780  1.0000 -0.7102438769
O   O43       1.0  0.64750  0.12790  0.96780  1.0000 -0.7102438769
O   O44       1.0  0.35250  0.62790  0.53220  1.0000 -0.7102438769
O   O45       1.0  0.51850  0.82260  0.11620  1.0000 -0.6211239061
O   O46       1.0  0.48150  0.32260  0.38380  1.0000 -0.6211239061
O   O47       1.0  0.48150  0.17740  0.88380  1.0000 -0.6211239061
O   O48       1.0  0.51850  0.67740  0.61620  1.0000 -0.6211239061
