# DDEC6 charges by PACMAN v1.1 (https://github.com/mtap-research/PACMAN-charge/)
data_2012[Zn][nan]3[ASR]36
_chemical_formula_sum              "Zn10 P10 H60 C60 N12 O40"
_cell_length_a       10.0239
_cell_length_b       10.0797
_cell_length_c       23.5726
_cell_angle_alpha    102.287
_cell_angle_beta     100.234
_cell_angle_gamma    88.768

_symmetry_space_group_name_H-M    "P 1"
_symmetry_Int_Tables_number       1

loop_
  _symmetry_equiv_pos_as_xyz
  'x, y, z'

loop_
  _atom_site_type_symbol
  _atom_site_label
  _atom_site_symmetry_multiplicity
  _atom_site_fract_x
  _atom_site_fract_y
  _atom_site_fract_z
  _atom_site_occupancy
  _atom_site_charge
Zn  Zn1       1.0  0.39670  0.75110  0.20620  1.0000 0.9503930663
Zn  Zn2       1.0  0.60330  0.24890  0.79380  1.0000 0.9503930663
Zn  Zn3       1.0  0.73790  0.07100  0.29140  1.0000 0.9604987954
Zn  Zn4       1.0  0.26210  0.92900  0.70860  1.0000 0.9604987954
Zn  Zn5       1.0  0.42180  0.38670  0.25110  1.0000 0.9878147696
Zn  Zn6       1.0  0.57820  0.61330  0.74890  1.0000 0.9878147696
Zn  Zn7       1.0  0.10510  0.05510  0.24630  1.0000 0.9704167996
Zn  Zn8       1.0  0.89490  0.94490  0.75370  1.0000 0.9704167996
Zn  Zn9       1.0  0.91850  0.56340  0.24690  1.0000 1.0843913411
Zn  Zn10      1.0  0.08150  0.43660  0.75310  1.0000 1.0843913411
P   P1        1.0  0.17500  0.53300  0.18510  1.0000 1.4904481028
P   P2        1.0  0.82500  0.46700  0.81490  1.0000 1.4904481028
P   P3        1.0  0.94700  0.31300  0.31560  1.0000 1.4967006896
P   P4        1.0  0.05300  0.68700  0.68440  1.0000 1.4967006896
P   P5        1.0  0.97400  0.87000  0.31380  1.0000 1.5083713387
P   P6        1.0  0.02600  0.13000  0.68620  1.0000 1.5083713387
P   P7        1.0  0.42000  0.06600  0.25130  1.0000 1.4904481028
P   P8        1.0  0.58000  0.93400  0.74870  1.0000 1.4904481028
P   P9        1.0  0.61100  0.53100  0.17720  1.0000 1.516942427
P   P10       1.0  0.38900  0.46900  0.82280  1.0000 1.516942427
H   H1        1.0  0.26660  0.46580  0.34850  1.0000 0.1293886462
H   H2        1.0  0.73340  0.53420  0.65150  1.0000 0.1293886462
H   H3        1.0  0.28960  0.51590  0.44920  1.0000 0.1293886462
H   H4        1.0  0.71040  0.48410  0.55080  1.0000 0.1293886462
H   H5        1.0  0.65460  0.40010  0.35790  1.0000 0.1293886462
H   H6        1.0  0.34540  0.59990  0.64210  1.0000 0.1293886462
H   H7        1.0  0.64900  0.72430  0.29410  1.0000 0.1293886462
H   H8        1.0  0.35100  0.27570  0.70590  1.0000 0.1293886462
H   H9        1.0  0.71630  0.74890  0.39340  1.0000 0.1378587443
H   H10       1.0  0.28370  0.25110  0.60660  1.0000 0.1378587443
H   H11       1.0  0.06840  0.23030  0.15570  1.0000 0.1293886462
H   H12       1.0  0.93160  0.76970  0.84430  1.0000 0.1293886462
H   H13       1.0  0.02390  0.21310  0.05620  1.0000 0.1293886462
H   H14       1.0  0.97610  0.78690  0.94380  1.0000 0.1293886462
H   H15       1.0  0.73390  0.83600  0.19240  1.0000 0.1293886462
H   H16       1.0  0.26610  0.16400  0.80760  1.0000 0.1293886462
H   H17       1.0  0.73610  0.22400  0.19560  1.0000 0.1293886462
H   H18       1.0  0.26390  0.77600  0.80440  1.0000 0.1293886462
H   H19       1.0  0.38880  0.86110  0.50160  1.0000 0.1378587443
H   H20       1.0  0.61120  0.13890  0.49840  1.0000 0.1378587443
H   H21       1.0  0.76950  0.75970  0.48290  1.0000 0.1378587443
H   H22       1.0  0.23050  0.24030  0.51710  1.0000 0.1378587443
H   H23       1.0  0.05420  0.83560  0.13580  1.0000 0.1378587443
H   H24       1.0  0.94580  0.16440  0.86420  1.0000 0.1293886462
H   H25       1.0  0.00820  0.81000  0.03540  1.0000 0.1293886462
H   H26       1.0  0.99180  0.19000  0.96460  1.0000 0.1293886462
H   H27       1.0  0.68610  0.44330  0.45900  1.0000 0.1293886462
H   H28       1.0  0.31390  0.55670  0.54100  1.0000 0.1293886462
H   H29       1.0  0.32810  0.81100  0.41200  1.0000 0.1293886462
H   H30       1.0  0.67190  0.18900  0.58800  1.0000 0.1293886462
H   H31       1.0  0.27330  0.78310  0.31210  1.0000 0.1293886462
H   H32       1.0  0.72670  0.21690  0.68790  1.0000 0.1293886462
H   H33       1.0  0.70180  0.78590  0.09190  1.0000 0.1293886462
H   H34       1.0  0.29820  0.21410  0.90810  1.0000 0.1293886462
H   H35       1.0  0.45850  0.90440  0.60240  1.0000 0.1378587443
H   H36       1.0  0.54150  0.09560  0.39760  1.0000 0.1378587443
H   H37       1.0  0.83030  0.80460  0.58380  1.0000 0.1164171998
H   H38       1.0  0.16970  0.19540  0.41620  1.0000 0.1164171998
H   H39       1.0  0.60130  0.70480  0.90100  1.0000 0.1378587443
H   H40       1.0  0.39870  0.29520  0.09900  1.0000 0.1378587443
H   H41       1.0  0.64300  0.74690  0.00210  1.0000 0.1378587443
H   H42       1.0  0.35700  0.25310  0.99790  1.0000 0.1378587443
H   H43       1.0  0.64340  0.09030  0.90270  1.0000 0.1293886462
H   H44       1.0  0.35660  0.90970  0.09730  1.0000 0.1293886462
H   H45       1.0  0.68470  0.14140  0.00490  1.0000 0.1293886462
H   H46       1.0  0.31530  0.85860  0.99510  1.0000 0.1293886462
H   H47       1.0  0.68800  0.18340  0.09350  1.0000 0.1293886462
H   H48       1.0  0.31200  0.81660  0.90650  1.0000 0.1293886462
H   H49       1.0  0.60690  0.86520  0.85420  1.0000 0.3033632193
H   H50       1.0  0.39310  0.13480  0.14580  1.0000 0.3033632193
H   H51       1.0  0.66900  0.87850  0.63890  1.0000 0.3074429785
H   H52       1.0  0.33100  0.12150  0.36110  1.0000 0.3074429785
H   H53       1.0  0.04720  0.96890  0.40080  1.0000 0.381453902
H   H54       1.0  0.95280  0.03110  0.59920  1.0000 0.381453902
H   H55       1.0  0.98330  0.37680  0.40330  1.0000 0.36697913
H   H56       1.0  0.01670  0.62320  0.59670  1.0000 0.36697913
H   H57       1.0  0.15400  0.45230  0.09990  1.0000 0.36697913
H   H58       1.0  0.84600  0.54770  0.90010  1.0000 0.36697913
H   H59       1.0  0.71130  0.46600  0.10020  1.0000 0.4013405745
H   H60       1.0  0.28870  0.53400  0.89980  1.0000 0.4013405745
C   C1        1.0  0.35200  0.46200  0.37100  1.0000 0.0988002483
C   C2        1.0  0.64800  0.53800  0.62900  1.0000 0.0988002483
C   C3        1.0  0.36500  0.49100  0.43200  1.0000 -0.1997048522
C   C4        1.0  0.63500  0.50900  0.56800  1.0000 -0.1997048522
C   C5        1.0  0.58000  0.42300  0.37600  1.0000 0.0926023199
C   C6        1.0  0.42000  0.57700  0.62400  1.0000 0.0926023199
C   C7        1.0  0.58400  0.74200  0.31800  1.0000 0.0926023199
C   C8        1.0  0.41600  0.25800  0.68200  1.0000 0.0926023199
C   C9        1.0  0.62500  0.75700  0.37800  1.0000 -0.1721011694
C   C10       1.0  0.37500  0.24300  0.62200  1.0000 -0.1721011694
C   C11       1.0  0.53000  0.78400  0.41500  1.0000 0.0988002483
C   C12       1.0  0.47000  0.21600  0.58500  1.0000 0.0988002483
C   C13       1.0  0.57300  0.80700  0.48000  1.0000 0.111717191
C   C14       1.0  0.42700  0.19300  0.52000  1.0000 0.111717191
C   C15       1.0  0.05700  0.14400  0.13100  1.0000 0.0796626457
C   C16       1.0  0.94300  0.85600  0.86900  1.0000 0.0796626457
C   C17       1.0  0.03000  0.13500  0.07100  1.0000 -0.1997048522
C   C18       1.0  0.97000  0.86500  0.92900  1.0000 -0.1997048522
C   C19       1.0  0.01300  0.00800  0.03300  1.0000 0.0988002483
C   C20       1.0  0.98700  0.99200  0.96700  1.0000 0.0988002483
C   C21       1.0  0.72600  0.90700  0.17200  1.0000 0.0988002483
C   C22       1.0  0.27400  0.09300  0.82800  1.0000 0.0988002483
C   C23       1.0  0.72500  0.13500  0.17400  1.0000 0.0926023199
C   C24       1.0  0.27500  0.86500  0.82600  1.0000 0.0926023199
C   C25       1.0  0.47900  0.85000  0.51700  1.0000 -0.1997048522
C   C26       1.0  0.52100  0.15000  0.48300  1.0000 -0.1997048522
C   C27       1.0  0.70500  0.79000  0.50600  1.0000 -0.210584044
C   C28       1.0  0.29500  0.21000  0.49400  1.0000 -0.210584044
C   C29       1.0  0.04800  0.91300  0.12000  1.0000 0.0926023199
C   C30       1.0  0.95200  0.08700  0.88000  1.0000 0.0926023199
C   C31       1.0  0.02100  0.89700  0.05900  1.0000 -0.1997048522
C   C32       1.0  0.97900  0.10300  0.94100  1.0000 -0.1997048522
C   C33       1.0  0.69600  0.98000  0.08100  1.0000 0.0926023199
C   C34       1.0  0.30400  0.02000  0.91900  1.0000 0.0926023199
C   C35       1.0  0.60000  0.44900  0.43800  1.0000 -0.1997048522
C   C36       1.0  0.40000  0.55100  0.56200  1.0000 -0.1997048522
C   C37       1.0  0.39500  0.79300  0.38900  1.0000 -0.1902694064
C   C38       1.0  0.60500  0.20700  0.61100  1.0000 -0.1902694064
C   C39       1.0  0.67100  0.94900  0.01600  1.0000 0.111717191
C   C40       1.0  0.32900  0.05100  0.98400  1.0000 0.111717191
C   C41       1.0  0.36400  0.77600  0.32900  1.0000 0.0988002483
C   C42       1.0  0.63600  0.22400  0.67100  1.0000 0.0988002483
C   C43       1.0  0.70700  0.87600  0.11200  1.0000 -0.1786779533
C   C44       1.0  0.29300  0.12400  0.88800  1.0000 -0.1786779533
C   C45       1.0  0.52000  0.87600  0.57700  1.0000 0.0614581187
C   C46       1.0  0.48000  0.12400  0.42300  1.0000 0.0614581187
C   C47       1.0  0.74100  0.81600  0.56700  1.0000 0.0926023199
C   C48       1.0  0.25900  0.18400  0.43300  1.0000 0.0926023199
C   C49       1.0  0.62000  0.79300  0.92200  1.0000 0.0796626457
C   C50       1.0  0.38000  0.20700  0.07800  1.0000 0.0796626457
C   C51       1.0  0.64400  0.81800  0.98300  1.0000 -0.210584044
C   C52       1.0  0.35600  0.18200  0.01700  1.0000 -0.210584044
C   C53       1.0  0.64400  0.02100  0.92300  1.0000 0.0988002483
C   C54       1.0  0.35600  0.97900  0.07700  1.0000 0.0988002483
C   C55       1.0  0.66900  0.05200  0.98500  1.0000 -0.210584044
C   C56       1.0  0.33100  0.94800  0.01500  1.0000 -0.210584044
C   C57       1.0  0.49100  0.48400  0.46700  1.0000 0.0988002483
C   C58       1.0  0.50900  0.51600  0.53300  1.0000 0.0988002483
C   C59       1.0  0.70100  0.11100  0.11300  1.0000 -0.1902694064
C   C60       1.0  0.29900  0.88900  0.88700  1.0000 -0.1902694064
N   N1        1.0  0.62200  0.89400  0.89400  1.0000 -0.1089229635
N   N2        1.0  0.37800  0.10600  0.10600  1.0000 -0.1089229635
N   N3        1.0  0.06700  0.03600  0.15700  1.0000 -0.2688488111
N   N4        1.0  0.93300  0.96400  0.84300  1.0000 -0.2688488111
N   N5        1.0  0.45700  0.42800  0.34300  1.0000 -0.2617404307
N   N6        1.0  0.54300  0.57200  0.65700  1.0000 -0.2617404307
N   N7        1.0  0.45300  0.75100  0.29300  1.0000 -0.2688488111
N   N8        1.0  0.54700  0.24900  0.70700  1.0000 -0.2688488111
N   N9        1.0  0.73400  0.03500  0.20400  1.0000 -0.2688488111
N   N10       1.0  0.26600  0.96500  0.79600  1.0000 -0.2688488111
N   N11       1.0  0.65000  0.85900  0.60000  1.0000 -0.1089229635
N   N12       1.0  0.35000  0.14100  0.40000  1.0000 -0.1089229635
O   O1        1.0  0.21600  0.67600  0.18300  1.0000 -0.7975522424
O   O2        1.0  0.78400  0.32400  0.81700  1.0000 -0.7975522424
O   O3        1.0  0.02300  0.52500  0.18400  1.0000 -0.8185807164
O   O4        1.0  0.97700  0.47500  0.81600  1.0000 -0.8185807164
O   O5        1.0  0.20600  0.43000  0.12900  1.0000 -0.6803553547
O   O6        1.0  0.79400  0.57000  0.87100  1.0000 -0.6803553547
O   O7        1.0  0.25600  0.48200  0.23700  1.0000 -0.8097852145
O   O8        1.0  0.74400  0.51800  0.76300  1.0000 -0.8097852145
O   O9        1.0  0.50800  0.63400  0.15800  1.0000 -0.8185807164
O   O10       1.0  0.49200  0.36600  0.84200  1.0000 -0.8185807164
O   O11       1.0  0.55700  0.44100  0.21200  1.0000 -0.8097852145
O   O12       1.0  0.44300  0.55900  0.78800  1.0000 -0.8097852145
O   O13       1.0  0.64100  0.43300  0.12000  1.0000 -0.7151905443
O   O14       1.0  0.35900  0.56700  0.88000  1.0000 -0.7151905443
O   O15       1.0  0.74000  0.60600  0.20900  1.0000 -0.8286790993
O   O16       1.0  0.26000  0.39400  0.79100  1.0000 -0.8286790993
O   O17       1.0  0.29700  0.06700  0.28300  1.0000 -0.8097852145
O   O18       1.0  0.70300  0.93300  0.71700  1.0000 -0.8097852145
O   O19       1.0  0.41400  0.18900  0.22100  1.0000 -0.8097852145
O   O20       1.0  0.58600  0.81100  0.77900  1.0000 -0.8097852145
O   O21       1.0  0.41300  0.93900  0.20200  1.0000 -0.8185807164
O   O22       1.0  0.58700  0.06100  0.79800  1.0000 -0.8185807164
O   O23       1.0  0.54700  0.07400  0.29800  1.0000 -0.8097852145
O   O24       1.0  0.45300  0.92600  0.70200  1.0000 -0.8097852145
O   O25       1.0  0.83300  0.23700  0.33000  1.0000 -0.8286790993
O   O26       1.0  0.16700  0.76300  0.67000  1.0000 -0.8286790993
O   O27       1.0  0.88900  0.41900  0.28400  1.0000 -0.791847303
O   O28       1.0  0.11100  0.58100  0.71600  1.0000 -0.791847303
O   O29       1.0  0.03900  0.22100  0.28400  1.0000 -0.8097852145
O   O30       1.0  0.96100  0.77900  0.71600  1.0000 -0.8097852145
O   O31       1.0  0.03200  0.38600  0.37700  1.0000 -0.696988756
O   O32       1.0  0.96800  0.61400  0.62300  1.0000 -0.696988756
O   O33       1.0  0.83600  0.92900  0.32500  1.0000 -0.8185807164
O   O34       1.0  0.16400  0.07100  0.67500  1.0000 -0.8185807164
O   O35       1.0  0.01200  0.90200  0.25900  1.0000 -0.8097852145
O   O36       1.0  0.98800  0.09800  0.74100  1.0000 -0.8097852145
O   O37       1.0  0.97500  0.71800  0.31200  1.0000 -0.7975522424
O   O38       1.0  0.02500  0.28200  0.68800  1.0000 -0.7975522424
O   O39       1.0  0.08400  0.93800  0.36800  1.0000 -0.696988756
O   O40       1.0  0.91600  0.06200  0.63200  1.0000 -0.693888023
