# DDEC6 charges by PACMAN v1.1 (https://github.com/mtap-research/PACMAN-charge/)
data_2012[Zn][pcu]3[ASR]7
_chemical_formula_sum              "Zn16 H64 C120 O52"
_cell_length_a       17.3043
_cell_length_b       18.377
_cell_length_c       17.9565
_cell_angle_alpha    90
_cell_angle_beta     90
_cell_angle_gamma    90

_symmetry_space_group_name_H-M    "P 1"
_symmetry_Int_Tables_number       1

loop_
  _symmetry_equiv_pos_as_xyz
  'x, y, z'

loop_
  _atom_site_type_symbol
  _atom_site_label
  _atom_site_symmetry_multiplicity
  _atom_site_fract_x
  _atom_site_fract_y
  _atom_site_fract_z
  _atom_site_occupancy
  _atom_site_charge
Zn  Zn1       1.0  0.82343  0.68187  0.05543  1.0000 0.9201626248
Zn  Zn2       1.0  0.70347  0.18217  0.38723  1.0000 0.9201626248
Zn  Zn3       1.0  0.82335  0.68180  0.88725  1.0000 0.9272432069
Zn  Zn4       1.0  0.70327  0.18165  0.55539  1.0000 0.9201626248
Zn  Zn5       1.0  0.69809  0.60007  0.97216  1.0000 0.9201626248
Zn  Zn6       1.0  0.69856  0.76411  0.97082  1.0000 0.9201626248
Zn  Zn7       1.0  0.82864  0.10012  0.47186  1.0000 0.9272432069
Zn  Zn8       1.0  0.82835  0.26413  0.47115  1.0000 0.9201626248
Zn  Zn9       1.0  0.17656  0.31789  0.11217  1.0000 0.9272432069
Zn  Zn10      1.0  0.29676  0.81827  0.44386  1.0000 0.9201626248
Zn  Zn11      1.0  0.17649  0.31810  0.94398  1.0000 0.9201626248
Zn  Zn12      1.0  0.29638  0.81785  0.61202  1.0000 0.9201626248
Zn  Zn13      1.0  0.30169  0.39997  0.02736  1.0000 0.9201626248
Zn  Zn14      1.0  0.30147  0.23591  0.02840  1.0000 0.9146645407
Zn  Zn15      1.0  0.17147  0.90004  0.52724  1.0000 0.9272432069
Zn  Zn16      1.0  0.17146  0.73603  0.52822  1.0000 0.9201626248
H   H1        1.0  0.31684  0.57975  0.02863  1.0000 0.1108644297
H   H2        1.0  0.87022  0.52205  0.21730  1.0000 0.1166399251
H   H3        1.0  0.65253  0.44143  0.13476  1.0000 0.1108644297
H   H4        1.0  0.65551  0.34344  0.22693  1.0000 0.1166399251
H   H5        1.0  0.87207  0.42547  0.31123  1.0000 0.1166399251
H   H6        1.0  0.06333  0.72050  0.85820  1.0000 0.1108644297
H   H7        1.0  0.20487  0.72276  0.85930  1.0000 0.1020849201
H   H8        1.0  0.20455  0.64265  0.08495  1.0000 0.1108644297
H   H9        1.0  0.06769  0.08310  0.53590  1.0000 0.1166399251
H   H10       1.0  0.67413  0.03687  0.20977  1.0000 0.1108644297
H   H11       1.0  0.85675  0.92445  0.32606  1.0000 0.1108644297
H   H12       1.0  0.85450  0.82827  0.23199  1.0000 0.1166399251
H   H13       1.0  0.67210  0.94076  0.11555  1.0000 0.1166399251
H   H14       1.0  0.46349  0.15353  0.58792  1.0000 0.1166399251
H   H15       1.0  0.06828  0.28146  0.40785  1.0000 0.1108644297
H   H16       1.0  0.21023  0.28042  0.40687  1.0000 0.1108644297
H   H17       1.0  0.45851  0.57857  0.02680  1.0000 0.1166399251
H   H18       1.0  0.85412  0.53523  0.71152  1.0000 0.1108644297
H   H19       1.0  0.67139  0.42283  0.82770  1.0000 0.1108644297
H   H20       1.0  0.67358  0.32671  0.73349  1.0000 0.1166399251
H   H21       1.0  0.85607  0.43926  0.61722  1.0000 0.1166399251
H   H22       1.0  0.06289  0.64232  0.08459  1.0000 0.1108644297
H   H23       1.0  0.45860  0.78679  0.91627  1.0000 0.1108644297
H   H24       1.0  0.31675  0.78665  0.91600  1.0000 0.1108644297
H   H25       1.0  0.20964  0.08353  0.53680  1.0000 0.1108644297
H   H26       1.0  0.65769  0.02284  0.71844  1.0000 0.1166399251
H   H27       1.0  0.87200  0.93860  0.63156  1.0000 0.1108644297
H   H28       1.0  0.86903  0.84054  0.72368  1.0000 0.1166399251
H   H29       1.0  0.65591  0.92617  0.81220  1.0000 0.1166399251
H   H30       1.0  0.46302  0.20703  0.35406  1.0000 0.1166399251
H   H31       1.0  0.32132  0.20771  0.35457  1.0000 0.1020849201
H   H32       1.0  0.32181  0.15326  0.58804  1.0000 0.1108644297
H   H33       1.0  0.68355  0.41993  0.97171  1.0000 0.1108644297
H   H34       1.0  0.14694  0.46360  0.28935  1.0000 0.1108644297
H   H35       1.0  0.32670  0.57781  0.17075  1.0000 0.1108644297
H   H36       1.0  0.32453  0.67406  0.26479  1.0000 0.1166399251
H   H37       1.0  0.14514  0.55969  0.38357  1.0000 0.1166399251
H   H38       1.0  0.93676  0.35446  0.91436  1.0000 0.1108644297
H   H39       1.0  0.93231  0.91661  0.46199  1.0000 0.1166399251
H   H40       1.0  0.34351  0.97790  0.28176  1.0000 0.1166399251
H   H41       1.0  0.12773  0.06064  0.36680  1.0000 0.1108644297
H   H42       1.0  0.13071  0.15862  0.27465  1.0000 0.1166399251
H   H43       1.0  0.34545  0.07467  0.18805  1.0000 0.1166399251
H   H44       1.0  0.53685  0.78723  0.64393  1.0000 0.1166399251
H   H45       1.0  0.93170  0.71963  0.59232  1.0000 0.1108644297
H   H46       1.0  0.78995  0.72059  0.59338  1.0000 0.1108644297
H   H47       1.0  0.54184  0.42176  0.97368  1.0000 0.1166399251
H   H48       1.0  0.12837  0.47933  0.78355  1.0000 0.1166399251
H   H49       1.0  0.34773  0.55801  0.86393  1.0000 0.1108644297
H   H50       1.0  0.34501  0.65570  0.77138  1.0000 0.1166399251
H   H51       1.0  0.12655  0.57583  0.68951  1.0000 0.1166399251
H   H52       1.0  0.93658  0.27973  0.14199  1.0000 0.1108644297
H   H53       1.0  0.79500  0.27745  0.14102  1.0000 0.1020849201
H   H54       1.0  0.79510  0.35467  0.91434  1.0000 0.1108644297
H   H55       1.0  0.54082  0.21285  0.08291  1.0000 0.1108644297
H   H56       1.0  0.68271  0.21259  0.08351  1.0000 0.1108644297
H   H57       1.0  0.79051  0.91638  0.46129  1.0000 0.1108644297
H   H58       1.0  0.32462  0.96239  0.79028  1.0000 0.1108644297
H   H59       1.0  0.14657  0.07802  0.67071  1.0000 0.1108644297
H   H60       1.0  0.14914  0.17431  0.76465  1.0000 0.1166399251
H   H61       1.0  0.32683  0.05850  0.88442  1.0000 0.1166399251
H   H62       1.0  0.53629  0.85185  0.41300  1.0000 0.1166399251
H   H63       1.0  0.67774  0.85268  0.41282  1.0000 0.1108644297
H   H64       1.0  0.67845  0.78742  0.64365  1.0000 0.1020849201
C   C1        1.0  0.76502  0.31693  0.33495  1.0000 0.6088599822
C   C2        1.0  0.34693  0.62544  0.00427  1.0000 -0.1388672153
C   C3        1.0  0.76402  0.37607  0.27698  1.0000 -0.0296633028
C   C4        1.0  0.76163  0.48945  0.16741  1.0000 -0.0213273466
C   C5        1.0  0.76097  0.54809  0.10893  1.0000 0.6088599822
C   C6        1.0  0.82272  0.48371  0.21895  1.0000 -0.099504435
C   C7        1.0  0.70140  0.43802  0.17214  1.0000 -0.09166787
C   C8        1.0  0.70284  0.38196  0.22557  1.0000 -0.099504435
C   C9        1.0  0.82381  0.42807  0.27292  1.0000 -0.099504435
C   C10       1.0  0.09327  0.70341  0.90818  1.0000 -0.09166787
C   C11       1.0  0.17481  0.70497  0.90891  1.0000 -0.1388672153
C   C12       1.0  0.17462  0.65964  0.03492  1.0000 -0.1388672153
C   C13       1.0  0.76184  0.81693  0.10744  1.0000 0.6088599822
C   C14       1.0  0.09795  0.12675  0.50784  1.0000 -0.09166787
C   C15       1.0  0.76296  0.87604  0.16571  1.0000 -0.0213273466
C   C16       1.0  0.76543  0.98891  0.27625  1.0000 -0.0296633028
C   C17       1.0  0.76619  0.04782  0.33467  1.0000 0.6088599822
C   C18       1.0  0.71389  0.99171  0.21548  1.0000 -0.099504435
C   C19       1.0  0.81588  0.92875  0.28062  1.0000 -0.099504435
C   C20       1.0  0.81462  0.87333  0.22639  1.0000 -0.099504435
C   C21       1.0  0.71269  0.93631  0.16121  1.0000 -0.1058885341
C   C22       1.0  0.43339  0.16544  0.53644  1.0000 -0.09166787
C   C23       1.0  0.09833  0.23785  0.43628  1.0000 -0.099504435
C   C24       1.0  0.17991  0.23707  0.43542  1.0000 -0.1345373576
C   C25       1.0  0.76554  0.31606  0.60835  1.0000 0.6045929531
C   C26       1.0  0.42846  0.62454  0.00269  1.0000 -0.09166787
C   C27       1.0  0.76490  0.37472  0.66709  1.0000 -0.0213273466
C   C28       1.0  0.76251  0.48745  0.77773  1.0000 -0.0296633028
C   C29       1.0  0.76135  0.54673  0.83575  1.0000 0.6088599822
C   C30       1.0  0.81424  0.49014  0.71712  1.0000 -0.099504435
C   C31       1.0  0.71215  0.42722  0.78218  1.0000 -0.099504435
C   C32       1.0  0.71339  0.37184  0.72789  1.0000 -0.099504435
C   C33       1.0  0.81540  0.43482  0.66281  1.0000 -0.099504435
C   C34       1.0  0.09306  0.65980  0.03484  1.0000 -0.09166787
C   C35       1.0  0.42846  0.74110  0.94093  1.0000 -0.09166787
C   C36       1.0  0.34687  0.74089  0.94053  1.0000 -0.1388672153
C   C37       1.0  0.76143  0.81602  0.83405  1.0000 0.6088599822
C   C38       1.0  0.17952  0.12715  0.50873  1.0000 -0.1345373576
C   C39       1.0  0.76218  0.87490  0.77578  1.0000 -0.0296633028
C   C40       1.0  0.76461  0.98852  0.66642  1.0000 -0.0213273466
C   C41       1.0  0.76538  0.04743  0.60818  1.0000 0.6088599822
C   C42       1.0  0.70444  0.98366  0.71905  1.0000 -0.099504435
C   C43       1.0  0.82386  0.93599  0.66989  1.0000 -0.09166787
C   C44       1.0  0.82234  0.87977  0.72317  1.0000 -0.099504435
C   C45       1.0  0.70335  0.92794  0.77291  1.0000 -0.099504435
C   C46       1.0  0.43315  0.19533  0.40567  1.0000 -0.09166787
C   C47       1.0  0.35156  0.19610  0.40601  1.0000 -0.1388672153
C   C48       1.0  0.35183  0.16493  0.53645  1.0000 -0.1388672153
C   C49       1.0  0.47070  0.68266  0.97155  1.0000 -0.0387346227
C   C50       1.0  0.96362  0.68147  0.97125  1.0000 0.6088599822
C   C51       1.0  0.55794  0.68241  0.97133  1.0000 0.6088599822
C   C52       1.0  0.30456  0.68320  0.97253  1.0000 0.0805667753
C   C53       1.0  0.05089  0.68140  0.97136  1.0000 -0.0387346227
C   C54       1.0  0.21705  0.68272  0.97216  1.0000 0.0805667753
C   C55       1.0  0.05596  0.18234  0.47193  1.0000 -0.0387346227
C   C56       1.0  0.56301  0.18117  0.47108  1.0000 0.6088599822
C   C57       1.0  0.96881  0.18230  0.47162  1.0000 0.6088599822
C   C58       1.0  0.22199  0.18181  0.47189  1.0000 0.0805667753
C   C59       1.0  0.47563  0.18059  0.47104  1.0000 -0.0454306786
C   C60       1.0  0.30942  0.18096  0.47144  1.0000 0.0805667753
C   C61       1.0  0.23424  0.68388  0.39106  1.0000 0.6088599822
C   C62       1.0  0.65320  0.37426  0.99589  1.0000 -0.1388672153
C   C63       1.0  0.23478  0.62516  0.33242  1.0000 -0.0296633028
C   C64       1.0  0.23704  0.51228  0.22192  1.0000 -0.0296633028
C   C65       1.0  0.23820  0.45300  0.16387  1.0000 0.6088599822
C   C66       1.0  0.18615  0.50913  0.28317  1.0000 -0.099504435
C   C67       1.0  0.28661  0.57303  0.21680  1.0000 -0.099504435
C   C68       1.0  0.28539  0.62851  0.27098  1.0000 -0.099504435
C   C69       1.0  0.18507  0.56454  0.33742  1.0000 -0.099504435
C   C70       1.0  0.90668  0.33795  0.96448  1.0000 -0.09166787
C   C71       1.0  0.23890  0.18379  0.16516  1.0000 0.6088599822
C   C72       1.0  0.90203  0.87331  0.49064  1.0000 -0.09166787
C   C73       1.0  0.23825  0.12495  0.22340  1.0000 -0.0296633028
C   C74       1.0  0.23584  0.01146  0.33280  1.0000 -0.0213273466
C   C75       1.0  0.23493  0.95252  0.39097  1.0000 0.6088599822
C   C76       1.0  0.29647  0.01675  0.28070  1.0000 -0.099504435
C   C77       1.0  0.17621  0.06358  0.32889  1.0000 -0.09166787
C   C78       1.0  0.17770  0.11972  0.27557  1.0000 -0.099504435
C   C79       1.0  0.29759  0.07246  0.22684  1.0000 -0.099504435
C   C80       1.0  0.56674  0.80159  0.59300  1.0000 -0.09166787
C   C81       1.0  0.90167  0.76296  0.56345  1.0000 -0.099504435
C   C82       1.0  0.82011  0.76373  0.56437  1.0000 -0.1345373576
C   C83       1.0  0.23455  0.68324  0.66451  1.0000 0.6088599822
C   C84       1.0  0.57168  0.37551  0.99750  1.0000 -0.09166787
C   C85       1.0  0.23551  0.62415  0.72254  1.0000 -0.0296633028
C   C86       1.0  0.23784  0.51091  0.83232  1.0000 -0.0213273466
C   C87       1.0  0.23860  0.45221  0.89077  1.0000 0.6088599822
C   C88       1.0  0.17627  0.51718  0.78136  1.0000 -0.099504435
C   C89       1.0  0.29854  0.56180  0.82696  1.0000 -0.09166787
C   C90       1.0  0.29719  0.61775  0.77337  1.0000 -0.099504435
C   C91       1.0  0.17519  0.57276  0.72732  1.0000 -0.099504435
C   C92       1.0  0.90660  0.29617  0.09180  1.0000 -0.09166787
C   C93       1.0  0.82505  0.29466  0.09117  1.0000 -0.1388672153
C   C94       1.0  0.82512  0.33830  0.96454  1.0000 -0.1388672153
C   C95       1.0  0.57116  0.25861  0.05862  1.0000 -0.09166787
C   C96       1.0  0.65276  0.25853  0.05916  1.0000 -0.1388672153
C   C97       1.0  0.23878  0.18350  0.89140  1.0000 0.6088599822
C   C98       1.0  0.82049  0.87297  0.48990  1.0000 -0.1345373576
C   C99       1.0  0.23809  0.12471  0.83280  1.0000 -0.0213273466
C   C100      1.0  0.23536  0.01179  0.72231  1.0000 -0.0296633028
C   C101      1.0  0.23423  0.95261  0.66415  1.0000 0.6088599822
C   C102      1.0  0.28587  0.00823  0.78384  1.0000 -0.099504435
C   C103      1.0  0.18640  0.07296  0.71692  1.0000 -0.099504435
C   C104      1.0  0.18783  0.12843  0.77110  1.0000 -0.099504435
C   C105      1.0  0.28718  0.06365  0.83808  1.0000 -0.099504435
C   C106      1.0  0.56640  0.83760  0.46384  1.0000 -0.09166787
C   C107      1.0  0.64792  0.83840  0.46385  1.0000 -0.1388672153
C   C108      1.0  0.64834  0.80125  0.59268  1.0000 -0.1388672153
C   C109      1.0  0.52917  0.31738  0.02828  1.0000 -0.0387346227
C   C110      1.0  0.03626  0.31760  0.02830  1.0000 0.6088599822
C   C111      1.0  0.44193  0.31778  0.02827  1.0000 0.6088599822
C   C112      1.0  0.69531  0.31619  0.02740  1.0000 0.0805667753
C   C113      1.0  0.94895  0.31735  0.02825  1.0000 -0.0387346227
C   C114      1.0  0.78277  0.31626  0.02773  1.0000 0.0805667753
C   C115      1.0  0.94401  0.81814  0.52721  1.0000 -0.0387346227
C   C116      1.0  0.43689  0.81859  0.52826  1.0000 0.6088599822
C   C117      1.0  0.03116  0.81810  0.52754  1.0000 0.6088599822
C   C118      1.0  0.77797  0.81869  0.52741  1.0000 0.0805667753
C   C119      1.0  0.52425  0.81923  0.52839  1.0000 -0.0454306786
C   C120      1.0  0.69045  0.81956  0.52807  1.0000 0.0805667753
O   O1        1.0  0.71483  0.54304  0.05380  1.0000 -0.5376844267
O   O2        1.0  0.81112  0.32184  0.39015  1.0000 -0.5319307586
O   O3        1.0  0.80690  0.60218  0.11443  1.0000 -0.5319307586
O   O4        1.0  0.71955  0.26252  0.32890  1.0000 -0.5376844267
O   O5        1.0  0.92679  0.68091  0.03285  1.0000 -0.5319307586
O   O6        1.0  0.81201  0.04274  0.39016  1.0000 -0.5376844267
O   O7        1.0  0.71584  0.82196  0.05205  1.0000 -0.5319307586
O   O8        1.0  0.72063  0.10221  0.32863  1.0000 -0.5319307586
O   O9        1.0  0.80713  0.76234  0.11359  1.0000 -0.5319307586
O   O10       1.0  0.59992  0.18187  0.40952  1.0000 -0.5319307586
O   O11       1.0  0.71526  0.54196  0.89108  1.0000 -0.5376844267
O   O12       1.0  0.81140  0.32137  0.55288  1.0000 -0.5319307586
O   O13       1.0  0.80670  0.60124  0.82941  1.0000 -0.5319307586
O   O14       1.0  0.71996  0.26166  0.61411  1.0000 -0.5319307586
O   O15       1.0  0.92684  0.68226  0.90962  1.0000 -0.5376844267
O   O16       1.0  0.81156  0.04256  0.55305  1.0000 -0.5376844267
O   O17       1.0  0.71560  0.82127  0.88942  1.0000 -0.5319307586
O   O18       1.0  0.71960  0.10160  0.61394  1.0000 -0.5319307586
O   O19       1.0  0.80689  0.76159  0.82817  1.0000 -0.5376844267
O   O20       1.0  0.59982  0.18100  0.53273  1.0000 -0.5319307586
O   O21       1.0  0.76088  0.68196  0.97140  1.0000 -0.9995962044
O   O22       1.0  0.59455  0.62210  0.97271  1.0000 -0.5376844267
O   O23       1.0  0.59491  0.74253  0.97000  1.0000 -0.5319307586
O   O24       1.0  0.76591  0.18202  0.47140  1.0000 -0.9995962044
O   O25       1.0  0.93214  0.12204  0.47302  1.0000 -0.5319307586
O   O26       1.0  0.93199  0.24248  0.47009  1.0000 -0.5319307586
O   O27       1.0  0.28426  0.45788  0.10852  1.0000 -0.5376844267
O   O28       1.0  0.18838  0.67867  0.44655  1.0000 -0.5319307586
O   O29       1.0  0.19294  0.39842  0.17017  1.0000 -0.5319307586
O   O30       1.0  0.27992  0.73822  0.38521  1.0000 -0.5376844267
O   O31       1.0  0.07305  0.31702  0.08991  1.0000 -0.5376844267
O   O32       1.0  0.18865  0.95741  0.44601  1.0000 -0.5376844267
O   O33       1.0  0.28463  0.17858  0.10971  1.0000 -0.5319307586
O   O34       1.0  0.28070  0.89833  0.38527  1.0000 -0.5319307586
O   O35       1.0  0.19335  0.23813  0.17110  1.0000 -0.5376844267
O   O36       1.0  0.40018  0.81881  0.46656  1.0000 -0.5319307586
O   O37       1.0  0.28494  0.45712  0.94576  1.0000 -0.5376844267
O   O38       1.0  0.18843  0.67834  0.60932  1.0000 -0.5319307586
O   O39       1.0  0.19266  0.39812  0.88529  1.0000 -0.5319307586
O   O40       1.0  0.28007  0.73761  0.67050  1.0000 -0.5376844267
O   O41       1.0  0.07307  0.31839  0.96668  1.0000 -0.5319307586
O   O42       1.0  0.18839  0.95766  0.60866  1.0000 -0.5376844267
O   O43       1.0  0.28447  0.17823  0.94699  1.0000 -0.5319307586
O   O44       1.0  0.27948  0.89802  0.67041  1.0000 -0.5319307586
O   O45       1.0  0.19338  0.23802  0.88538  1.0000 -0.5376844267
O   O46       1.0  0.39992  0.81785  0.58977  1.0000 -0.5319307586
O   O47       1.0  0.23903  0.31798  0.02797  1.0000 -0.9995962044
O   O48       1.0  0.40533  0.37810  0.02698  1.0000 -0.5376844267
O   O49       1.0  0.40500  0.25767  0.02933  1.0000 -0.5319307586
O   O50       1.0  0.23405  0.81806  0.52784  1.0000 -0.9995962044
O   O51       1.0  0.06792  0.87831  0.52610  1.0000 -0.5319307586
O   O52       1.0  0.06788  0.75787  0.52915  1.0000 -0.5319307586
