# DDEC6 charges by PACMAN v1.1 (https://github.com/mtap-research/PACMAN-charge/)
data_2012[ZnCd][pcu]3[ASR]1
_chemical_formula_sum              "Zn8 Cd4 H72 C108 O48"
_cell_length_a       7.3077
_cell_length_b       23.3444
_cell_length_c       18.8151
_cell_angle_alpha    90
_cell_angle_beta     90
_cell_angle_gamma    90

_symmetry_space_group_name_H-M    "P 1"
_symmetry_Int_Tables_number       1

loop_
  _symmetry_equiv_pos_as_xyz
  'x, y, z'

loop_
  _atom_site_type_symbol
  _atom_site_label
  _atom_site_symmetry_multiplicity
  _atom_site_fract_x
  _atom_site_fract_y
  _atom_site_fract_z
  _atom_site_occupancy
  _atom_site_charge
Zn  Zn1       1.0  0.84966  0.91321  0.45132  1.0000 0.9399134527
Zn  Zn2       1.0  0.65034  0.08679  0.95132  1.0000 0.9399134527
Zn  Zn3       1.0  0.15034  0.41321  0.54868  1.0000 0.9399134527
Zn  Zn4       1.0  0.34966  0.58679  0.04868  1.0000 0.9399134527
Zn  Zn5       1.0  0.15034  0.08679  0.54868  1.0000 0.9399134527
Zn  Zn6       1.0  0.34966  0.91321  0.04868  1.0000 0.9399134527
Zn  Zn7       1.0  0.84966  0.58679  0.45132  1.0000 0.9399134527
Zn  Zn8       1.0  0.65034  0.41321  0.95132  1.0000 0.9399134527
Cd  Cd1       1.0  0.50000  0.00000  0.50000  1.0000 1.1017311226
Cd  Cd2       1.0  0.00000  0.00000  0.00000  1.0000 1.1017311226
Cd  Cd3       1.0  0.50000  0.50000  0.50000  1.0000 1.1017311226
Cd  Cd4       1.0  0.00000  0.50000  0.00000  1.0000 1.1017311226
H   H1        1.0  0.77170  0.02570  0.70610  1.0000 0.1393098792
H   H2        1.0  0.98870  0.87110  0.66630  1.0000 0.1299207065
H   H3        1.0  0.91190  0.92140  0.86730  1.0000 0.1299207065
H   H4        1.0  0.92610  0.80450  0.80490  1.0000 0.1459144439
H   H5        1.0  0.10760  0.81270  0.76160  1.0000 0.1393098792
H   H6        1.0  0.09530  0.83420  0.84040  1.0000 0.1459144439
H   H7        1.0  0.19000  0.83580  0.55020  1.0000 0.1393098792
H   H8        1.0  0.89050  0.77530  0.56040  1.0000 0.0922896202
H   H9        1.0  0.72830  0.97430  0.20610  1.0000 0.1393098792
H   H10       1.0  0.51130  0.12890  0.16630  1.0000 0.1299207065
H   H11       1.0  0.58810  0.07860  0.36730  1.0000 0.1299207065
H   H12       1.0  0.57390  0.19550  0.30490  1.0000 0.1459144439
H   H13       1.0  0.39240  0.18730  0.26160  1.0000 0.1393098792
H   H14       1.0  0.40470  0.16580  0.34040  1.0000 0.1459144439
H   H15       1.0  0.31000  0.16420  0.05020  1.0000 0.1393098792
H   H16       1.0  0.60950  0.22470  0.06040  1.0000 0.0922896202
H   H17       1.0  0.22830  0.52570  0.29390  1.0000 0.1393098792
H   H18       1.0  0.01130  0.37110  0.33370  1.0000 0.1299207065
H   H19       1.0  0.08810  0.42140  0.13270  1.0000 0.1299207065
H   H20       1.0  0.07390  0.30450  0.19510  1.0000 0.1459144439
H   H21       1.0  0.89240  0.31270  0.23840  1.0000 0.1393098792
H   H22       1.0  0.90470  0.33420  0.15960  1.0000 0.1459144439
H   H23       1.0  0.81000  0.33580  0.44980  1.0000 0.1393098792
H   H24       1.0  0.10950  0.27530  0.43960  1.0000 0.0922896202
H   H25       1.0  0.27170  0.47430  0.79390  1.0000 0.1393098792
H   H26       1.0  0.48870  0.62890  0.83370  1.0000 0.1299207065
H   H27       1.0  0.41190  0.57860  0.63270  1.0000 0.1299207065
H   H28       1.0  0.42610  0.69550  0.69510  1.0000 0.1459144439
H   H29       1.0  0.60760  0.68730  0.73840  1.0000 0.1393098792
H   H30       1.0  0.59530  0.66580  0.65960  1.0000 0.1459144439
H   H31       1.0  0.69000  0.66420  0.94980  1.0000 0.1393098792
H   H32       1.0  0.39050  0.72470  0.93960  1.0000 0.0922896202
H   H33       1.0  0.60042  0.25000  0.11357  1.0000 0.1003950025
H   H34       1.0  0.22830  0.97430  0.29390  1.0000 0.1393098792
H   H35       1.0  0.01130  0.12890  0.33370  1.0000 0.1299207065
H   H36       1.0  0.08810  0.07860  0.13270  1.0000 0.1299207065
H   H37       1.0  0.07390  0.19550  0.19510  1.0000 0.1459144439
H   H38       1.0  0.89240  0.18730  0.23840  1.0000 0.1393098792
H   H39       1.0  0.90470  0.16580  0.15960  1.0000 0.1459144439
H   H40       1.0  0.81000  0.16420  0.44980  1.0000 0.1393098792
H   H41       1.0  0.10950  0.22470  0.43960  1.0000 0.0922896202
H   H42       1.0  0.89958  0.75000  0.61357  1.0000 0.1003950025
H   H43       1.0  0.27170  0.02570  0.79390  1.0000 0.1393098792
H   H44       1.0  0.48870  0.87110  0.83370  1.0000 0.1299207065
H   H45       1.0  0.41190  0.92140  0.63270  1.0000 0.1299207065
H   H46       1.0  0.42610  0.80450  0.69510  1.0000 0.1459144439
H   H47       1.0  0.60760  0.81270  0.73840  1.0000 0.1393098792
H   H48       1.0  0.59530  0.83420  0.65960  1.0000 0.1459144439
H   H49       1.0  0.69000  0.83580  0.94980  1.0000 0.1393098792
H   H50       1.0  0.39050  0.77530  0.93960  1.0000 0.0922896202
H   H51       1.0  0.77170  0.47430  0.70610  1.0000 0.1393098792
H   H52       1.0  0.98870  0.62890  0.66630  1.0000 0.1299207065
H   H53       1.0  0.91190  0.57860  0.86730  1.0000 0.1299207065
H   H54       1.0  0.92610  0.69550  0.80490  1.0000 0.1459144439
H   H55       1.0  0.10760  0.68730  0.76160  1.0000 0.1393098792
H   H56       1.0  0.09530  0.66580  0.84040  1.0000 0.1459144439
H   H57       1.0  0.19000  0.66420  0.55020  1.0000 0.1393098792
H   H58       1.0  0.89050  0.72470  0.56040  1.0000 0.0922896202
H   H59       1.0  0.10042  0.25000  0.38643  1.0000 0.1003950025
H   H60       1.0  0.72830  0.52570  0.20610  1.0000 0.1393098792
H   H61       1.0  0.51130  0.37110  0.16630  1.0000 0.1299207065
H   H62       1.0  0.58810  0.42140  0.36730  1.0000 0.1299207065
H   H63       1.0  0.57390  0.30450  0.30490  1.0000 0.1459144439
H   H64       1.0  0.39240  0.31270  0.26160  1.0000 0.1393098792
H   H65       1.0  0.40470  0.33420  0.34040  1.0000 0.1459144439
H   H66       1.0  0.31000  0.33580  0.05020  1.0000 0.1393098792
H   H67       1.0  0.60950  0.27530  0.06040  1.0000 0.0922896202
H   H68       1.0  0.39958  0.75000  0.88643  1.0000 0.1003950025
H   H69       1.0  0.61730  0.75000  0.46900  1.0000 0.1299207065
H   H70       1.0  0.88270  0.25000  0.96900  1.0000 0.1299207065
H   H71       1.0  0.38270  0.25000  0.53100  1.0000 0.1299207065
H   H72       1.0  0.11730  0.75000  0.03100  1.0000 0.1299207065
C   C1        1.0  0.82040  0.99131  0.72228  1.0000 -0.1097026717
C   C2        1.0  0.87320  0.94966  0.67412  1.0000 -0.027896207
C   C3        1.0  0.94770  0.89820  0.69882  1.0000 -0.1612709949
C   C4        1.0  0.83470  0.95748  0.59615  1.0000 0.5790516149
C   C5        1.0  0.77980  0.02685  0.84510  1.0000 0.5747812997
C   C6        1.0  0.84050  0.98165  0.79512  1.0000 -0.0249278237
C   C7        1.0  0.90570  0.92872  0.81874  1.0000 -0.1612709949
C   C8        1.0  0.96140  0.88692  0.77100  1.0000 0.1696389301
C   C9        1.0  0.02880  0.82933  0.79685  1.0000 -0.4748162021
C   C10       1.0  0.51600  0.85656  0.48999  1.0000 0.5919440101
C   C11       1.0  0.41930  0.80151  0.50745  1.0000 -0.027896207
C   C12       1.0  0.24670  0.80122  0.53927  1.0000 -0.1612709949
C   C13       1.0  0.67960  0.00869  0.22228  1.0000 -0.1097026717
C   C14       1.0  0.62680  0.05034  0.17412  1.0000 -0.027896207
C   C15       1.0  0.55230  0.10180  0.19882  1.0000 -0.1612709949
C   C16       1.0  0.66530  0.04252  0.09615  1.0000 0.5790516149
C   C17       1.0  0.72020  0.97315  0.34510  1.0000 0.5790516149
C   C18       1.0  0.65950  0.01835  0.29512  1.0000 -0.0249278237
C   C19       1.0  0.59430  0.07128  0.31874  1.0000 -0.1612709949
C   C20       1.0  0.53860  0.11308  0.27100  1.0000 0.1696389301
C   C21       1.0  0.47120  0.17067  0.29685  1.0000 -0.4752480377
C   C22       1.0  0.98400  0.14344  0.98999  1.0000 0.5919440101
C   C23       1.0  0.08070  0.19849  0.00745  1.0000 -0.027896207
C   C24       1.0  0.25330  0.19878  0.03927  1.0000 -0.1612709949
C   C25       1.0  0.17960  0.49131  0.27772  1.0000 -0.1097026717
C   C26       1.0  0.12680  0.44966  0.32588  1.0000 -0.027896207
C   C27       1.0  0.05230  0.39820  0.30118  1.0000 -0.1612709949
C   C28       1.0  0.16530  0.45748  0.40385  1.0000 0.5790516149
C   C29       1.0  0.22020  0.52685  0.15490  1.0000 0.5747812997
C   C30       1.0  0.15950  0.48165  0.20488  1.0000 -0.0249278237
C   C31       1.0  0.09430  0.42872  0.18126  1.0000 -0.1612709949
C   C32       1.0  0.03860  0.38692  0.22900  1.0000 0.1696389301
C   C33       1.0  0.97120  0.32933  0.20315  1.0000 -0.4752480377
C   C34       1.0  0.48400  0.35656  0.51001  1.0000 0.5919440101
C   C35       1.0  0.58070  0.30151  0.49255  1.0000 -0.027896207
C   C36       1.0  0.75330  0.30122  0.46073  1.0000 -0.1612709949
C   C37       1.0  0.32040  0.50869  0.77772  1.0000 -0.1097026717
C   C38       1.0  0.37320  0.55034  0.82588  1.0000 -0.027896207
C   C39       1.0  0.44770  0.60180  0.80118  1.0000 -0.1612709949
C   C40       1.0  0.33470  0.54252  0.90385  1.0000 0.5790516149
C   C41       1.0  0.27980  0.47315  0.65490  1.0000 0.5747812997
C   C42       1.0  0.34050  0.51835  0.70488  1.0000 -0.027896207
C   C43       1.0  0.40570  0.57128  0.68126  1.0000 -0.1612709949
C   C44       1.0  0.46140  0.61308  0.72900  1.0000 0.1696389301
C   C45       1.0  0.52880  0.67067  0.70315  1.0000 -0.4748162021
C   C46       1.0  0.01600  0.64344  0.01001  1.0000 0.5919440101
C   C47       1.0  0.91930  0.69849  0.99255  1.0000 -0.027896207
C   C48       1.0  0.74670  0.69878  0.96073  1.0000 -0.1612709949
C   C49       1.0  0.17960  0.00869  0.27772  1.0000 -0.1097026717
C   C50       1.0  0.12680  0.05034  0.32588  1.0000 -0.027896207
C   C51       1.0  0.05230  0.10180  0.30118  1.0000 -0.1612709949
C   C52       1.0  0.16530  0.04252  0.40385  1.0000 0.5790516149
C   C53       1.0  0.22020  0.97315  0.15490  1.0000 0.5790516149
C   C54       1.0  0.15950  0.01835  0.20488  1.0000 -0.0249278237
C   C55       1.0  0.09430  0.07128  0.18126  1.0000 -0.1612709949
C   C56       1.0  0.03860  0.11308  0.22900  1.0000 0.1696389301
C   C57       1.0  0.97120  0.17067  0.20315  1.0000 -0.4752480377
C   C58       1.0  0.48400  0.14344  0.51001  1.0000 0.5919440101
C   C59       1.0  0.58070  0.19849  0.49255  1.0000 -0.027896207
C   C60       1.0  0.75330  0.19878  0.46073  1.0000 -0.1612709949
C   C61       1.0  0.32040  0.99131  0.77772  1.0000 -0.1097026717
C   C62       1.0  0.37320  0.94966  0.82588  1.0000 -0.027896207
C   C63       1.0  0.44770  0.89820  0.80118  1.0000 -0.1612709949
C   C64       1.0  0.33470  0.95748  0.90385  1.0000 0.5790516149
C   C65       1.0  0.27980  0.02685  0.65490  1.0000 0.5747812997
C   C66       1.0  0.34050  0.98165  0.70488  1.0000 -0.027896207
C   C67       1.0  0.40570  0.92872  0.68126  1.0000 -0.1612709949
C   C68       1.0  0.46140  0.88692  0.72900  1.0000 0.1696389301
C   C69       1.0  0.52880  0.82933  0.70315  1.0000 -0.4748162021
C   C70       1.0  0.01600  0.85656  0.01001  1.0000 0.5919440101
C   C71       1.0  0.91930  0.80151  0.99255  1.0000 -0.027896207
C   C72       1.0  0.74670  0.80122  0.96073  1.0000 -0.1612709949
C   C73       1.0  0.82040  0.50869  0.72228  1.0000 -0.1097026717
C   C74       1.0  0.87320  0.55034  0.67412  1.0000 -0.027896207
C   C75       1.0  0.94770  0.60180  0.69882  1.0000 -0.1612709949
C   C76       1.0  0.83470  0.54252  0.59615  1.0000 0.5790516149
C   C77       1.0  0.77980  0.47315  0.84510  1.0000 0.5747812997
C   C78       1.0  0.84050  0.51835  0.79512  1.0000 -0.0249278237
C   C79       1.0  0.90570  0.57128  0.81874  1.0000 -0.1612709949
C   C80       1.0  0.96140  0.61308  0.77100  1.0000 0.1696389301
C   C81       1.0  0.02880  0.67067  0.79685  1.0000 -0.4748162021
C   C82       1.0  0.51600  0.64344  0.48999  1.0000 0.5919440101
C   C83       1.0  0.41930  0.69849  0.50745  1.0000 -0.027896207
C   C84       1.0  0.24670  0.69878  0.53927  1.0000 -0.1612709949
C   C85       1.0  0.67960  0.49131  0.22228  1.0000 -0.1097026717
C   C86       1.0  0.62680  0.44966  0.17412  1.0000 -0.027896207
C   C87       1.0  0.55230  0.39820  0.19882  1.0000 -0.1612709949
C   C88       1.0  0.66530  0.45748  0.09615  1.0000 0.5790516149
C   C89       1.0  0.72020  0.52685  0.34510  1.0000 0.5747812997
C   C90       1.0  0.65950  0.48165  0.29512  1.0000 -0.0249278237
C   C91       1.0  0.59430  0.42872  0.31874  1.0000 -0.1612709949
C   C92       1.0  0.53860  0.38692  0.27100  1.0000 0.1696389301
C   C93       1.0  0.47120  0.32933  0.29685  1.0000 -0.4752480377
C   C94       1.0  0.98400  0.35656  0.98999  1.0000 0.5919440101
C   C95       1.0  0.08070  0.30151  0.00745  1.0000 -0.027896207
C   C96       1.0  0.25330  0.30122  0.03927  1.0000 -0.1612709949
C   C97       1.0  0.50350  0.75000  0.49110  1.0000 -0.1263659809
C   C98       1.0  0.15870  0.75000  0.55480  1.0000 0.1696389301
C   C99       1.0  0.96800  0.75000  0.58700  1.0000 -0.3543390919
C   C100      1.0  0.99650  0.25000  0.99110  1.0000 -0.1263659809
C   C101      1.0  0.34130  0.25000  0.05480  1.0000 0.1696389301
C   C102      1.0  0.53200  0.25000  0.08700  1.0000 -0.3543390919
C   C103      1.0  0.49650  0.25000  0.50890  1.0000 -0.1263659809
C   C104      1.0  0.84130  0.25000  0.44520  1.0000 0.1696389301
C   C105      1.0  0.03200  0.25000  0.41300  1.0000 -0.3543390919
C   C106      1.0  0.00350  0.75000  0.00890  1.0000 -0.1263659809
C   C107      1.0  0.65870  0.75000  0.94520  1.0000 0.1648977856
C   C108      1.0  0.46800  0.75000  0.91300  1.0000 -0.3543390919
O   O1        1.0  0.72710  0.99695  0.57893  1.0000 -0.5585048263
O   O2        1.0  0.90720  0.92265  0.55370  1.0000 -0.5372876291
O   O3        1.0  0.77340  0.01563  0.91287  1.0000 -0.600731938
O   O4        1.0  0.73050  0.07432  0.82343  1.0000 -0.4858571876
O   O5        1.0  0.44020  0.90294  0.50400  1.0000 -0.5585048263
O   O6        1.0  0.67300  0.85084  0.46219  1.0000 -0.5372876291
O   O7        1.0  0.77290  0.00305  0.07893  1.0000 -0.5585048263
O   O8        1.0  0.59280  0.07735  0.05370  1.0000 -0.5372876291
O   O9        1.0  0.72660  0.98437  0.41287  1.0000 -0.600731938
O   O10       1.0  0.76950  0.92568  0.32343  1.0000 -0.4858571876
O   O11       1.0  0.05980  0.09706  0.00400  1.0000 -0.5585048263
O   O12       1.0  0.82700  0.14916  0.96219  1.0000 -0.5372876291
O   O13       1.0  0.27290  0.49695  0.42107  1.0000 -0.5585048263
O   O14       1.0  0.09280  0.42265  0.44630  1.0000 -0.5372876291
O   O15       1.0  0.22660  0.51563  0.08713  1.0000 -0.600731938
O   O16       1.0  0.26950  0.57432  0.17657  1.0000 -0.4858571876
O   O17       1.0  0.55980  0.40294  0.49600  1.0000 -0.5585048263
O   O18       1.0  0.32700  0.35084  0.53781  1.0000 -0.5372876291
O   O19       1.0  0.22710  0.50305  0.92107  1.0000 -0.5585048263
O   O20       1.0  0.40720  0.57735  0.94630  1.0000 -0.5372876291
O   O21       1.0  0.27340  0.48437  0.58713  1.0000 -0.600731938
O   O22       1.0  0.23050  0.42568  0.67657  1.0000 -0.4858571876
O   O23       1.0  0.94020  0.59706  0.99600  1.0000 -0.5585048263
O   O24       1.0  0.17300  0.64916  0.03781  1.0000 -0.5372876291
O   O25       1.0  0.27290  0.00305  0.42107  1.0000 -0.5585048263
O   O26       1.0  0.09280  0.07735  0.44630  1.0000 -0.5372876291
O   O27       1.0  0.22660  0.98437  0.08713  1.0000 -0.600731938
O   O28       1.0  0.26950  0.92568  0.17657  1.0000 -0.4858571876
O   O29       1.0  0.55980  0.09706  0.49600  1.0000 -0.5585048263
O   O30       1.0  0.32700  0.14916  0.53781  1.0000 -0.5372876291
O   O31       1.0  0.22710  0.99695  0.92107  1.0000 -0.5585048263
O   O32       1.0  0.40720  0.92265  0.94630  1.0000 -0.5372876291
O   O33       1.0  0.27340  0.01563  0.58713  1.0000 -0.600731938
O   O34       1.0  0.23050  0.07432  0.67657  1.0000 -0.4858571876
O   O35       1.0  0.94020  0.90294  0.99600  1.0000 -0.5585048263
O   O36       1.0  0.17300  0.85084  0.03781  1.0000 -0.5372876291
O   O37       1.0  0.72710  0.50305  0.57893  1.0000 -0.5585048263
O   O38       1.0  0.90720  0.57735  0.55370  1.0000 -0.5372876291
O   O39       1.0  0.77340  0.48437  0.91287  1.0000 -0.600731938
O   O40       1.0  0.73050  0.42568  0.82343  1.0000 -0.4858571876
O   O41       1.0  0.44020  0.59706  0.50400  1.0000 -0.5585048263
O   O42       1.0  0.67300  0.64916  0.46219  1.0000 -0.5372876291
O   O43       1.0  0.77290  0.49695  0.07893  1.0000 -0.5585048263
O   O44       1.0  0.59280  0.42265  0.05370  1.0000 -0.5372876291
O   O45       1.0  0.72660  0.51563  0.41287  1.0000 -0.600731938
O   O46       1.0  0.76950  0.57432  0.32343  1.0000 -0.4858571876
O   O47       1.0  0.05980  0.40294  0.00400  1.0000 -0.5585048263
O   O48       1.0  0.82700  0.35084  0.96219  1.0000 -0.5372876291
