# DDEC6 charges by PACMAN v1.1 (https://github.com/mtap-research/PACMAN-charge/)
data_2012[Zn][sod]3[ASR]8
_chemical_formula_sum              "Zn6 H60 C48 N24"
_cell_length_a       14.8264
_cell_length_b       14.8264
_cell_length_c       14.8264
_cell_angle_alpha    109.471
_cell_angle_beta     109.471
_cell_angle_gamma    109.471

_symmetry_space_group_name_H-M    "P 1"
_symmetry_Int_Tables_number       1

loop_
  _symmetry_equiv_pos_as_xyz
  'x, y, z'

loop_
  _atom_site_type_symbol
  _atom_site_label
  _atom_site_symmetry_multiplicity
  _atom_site_fract_x
  _atom_site_fract_y
  _atom_site_fract_z
  _atom_site_occupancy
  _atom_site_charge
Zn  Zn1       1.0  0.25000  0.50000  0.75000  1.0000 0.6514100609
Zn  Zn2       1.0  0.75000  0.50000  0.25000  1.0000 0.6514100609
Zn  Zn3       1.0  0.75000  0.25000  0.50000  1.0000 0.6514100609
Zn  Zn4       1.0  0.25000  0.75000  0.50000  1.0000 0.6514100609
Zn  Zn5       1.0  0.50000  0.75000  0.25000  1.0000 0.6514100609
Zn  Zn6       1.0  0.50000  0.25000  0.75000  1.0000 0.6514100609
H   H1        1.0  0.09980  0.54250  0.85430  1.0000 0.1146812243
H   H2        1.0  0.68820  0.24550  0.14570  1.0000 0.1146812243
H   H3        1.0  0.31180  0.45750  0.55730  1.0000 0.1146812243
H   H4        1.0  0.90020  0.75450  0.44270  1.0000 0.1146812243
H   H5        1.0  0.85430  0.09980  0.54250  1.0000 0.1146812243
H   H6        1.0  0.14570  0.68820  0.24550  1.0000 0.1146812243
H   H7        1.0  0.55730  0.31180  0.45750  1.0000 0.1146812243
H   H8        1.0  0.44270  0.90020  0.75450  1.0000 0.1146812243
H   H9        1.0  0.54250  0.85430  0.09980  1.0000 0.1146812243
H   H10       1.0  0.24550  0.14570  0.68820  1.0000 0.1146812243
H   H11       1.0  0.45750  0.55730  0.31180  1.0000 0.1146812243
H   H12       1.0  0.75450  0.44270  0.90020  1.0000 0.1146812243
H   H13       1.0  0.54250  0.09980  0.85430  1.0000 0.1146812243
H   H14       1.0  0.24550  0.68820  0.14570  1.0000 0.1146812243
H   H15       1.0  0.45750  0.31180  0.55730  1.0000 0.1146812243
H   H16       1.0  0.75450  0.90020  0.44270  1.0000 0.1146812243
H   H17       1.0  0.09980  0.85430  0.54250  1.0000 0.1146812243
H   H18       1.0  0.68820  0.14570  0.24550  1.0000 0.1146812243
H   H19       1.0  0.31180  0.55730  0.45750  1.0000 0.1146812243
H   H20       1.0  0.90020  0.44270  0.75450  1.0000 0.1146812243
H   H21       1.0  0.85430  0.54250  0.09980  1.0000 0.1146812243
H   H22       1.0  0.14570  0.24550  0.68820  1.0000 0.1146812243
H   H23       1.0  0.55730  0.45750  0.31180  1.0000 0.1146812243
H   H24       1.0  0.44270  0.75450  0.90020  1.0000 0.1146812243
H   H25       1.0  0.00000  0.23190  0.51510  1.0000 0.1506277052
H   H26       1.0  0.71680  0.48490  0.48490  1.0000 0.1506277052
H   H27       1.0  0.28320  0.76810  0.76810  1.0000 0.1506277052
H   H28       1.0  0.00000  0.51510  0.23190  1.0000 0.1506277052
H   H29       1.0  0.51510  0.00000  0.23190  1.0000 0.1506277052
H   H30       1.0  0.48490  0.71680  0.48490  1.0000 0.1506277052
H   H31       1.0  0.76810  0.28320  0.76810  1.0000 0.1506277052
H   H32       1.0  0.23190  0.00000  0.51510  1.0000 0.1506277052
H   H33       1.0  0.23190  0.51510  0.00000  1.0000 0.1506277052
H   H34       1.0  0.48490  0.48490  0.71680  1.0000 0.1506277052
H   H35       1.0  0.76810  0.76810  0.28320  1.0000 0.1506277052
H   H36       1.0  0.51510  0.23190  0.00000  1.0000 0.1506277052
H   H37       1.0  0.06610  0.34330  0.51700  1.0000 0.1506277052
H   H38       1.0  0.82630  0.54910  0.48300  1.0000 0.1506277052
H   H39       1.0  0.17370  0.65670  0.72280  1.0000 0.1506277052
H   H40       1.0  0.93390  0.45090  0.27720  1.0000 0.1506277052
H   H41       1.0  0.51700  0.06610  0.34330  1.0000 0.1506277052
H   H42       1.0  0.48300  0.82630  0.54910  1.0000 0.1506277052
H   H43       1.0  0.72280  0.17370  0.65670  1.0000 0.1506277052
H   H44       1.0  0.27720  0.93390  0.45090  1.0000 0.1506277052
H   H45       1.0  0.34330  0.51700  0.06610  1.0000 0.1506277052
H   H46       1.0  0.54910  0.48300  0.82630  1.0000 0.1506277052
H   H47       1.0  0.65670  0.72280  0.17370  1.0000 0.1506277052
H   H48       1.0  0.45090  0.27720  0.93390  1.0000 0.1506277052
H   H49       1.0  0.34330  0.06610  0.51700  1.0000 0.1506277052
H   H50       1.0  0.54910  0.82630  0.48300  1.0000 0.1506277052
H   H51       1.0  0.65670  0.17370  0.72280  1.0000 0.1506277052
H   H52       1.0  0.45090  0.93390  0.27720  1.0000 0.1506277052
H   H53       1.0  0.06610  0.51700  0.34330  1.0000 0.1506277052
H   H54       1.0  0.82630  0.48300  0.54910  1.0000 0.1506277052
H   H55       1.0  0.17370  0.72280  0.65670  1.0000 0.1506277052
H   H56       1.0  0.93390  0.27720  0.45090  1.0000 0.1506277052
H   H57       1.0  0.51700  0.34330  0.06610  1.0000 0.1506277052
H   H58       1.0  0.48300  0.54910  0.82630  1.0000 0.1506277052
H   H59       1.0  0.72280  0.65670  0.17370  1.0000 0.1506277052
H   H60       1.0  0.27720  0.45090  0.93390  1.0000 0.1506277052
C   C1        1.0  0.00000  0.36370  0.61770  1.0000 0.3696657298
C   C2        1.0  0.74600  0.38230  0.38230  1.0000 0.3696657298
C   C3        1.0  0.25400  0.63630  0.63630  1.0000 0.3696657298
C   C4        1.0  0.00000  0.61770  0.36370  1.0000 0.3696657298
C   C5        1.0  0.61770  0.00000  0.36370  1.0000 0.3696657298
C   C6        1.0  0.38230  0.74600  0.38230  1.0000 0.3696657298
C   C7        1.0  0.63630  0.25400  0.63630  1.0000 0.3696657298
C   C8        1.0  0.36370  0.00000  0.61770  1.0000 0.3696657298
C   C9        1.0  0.36370  0.61770  0.00000  1.0000 0.3696657298
C   C10       1.0  0.38230  0.38230  0.74600  1.0000 0.3696657298
C   C11       1.0  0.63630  0.63630  0.25400  1.0000 0.3696657298
C   C12       1.0  0.61770  0.36370  0.00000  1.0000 0.3696657298
C   C13       1.0  0.05470  0.48360  0.77990  1.0000 -0.0682313126
C   C14       1.0  0.70370  0.27480  0.22010  1.0000 -0.0682313126
C   C15       1.0  0.29630  0.51640  0.57110  1.0000 -0.0682313126
C   C16       1.0  0.94530  0.72520  0.42890  1.0000 -0.0682313126
C   C17       1.0  0.77990  0.05470  0.48360  1.0000 -0.0682313126
C   C18       1.0  0.22010  0.70370  0.27480  1.0000 -0.0682313126
C   C19       1.0  0.57110  0.29630  0.51640  1.0000 -0.0682313126
C   C20       1.0  0.42890  0.94530  0.72520  1.0000 -0.0682313126
C   C21       1.0  0.48360  0.77990  0.05470  1.0000 -0.0682313126
C   C22       1.0  0.27480  0.22010  0.70370  1.0000 -0.0682313126
C   C23       1.0  0.51640  0.57110  0.29630  1.0000 -0.0682313126
C   C24       1.0  0.72520  0.42890  0.94530  1.0000 -0.0682313126
C   C25       1.0  0.48360  0.05470  0.77990  1.0000 -0.0682313126
C   C26       1.0  0.27480  0.70370  0.22010  1.0000 -0.0682313126
C   C27       1.0  0.51640  0.29630  0.57110  1.0000 -0.0682313126
C   C28       1.0  0.72520  0.94530  0.42890  1.0000 -0.0682313126
C   C29       1.0  0.05470  0.77990  0.48360  1.0000 -0.0682313126
C   C30       1.0  0.70370  0.22010  0.27480  1.0000 -0.0682313126
C   C31       1.0  0.29630  0.57110  0.51640  1.0000 -0.0682313126
C   C32       1.0  0.94530  0.42890  0.72520  1.0000 -0.0682313126
C   C33       1.0  0.77990  0.48360  0.05470  1.0000 -0.0682313126
C   C34       1.0  0.22010  0.27480  0.70370  1.0000 -0.0682313126
C   C35       1.0  0.57110  0.51640  0.29630  1.0000 -0.0682313126
C   C36       1.0  0.42890  0.72520  0.94530  1.0000 -0.0682313126
C   C37       1.0  0.00000  0.29840  0.51660  1.0000 -0.5379848701
C   C38       1.0  0.78180  0.48340  0.48340  1.0000 -0.5379848701
C   C39       1.0  0.21820  0.70160  0.70160  1.0000 -0.5379848701
C   C40       1.0  0.00000  0.51660  0.29840  1.0000 -0.5379848701
C   C41       1.0  0.51660  0.00000  0.29840  1.0000 -0.5379848701
C   C42       1.0  0.48340  0.78180  0.48340  1.0000 -0.5379848701
C   C43       1.0  0.70160  0.21820  0.70160  1.0000 -0.5379848701
C   C44       1.0  0.29840  0.00000  0.51660  1.0000 -0.5379848701
C   C45       1.0  0.29840  0.51660  0.00000  1.0000 -0.5379848701
C   C46       1.0  0.48340  0.48340  0.78180  1.0000 -0.5379848701
C   C47       1.0  0.70160  0.70160  0.21820  1.0000 -0.5379848701
C   C48       1.0  0.51660  0.29840  0.00000  1.0000 -0.5379848701
N   N1        1.0  0.09290  0.44310  0.71400  1.0000 -0.3510844146
N   N2        1.0  0.72910  0.37890  0.28600  1.0000 -0.3510844146
N   N3        1.0  0.27090  0.55690  0.64980  1.0000 -0.3510844146
N   N4        1.0  0.90710  0.62110  0.35020  1.0000 -0.3510844146
N   N5        1.0  0.71400  0.09290  0.44310  1.0000 -0.3510844146
N   N6        1.0  0.28600  0.72910  0.37890  1.0000 -0.3510844146
N   N7        1.0  0.64980  0.27090  0.55690  1.0000 -0.3510844146
N   N8        1.0  0.35020  0.90710  0.62110  1.0000 -0.3510844146
N   N9        1.0  0.44310  0.71400  0.09290  1.0000 -0.3510844146
N   N10       1.0  0.37890  0.28600  0.72910  1.0000 -0.3510844146
N   N11       1.0  0.55690  0.64980  0.27090  1.0000 -0.3510844146
N   N12       1.0  0.62110  0.35020  0.90710  1.0000 -0.3510844146
N   N13       1.0  0.44310  0.09290  0.71400  1.0000 -0.3510844146
N   N14       1.0  0.37890  0.72910  0.28600  1.0000 -0.3510844146
N   N15       1.0  0.55690  0.27090  0.64980  1.0000 -0.3510844146
N   N16       1.0  0.62110  0.90710  0.35020  1.0000 -0.3510844146
N   N17       1.0  0.09290  0.71400  0.44310  1.0000 -0.3510844146
N   N18       1.0  0.72910  0.28600  0.37890  1.0000 -0.3510844146
N   N19       1.0  0.27090  0.64980  0.55690  1.0000 -0.3510844146
N   N20       1.0  0.90710  0.35020  0.62110  1.0000 -0.3510844146
N   N21       1.0  0.71400  0.44310  0.09290  1.0000 -0.3510844146
N   N22       1.0  0.28600  0.37890  0.72910  1.0000 -0.3510844146
N   N23       1.0  0.64980  0.55690  0.27090  1.0000 -0.3510844146
N   N24       1.0  0.35020  0.62110  0.90710  1.0000 -0.3510844146
