# DDEC6 charges by PACMAN v1.1 (https://github.com/mtap-research/PACMAN-charge/)
data_2012[Zn][pcu]3[ASR]5
_chemical_formula_sum              "Zn4 H96 C104 N28"
_cell_length_a       18.7806
_cell_length_b       19.9045
_cell_length_c       8.7871
_cell_angle_alpha    90
_cell_angle_beta     100.981
_cell_angle_gamma    90

_symmetry_space_group_name_H-M    "P 1"
_symmetry_Int_Tables_number       1

loop_
  _symmetry_equiv_pos_as_xyz
  'x, y, z'

loop_
  _atom_site_type_symbol
  _atom_site_label
  _atom_site_symmetry_multiplicity
  _atom_site_fract_x
  _atom_site_fract_y
  _atom_site_fract_z
  _atom_site_occupancy
  _atom_site_charge
Zn  Zn1       1.0  0.50000  0.32541  0.25000  1.0000 0.6875450001
Zn  Zn2       1.0  0.50000  0.67459  0.75000  1.0000 0.6875450001
Zn  Zn3       1.0  0.00000  0.82541  0.25000  1.0000 0.6875450001
Zn  Zn4       1.0  0.00000  0.17459  0.75000  1.0000 0.6875450001
H   H1        1.0  0.65333  0.34042  0.17084  1.0000 0.0805335511
H   H2        1.0  0.34667  0.65958  0.82916  1.0000 0.0805335511
H   H3        1.0  0.34667  0.34042  0.32916  1.0000 0.0805335511
H   H4        1.0  0.65333  0.65958  0.67084  1.0000 0.0805335511
H   H5        1.0  0.15333  0.84042  0.17084  1.0000 0.0805335511
H   H6        1.0  0.84667  0.15958  0.82916  1.0000 0.0805335511
H   H7        1.0  0.84667  0.84042  0.32916  1.0000 0.0805335511
H   H8        1.0  0.15333  0.15958  0.67084  1.0000 0.0805335511
H   H9        1.0  0.53120  0.46806  0.39963  1.0000 0.0805335511
H   H10       1.0  0.46880  0.53194  0.60037  1.0000 0.0805335511
H   H11       1.0  0.46880  0.46806  0.10037  1.0000 0.0805335511
H   H12       1.0  0.53120  0.53194  0.89963  1.0000 0.0805335511
H   H13       1.0  0.03120  0.96806  0.39963  1.0000 0.0805335511
H   H14       1.0  0.96880  0.03194  0.60037  1.0000 0.0805335511
H   H15       1.0  0.96880  0.96806  0.10037  1.0000 0.0805335511
H   H16       1.0  0.03120  0.03194  0.89963  1.0000 0.0805335511
H   H17       1.0  0.62573  0.55729  0.42625  1.0000 0.1065748615
H   H18       1.0  0.37427  0.44271  0.57375  1.0000 0.1065748615
H   H19       1.0  0.37427  0.55729  0.07375  1.0000 0.1065748615
H   H20       1.0  0.62573  0.44271  0.92625  1.0000 0.1065748615
H   H21       1.0  0.12573  0.05729  0.42625  1.0000 0.1065748615
H   H22       1.0  0.87427  0.94271  0.57375  1.0000 0.1065748615
H   H23       1.0  0.87427  0.05729  0.07375  1.0000 0.1065748615
H   H24       1.0  0.12573  0.94271  0.92625  1.0000 0.1065748615
H   H25       1.0  0.75508  0.42308  0.19861  1.0000 0.1065748615
H   H26       1.0  0.24492  0.57692  0.80139  1.0000 0.1065748615
H   H27       1.0  0.24492  0.42308  0.30139  1.0000 0.1065748615
H   H28       1.0  0.75508  0.57692  0.69861  1.0000 0.1065748615
H   H29       1.0  0.25508  0.92308  0.19861  1.0000 0.1065748615
H   H30       1.0  0.74492  0.07692  0.80139  1.0000 0.1065748615
H   H31       1.0  0.74492  0.92308  0.30139  1.0000 0.1065748615
H   H32       1.0  0.25508  0.07692  0.69861  1.0000 0.1065748615
H   H33       1.0  0.70241  0.61476  0.15617  1.0000 0.1020712303
H   H34       1.0  0.29759  0.38524  0.84383  1.0000 0.1020712303
H   H35       1.0  0.29759  0.61476  0.34383  1.0000 0.1020712303
H   H36       1.0  0.70241  0.38524  0.65617  1.0000 0.1020712303
H   H37       1.0  0.20241  0.11476  0.15617  1.0000 0.1020712303
H   H38       1.0  0.79759  0.88524  0.84383  1.0000 0.1020712303
H   H39       1.0  0.79759  0.11476  0.34383  1.0000 0.1020712303
H   H40       1.0  0.20241  0.88524  0.65617  1.0000 0.1020712303
H   H41       1.0  0.76084  0.55806  0.09052  1.0000 0.089439262
H   H42       1.0  0.23916  0.44194  0.90948  1.0000 0.089439262
H   H43       1.0  0.23916  0.55806  0.40948  1.0000 0.089439262
H   H44       1.0  0.76084  0.44194  0.59052  1.0000 0.089439262
H   H45       1.0  0.26084  0.05806  0.09052  1.0000 0.089439262
H   H46       1.0  0.73916  0.94194  0.90948  1.0000 0.089439262
H   H47       1.0  0.73916  0.05806  0.40948  1.0000 0.089439262
H   H48       1.0  0.26084  0.94194  0.59052  1.0000 0.089439262
H   H49       1.0  0.45876  0.21425  0.45101  1.0000 0.0805335511
H   H50       1.0  0.54124  0.78575  0.54899  1.0000 0.0805335511
H   H51       1.0  0.54124  0.21425  0.04899  1.0000 0.0805335511
H   H52       1.0  0.45876  0.78575  0.95101  1.0000 0.0805335511
H   H53       1.0  0.95876  0.71425  0.45101  1.0000 0.0805335511
H   H54       1.0  0.04124  0.28575  0.54899  1.0000 0.0805335511
H   H55       1.0  0.04124  0.71425  0.04899  1.0000 0.0805335511
H   H56       1.0  0.95876  0.28575  0.95101  1.0000 0.0805335511
H   H57       1.0  0.36735  0.12409  0.44691  1.0000 0.1065748615
H   H58       1.0  0.63265  0.87591  0.55309  1.0000 0.1065748615
H   H59       1.0  0.63265  0.12409  0.05309  1.0000 0.1065748615
H   H60       1.0  0.36735  0.87591  0.94691  1.0000 0.1065748615
H   H61       1.0  0.86735  0.62409  0.44691  1.0000 0.1065748615
H   H62       1.0  0.13265  0.37591  0.55309  1.0000 0.1065748615
H   H63       1.0  0.13265  0.62409  0.05309  1.0000 0.1065748615
H   H64       1.0  0.86735  0.37591  0.94691  1.0000 0.1065748615
H   H65       1.0  0.27936  0.17947  0.96825  1.0000 0.1020712303
H   H66       1.0  0.72064  0.82053  0.03175  1.0000 0.1020712303
H   H67       1.0  0.72064  0.17947  0.53175  1.0000 0.1020712303
H   H68       1.0  0.27936  0.82053  0.46825  1.0000 0.1020712303
H   H69       1.0  0.77936  0.67947  0.96825  1.0000 0.1020712303
H   H70       1.0  0.22064  0.32053  0.03175  1.0000 0.1020712303
H   H71       1.0  0.22064  0.67947  0.53175  1.0000 0.1020712303
H   H72       1.0  0.77936  0.32053  0.46825  1.0000 0.1020712303
H   H73       1.0  0.37381  0.26950  0.99356  1.0000 0.0805335511
H   H74       1.0  0.62619  0.73050  0.00644  1.0000 0.0805335511
H   H75       1.0  0.62619  0.26950  0.50644  1.0000 0.0805335511
H   H76       1.0  0.37381  0.73050  0.49356  1.0000 0.0805335511
H   H77       1.0  0.87381  0.76950  0.99356  1.0000 0.0805335511
H   H78       1.0  0.12619  0.23050  0.00644  1.0000 0.0805335511
H   H79       1.0  0.12619  0.76950  0.50644  1.0000 0.0805335511
H   H80       1.0  0.87381  0.23050  0.49356  1.0000 0.0805335511
H   H81       1.0  0.75435  0.58146  0.43359  1.0000 0.0805335511
H   H82       1.0  0.24565  0.41854  0.56641  1.0000 0.0805335511
H   H83       1.0  0.24565  0.58146  0.06641  1.0000 0.0805335511
H   H84       1.0  0.75435  0.41854  0.93359  1.0000 0.0805335511
H   H85       1.0  0.25435  0.08146  0.43359  1.0000 0.0805335511
H   H86       1.0  0.74565  0.91854  0.56641  1.0000 0.0805335511
H   H87       1.0  0.74565  0.08146  0.06641  1.0000 0.0805335511
H   H88       1.0  0.25435  0.91854  0.93359  1.0000 0.0805335511
H   H89       1.0  0.81149  0.52252  0.36322  1.0000 0.089439262
H   H90       1.0  0.18851  0.47748  0.63678  1.0000 0.089439262
H   H91       1.0  0.18851  0.52252  0.13678  1.0000 0.089439262
H   H92       1.0  0.81149  0.47748  0.86322  1.0000 0.089439262
H   H93       1.0  0.31149  0.02252  0.36322  1.0000 0.089439262
H   H94       1.0  0.68851  0.97748  0.63678  1.0000 0.089439262
H   H95       1.0  0.68851  0.02252  0.13678  1.0000 0.089439262
H   H96       1.0  0.31149  0.97748  0.86322  1.0000 0.089439262
C   C1        1.0  0.64926  0.38930  0.22656  1.0000 0.0805335511
C   C2        1.0  0.35074  0.61070  0.77344  1.0000 0.0805335511
C   C3        1.0  0.35074  0.38930  0.27344  1.0000 0.0805335511
C   C4        1.0  0.64926  0.61070  0.72656  1.0000 0.0805335511
C   C5        1.0  0.14926  0.88930  0.22656  1.0000 0.0805335511
C   C6        1.0  0.85074  0.11070  0.77344  1.0000 0.0805335511
C   C7        1.0  0.85074  0.88930  0.27344  1.0000 0.0805335511
C   C8        1.0  0.14926  0.11070  0.72656  1.0000 0.0805335511
C   C9        1.0  0.58082  0.46060  0.35291  1.0000 0.0805335511
C   C10       1.0  0.41918  0.53940  0.64709  1.0000 0.0805335511
C   C11       1.0  0.41918  0.46060  0.14709  1.0000 0.0805335511
C   C12       1.0  0.58082  0.53940  0.85291  1.0000 0.0805335511
C   C13       1.0  0.08082  0.96060  0.35291  1.0000 0.0805335511
C   C14       1.0  0.91918  0.03940  0.64709  1.0000 0.0805335511
C   C15       1.0  0.91918  0.96060  0.14709  1.0000 0.0805335511
C   C16       1.0  0.08082  0.03940  0.85291  1.0000 0.0805335511
C   C17       1.0  0.63421  0.50999  0.36868  1.0000 -0.1973959361
C   C18       1.0  0.36579  0.49001  0.63132  1.0000 -0.1973959361
C   C19       1.0  0.36579  0.50999  0.13132  1.0000 -0.1973959361
C   C20       1.0  0.63421  0.49001  0.86868  1.0000 -0.1973959361
C   C21       1.0  0.13421  0.00999  0.36868  1.0000 -0.1973959361
C   C22       1.0  0.86579  0.99001  0.63132  1.0000 -0.1973959361
C   C23       1.0  0.86579  0.00999  0.13132  1.0000 -0.1973959361
C   C24       1.0  0.13421  0.99001  0.86868  1.0000 -0.1973959361
C   C25       1.0  0.69914  0.49746  0.31665  1.0000 0.1492303298
C   C26       1.0  0.30086  0.50254  0.68335  1.0000 0.1492303298
C   C27       1.0  0.30086  0.49746  0.18335  1.0000 0.1492303298
C   C28       1.0  0.69914  0.50254  0.81665  1.0000 0.1492303298
C   C29       1.0  0.19914  0.99746  0.31665  1.0000 0.1492303298
C   C30       1.0  0.80086  0.00254  0.68335  1.0000 0.1492303298
C   C31       1.0  0.80086  0.99746  0.18335  1.0000 0.1492303298
C   C32       1.0  0.19914  0.00254  0.81665  1.0000 0.1492303298
C   C33       1.0  0.70565  0.43556  0.24218  1.0000 -0.2082914649
C   C34       1.0  0.29435  0.56444  0.75782  1.0000 -0.2082914649
C   C35       1.0  0.29435  0.43556  0.25782  1.0000 -0.2082914649
C   C36       1.0  0.70565  0.56444  0.74218  1.0000 -0.2082914649
C   C37       1.0  0.20565  0.93556  0.24218  1.0000 -0.2082914649
C   C38       1.0  0.79435  0.06444  0.75782  1.0000 -0.2082914649
C   C39       1.0  0.79435  0.93556  0.25782  1.0000 -0.2082914649
C   C40       1.0  0.20565  0.06444  0.74218  1.0000 -0.2082914649
C   C41       1.0  0.75657  0.59104  0.18998  1.0000 -0.187511032
C   C42       1.0  0.24343  0.40896  0.81002  1.0000 -0.187511032
C   C43       1.0  0.24343  0.59104  0.31002  1.0000 -0.187511032
C   C44       1.0  0.75657  0.40896  0.68998  1.0000 -0.187511032
C   C45       1.0  0.25657  0.09104  0.18998  1.0000 -0.187511032
C   C46       1.0  0.74343  0.90896  0.81002  1.0000 -0.187511032
C   C47       1.0  0.74343  0.09104  0.31002  1.0000 -0.187511032
C   C48       1.0  0.25657  0.90896  0.68998  1.0000 -0.187511032
C   C49       1.0  0.41734  0.20509  0.34681  1.0000 0.0805335511
C   C50       1.0  0.58266  0.79491  0.65319  1.0000 0.089439262
C   C51       1.0  0.58266  0.20509  0.15319  1.0000 0.089439262
C   C52       1.0  0.41734  0.79491  0.84681  1.0000 0.0805335511
C   C53       1.0  0.91734  0.70509  0.34681  1.0000 0.089439262
C   C54       1.0  0.08266  0.29491  0.65319  1.0000 0.089439262
C   C55       1.0  0.08266  0.70509  0.15319  1.0000 0.089439262
C   C56       1.0  0.91734  0.29491  0.84681  1.0000 0.089439262
C   C57       1.0  0.36577  0.15464  0.34260  1.0000 -0.1973959361
C   C58       1.0  0.63423  0.84536  0.65740  1.0000 -0.1973959361
C   C59       1.0  0.63423  0.15464  0.15740  1.0000 -0.1973959361
C   C60       1.0  0.36577  0.84536  0.84260  1.0000 -0.1973959361
C   C61       1.0  0.86577  0.65464  0.34260  1.0000 -0.1973959361
C   C62       1.0  0.13423  0.34536  0.65740  1.0000 -0.1973959361
C   C63       1.0  0.13423  0.65464  0.15740  1.0000 -0.1973959361
C   C64       1.0  0.86577  0.34536  0.84260  1.0000 -0.1973959361
C   C65       1.0  0.31793  0.18601  0.07825  1.0000 -0.1973959361
C   C66       1.0  0.68207  0.81399  0.92175  1.0000 -0.1973959361
C   C67       1.0  0.68207  0.18601  0.42175  1.0000 -0.1973959361
C   C68       1.0  0.31793  0.81399  0.57825  1.0000 -0.1973959361
C   C69       1.0  0.81793  0.68601  0.07825  1.0000 -0.1973959361
C   C70       1.0  0.18207  0.31399  0.92175  1.0000 -0.1973959361
C   C71       1.0  0.18207  0.68601  0.42175  1.0000 -0.1973959361
C   C72       1.0  0.81793  0.31399  0.57825  1.0000 -0.1973959361
C   C73       1.0  0.37032  0.23609  0.09162  1.0000 0.0805335511
C   C74       1.0  0.62968  0.76391  0.90838  1.0000 0.0805335511
C   C75       1.0  0.62968  0.23609  0.40838  1.0000 0.0805335511
C   C76       1.0  0.37032  0.76391  0.59162  1.0000 0.0805335511
C   C77       1.0  0.87032  0.73609  0.09162  1.0000 0.0805335511
C   C78       1.0  0.12968  0.26391  0.90838  1.0000 0.0805335511
C   C79       1.0  0.12968  0.73609  0.40838  1.0000 0.0805335511
C   C80       1.0  0.87032  0.26391  0.59162  1.0000 0.0805335511
C   C81       1.0  0.50152  0.34904  0.61895  1.0000 0.4360206709
C   C82       1.0  0.49848  0.65096  0.38105  1.0000 0.4360206709
C   C83       1.0  0.49848  0.34904  0.88105  1.0000 0.4360206709
C   C84       1.0  0.50152  0.65096  0.11895  1.0000 0.4360206709
C   C85       1.0  0.00152  0.84904  0.61895  1.0000 0.4360206709
C   C86       1.0  0.99848  0.15096  0.38105  1.0000 0.4360206709
C   C87       1.0  0.99848  0.84904  0.88105  1.0000 0.4360206709
C   C88       1.0  0.00152  0.15096  0.11895  1.0000 0.4360206709
C   C89       1.0  0.75856  0.54841  0.33484  1.0000 -0.1973959361
C   C90       1.0  0.24144  0.45159  0.66516  1.0000 -0.1973959361
C   C91       1.0  0.24144  0.54841  0.16516  1.0000 -0.1973959361
C   C92       1.0  0.75856  0.45159  0.83484  1.0000 -0.1973959361
C   C93       1.0  0.25856  0.04841  0.33484  1.0000 -0.1973959361
C   C94       1.0  0.74144  0.95159  0.66516  1.0000 -0.1973959361
C   C95       1.0  0.74144  0.04841  0.16516  1.0000 -0.1973959361
C   C96       1.0  0.25856  0.95159  0.83484  1.0000 -0.1973959361
C   C97       1.0  0.31416  0.14389  0.20577  1.0000 0.1432773476
C   C98       1.0  0.68584  0.85611  0.79423  1.0000 0.1432773476
C   C99       1.0  0.68584  0.14389  0.29423  1.0000 0.1432773476
C   C100      1.0  0.31416  0.85611  0.70577  1.0000 0.1432773476
C   C101      1.0  0.81416  0.64389  0.20577  1.0000 0.1432773476
C   C102      1.0  0.18584  0.35611  0.79423  1.0000 0.1432773476
C   C103      1.0  0.18584  0.64389  0.29423  1.0000 0.1432773476
C   C104      1.0  0.81416  0.35611  0.70577  1.0000 0.1432773476
N   N1        1.0  0.42013  0.24654  0.22447  1.0000 -0.2588923587
N   N2        1.0  0.57987  0.75346  0.77553  1.0000 -0.2588923587
N   N3        1.0  0.57987  0.24654  0.27553  1.0000 -0.2588923587
N   N4        1.0  0.42013  0.75346  0.72447  1.0000 -0.2588923587
N   N5        1.0  0.92013  0.74654  0.22447  1.0000 -0.2588923587
N   N6        1.0  0.07987  0.25346  0.77553  1.0000 -0.2588923587
N   N7        1.0  0.07987  0.74654  0.27553  1.0000 -0.2588923587
N   N8        1.0  0.92013  0.25346  0.72447  1.0000 -0.2588923587
N   N9        1.0  0.58730  0.40035  0.28216  1.0000 -0.2763865828
N   N10       1.0  0.41270  0.59965  0.71784  1.0000 -0.2763865828
N   N11       1.0  0.41270  0.40035  0.21784  1.0000 -0.2763865828
N   N12       1.0  0.58730  0.59965  0.78216  1.0000 -0.2763865828
N   N13       1.0  0.08730  0.90035  0.28216  1.0000 -0.2763865828
N   N14       1.0  0.91270  0.09965  0.71784  1.0000 -0.2763865828
N   N15       1.0  0.91270  0.90035  0.21784  1.0000 -0.2763865828
N   N16       1.0  0.08730  0.09965  0.78216  1.0000 -0.2763865828
N   N17       1.0  0.50253  0.33046  0.49115  1.0000 -0.5833647116
N   N18       1.0  0.49747  0.66954  0.50885  1.0000 -0.5833647116
N   N19       1.0  0.49747  0.33046  0.00885  1.0000 -0.5833647116
N   N20       1.0  0.50253  0.66954  0.99115  1.0000 -0.5833647116
N   N21       1.0  0.00253  0.83046  0.49115  1.0000 -0.5833647116
N   N22       1.0  0.99747  0.16954  0.50885  1.0000 -0.5833647116
N   N23       1.0  0.99747  0.83046  0.00885  1.0000 -0.5833647116
N   N24       1.0  0.00253  0.16954  0.99115  1.0000 -0.5833647116
N   N25       1.0  0.50000  0.37882  0.75000  1.0000 -0.4047849192
N   N26       1.0  0.50000  0.62118  0.25000  1.0000 -0.4047849192
N   N27       1.0  0.00000  0.87882  0.75000  1.0000 -0.4047849192
N   N28       1.0  0.00000  0.12118  0.25000  1.0000 -0.4056273713
