# DDEC6 charges by PACMAN v1.1 (https://github.com/mtap-research/PACMAN-charge/)
data_2012[Cd][nan]3[ASR]12
_chemical_formula_sum              "Cd8 H80 C80 N16 O32"
_cell_length_a       19.3449
_cell_length_b       19.3449
_cell_length_c       19.3449
_cell_angle_alpha    139.425
_cell_angle_beta     139.425
_cell_angle_gamma    58.7277

_symmetry_space_group_name_H-M    "P 1"
_symmetry_Int_Tables_number       1

loop_
  _symmetry_equiv_pos_as_xyz
  'x, y, z'

loop_
  _atom_site_type_symbol
  _atom_site_label
  _atom_site_symmetry_multiplicity
  _atom_site_fract_x
  _atom_site_fract_y
  _atom_site_fract_z
  _atom_site_occupancy
  _atom_site_charge
Cd  Cd1       1.0  0.73192  0.55539  0.77695  1.0000 0.8513546444
Cd  Cd2       1.0  0.44461  0.22156  0.17653  1.0000 0.8513546444
Cd  Cd3       1.0  0.77844  0.95497  0.22305  1.0000 0.8513546444
Cd  Cd4       1.0  0.04503  0.26808  0.82347  1.0000 0.8513546444
Cd  Cd5       1.0  0.97156  0.69461  0.67653  1.0000 0.8513546444
Cd  Cd6       1.0  0.70497  0.02844  0.72305  1.0000 0.8513546444
Cd  Cd7       1.0  0.01808  0.29503  0.32347  1.0000 0.8513546444
Cd  Cd8       1.0  0.30539  0.98192  0.27695  1.0000 0.8513546444
H   H1        1.0  0.90200  0.29230  0.59310  1.0000 0.1315935913
H   H2        1.0  0.70770  0.30080  0.60970  1.0000 0.1315935913
H   H3        1.0  0.69920  0.30890  0.40690  1.0000 0.1315935913
H   H4        1.0  0.69110  0.09800  0.39030  1.0000 0.1315935913
H   H5        1.0  0.05080  0.95770  0.10970  1.0000 0.1315935913
H   H6        1.0  0.05890  0.94920  0.90690  1.0000 0.1315935913
H   H7        1.0  0.84800  0.94110  0.89030  1.0000 0.1315935913
H   H8        1.0  0.04230  0.15200  0.09310  1.0000 0.1315935913
H   H9        1.0  0.95730  0.40070  0.68180  1.0000 0.1240274851
H   H10       1.0  0.59930  0.28110  0.55660  1.0000 0.1240274851
H   H11       1.0  0.71890  0.27550  0.31820  1.0000 0.1240274851
H   H12       1.0  0.72450  0.04270  0.44340  1.0000 0.1240274851
H   H13       1.0  0.03110  0.84930  0.05660  1.0000 0.1240274851
H   H14       1.0  0.02550  0.96890  0.81820  1.0000 0.1240274851
H   H15       1.0  0.79270  0.97450  0.94340  1.0000 0.1240274851
H   H16       1.0  0.15070  0.20730  0.18180  1.0000 0.1240274851
H   H17       1.0  0.17730  0.42290  0.87440  1.0000 0.1315935913
H   H18       1.0  0.57710  0.45150  0.75440  1.0000 0.1315935913
H   H19       1.0  0.54850  0.30290  0.12560  1.0000 0.1315935913
H   H20       1.0  0.69710  0.82270  0.24560  1.0000 0.1315935913
H   H21       1.0  0.20150  0.82710  0.25440  1.0000 0.1315935913
H   H22       1.0  0.05290  0.79850  0.62560  1.0000 0.1315935913
H   H23       1.0  0.57270  0.94710  0.74560  1.0000 0.1315935913
H   H24       1.0  0.17290  0.42730  0.37440  1.0000 0.1315935913
H   H25       1.0  0.10710  0.48380  0.91930  1.0000 0.138880641
H   H26       1.0  0.51620  0.43550  0.62330  1.0000 0.138880641
H   H27       1.0  0.56450  0.18780  0.08070  1.0000 0.138880641
H   H28       1.0  0.81220  0.89290  0.37670  1.0000 0.138880641
H   H29       1.0  0.18550  0.76620  0.12330  1.0000 0.138880641
H   H30       1.0  0.93780  0.81450  0.58070  1.0000 0.138880641
H   H31       1.0  0.64290  0.06220  0.87670  1.0000 0.138880641
H   H32       1.0  0.23380  0.35710  0.41930  1.0000 0.138880641
H   H33       1.0  0.14600  0.21190  0.70250  1.0000 0.1459938295
H   H34       1.0  0.78810  0.49060  0.93410  1.0000 0.1459938295
H   H35       1.0  0.50940  0.44350  0.29750  1.0000 0.1459938295
H   H36       1.0  0.55650  0.85400  0.06590  1.0000 0.1459938295
H   H37       1.0  0.24060  0.03810  0.43410  1.0000 0.1459938295
H   H38       1.0  0.19350  0.75940  0.79750  1.0000 0.1459938295
H   H39       1.0  0.60400  0.80650  0.56590  1.0000 0.1459938295
H   H40       1.0  0.96190  0.39600  0.20250  1.0000 0.1459938295
H   H41       1.0  0.01960  0.17510  0.58310  1.0000 0.1240274851
H   H42       1.0  0.82490  0.40800  0.84450  1.0000 0.1240274851
H   H43       1.0  0.59200  0.43650  0.41690  1.0000 0.1240274851
H   H44       1.0  0.56350  0.98040  0.15550  1.0000 0.1240274851
H   H45       1.0  0.15800  0.07490  0.34450  1.0000 0.1240274851
H   H46       1.0  0.18650  0.84200  0.91690  1.0000 0.1240274851
H   H47       1.0  0.73040  0.81350  0.65550  1.0000 0.1240274851
H   H48       1.0  0.92510  0.26960  0.08310  1.0000 0.1240274851
H   H49       1.0  0.20100  0.31780  0.60000  1.0000 0.1240274851
H   H50       1.0  0.68220  0.28220  0.88320  1.0000 0.1240274851
H   H51       1.0  0.71780  0.60100  0.40000  1.0000 0.1240274851
H   H52       1.0  0.39900  0.79900  0.11680  1.0000 0.1240274851
H   H53       1.0  0.03220  0.93220  0.38320  1.0000 0.1240274851
H   H54       1.0  0.35100  0.96780  0.90000  1.0000 0.1240274851
H   H55       1.0  0.54900  0.64900  0.61680  1.0000 0.1240274851
H   H56       1.0  0.06780  0.45100  0.10000  1.0000 0.1240274851
H   H57       1.0  0.22190  0.29510  0.71540  1.0000 0.1559370987
H   H58       1.0  0.70490  0.42030  0.92680  1.0000 0.1559370987
H   H59       1.0  0.57970  0.50650  0.28460  1.0000 0.1559370987
H   H60       1.0  0.49350  0.77810  0.07320  1.0000 0.1559370987
H   H61       1.0  0.17030  0.95490  0.42680  1.0000 0.1559370987
H   H62       1.0  0.25650  0.82970  0.78460  1.0000 0.1559370987
H   H63       1.0  0.52810  0.74350  0.57320  1.0000 0.1559370987
H   H64       1.0  0.04510  0.47190  0.21540  1.0000 0.1559370987
H   H65       1.0  0.90590  0.21850  0.43440  1.0000 0.1315935913
H   H66       1.0  0.78150  0.21590  0.68740  1.0000 0.1315935913
H   H67       1.0  0.78410  0.47150  0.56560  1.0000 0.1315935913
H   H68       1.0  0.52850  0.09410  0.31260  1.0000 0.1315935913
H   H69       1.0  0.96590  0.03150  0.18740  1.0000 0.1315935913
H   H70       1.0  0.22150  0.03410  0.06560  1.0000 0.1315935913
H   H71       1.0  0.84410  0.77850  0.81260  1.0000 0.1315935913
H   H72       1.0  0.96850  0.15590  0.93440  1.0000 0.1315935913
H   H73       1.0  0.89030  0.25740  0.33470  1.0000 0.1010605235
H   H74       1.0  0.74260  0.07730  0.63290  1.0000 0.1010605235
H   H75       1.0  0.92270  0.55560  0.66530  1.0000 0.1010605235
H   H76       1.0  0.44440  0.10970  0.36710  1.0000 0.1010605235
H   H77       1.0  0.82730  0.99260  0.13290  1.0000 0.1010605235
H   H78       1.0  0.30560  0.17270  0.16530  1.0000 0.1010605235
H   H79       1.0  0.85970  0.69440  0.86710  1.0000 0.1010605235
H   H80       1.0  0.00740  0.14030  0.83470  1.0000 0.1010605235
C   C1        1.0  0.95380  0.35790  0.68970  1.0000 -0.3084132366
C   C2        1.0  0.64210  0.33180  0.59590  1.0000 -0.3084132366
C   C3        1.0  0.66820  0.26410  0.31030  1.0000 -0.3084132366
C   C4        1.0  0.73590  0.04620  0.40410  1.0000 -0.3084132366
C   C5        1.0  0.08180  0.89210  0.09590  1.0000 -0.3084132366
C   C6        1.0  0.01410  0.91820  0.81030  1.0000 -0.3084132366
C   C7        1.0  0.79620  0.98590  0.90410  1.0000 -0.3084132366
C   C8        1.0  0.10790  0.20380  0.18970  1.0000 -0.3084132366
C   C9        1.0  0.91457  0.42197  0.76640  1.0000 0.5952965922
C   C10       1.0  0.57803  0.34443  0.49260  1.0000 0.5952965922
C   C11       1.0  0.65557  0.14817  0.23360  1.0000 0.5952965922
C   C12       1.0  0.85183  0.08543  0.50740  1.0000 0.5952965922
C   C13       1.0  0.09443  0.82803  0.99260  1.0000 0.5952965922
C   C14       1.0  0.89817  0.90557  0.73360  1.0000 0.5952965922
C   C15       1.0  0.83543  0.10183  0.00740  1.0000 0.5952965922
C   C16       1.0  0.17197  0.16457  0.26640  1.0000 0.5952965922
C   C17       1.0  0.14290  0.41910  0.89140  1.0000 -0.2682896101
C   C18       1.0  0.58090  0.47230  0.72380  1.0000 -0.2682896101
C   C19       1.0  0.52770  0.25150  0.10860  1.0000 -0.2682896101
C   C20       1.0  0.74850  0.85710  0.27620  1.0000 -0.2682896101
C   C21       1.0  0.22230  0.83090  0.22380  1.0000 -0.2682896101
C   C22       1.0  0.00150  0.77770  0.60860  1.0000 -0.2682896101
C   C23       1.0  0.60710  0.99850  0.77620  1.0000 -0.2682896101
C   C24       1.0  0.16910  0.39290  0.39140  1.0000 -0.2682896101
C   C25       1.0  0.23267  0.41767  0.01680  1.0000 0.6081803896
C   C26       1.0  0.58233  0.59913  0.81500  1.0000 0.6081803896
C   C27       1.0  0.40087  0.21587  0.98320  1.0000 0.6081803896
C   C28       1.0  0.78413  0.76733  0.18500  1.0000 0.6081803896
C   C29       1.0  0.34913  0.83233  0.31500  1.0000 0.6081803896
C   C30       1.0  0.96587  0.65087  0.48320  1.0000 0.6081803896
C   C31       1.0  0.51733  0.03413  0.68500  1.0000 0.6081803896
C   C32       1.0  0.16767  0.48267  0.51680  1.0000 0.6081803896
C   C33       1.0  0.07515  0.23545  0.65830  1.0000 -0.196667151
C   C34       1.0  0.76455  0.42285  0.83970  1.0000 -0.1949387037
C   C35       1.0  0.57715  0.41685  0.34170  1.0000 -0.196667151
C   C36       1.0  0.58315  0.92485  0.16030  1.0000 -0.196667151
C   C37       1.0  0.17285  0.01455  0.33970  1.0000 -0.196667151
C   C38       1.0  0.16685  0.82715  0.84170  1.0000 -0.196667151
C   C39       1.0  0.67485  0.83315  0.66030  1.0000 -0.196667151
C   C40       1.0  0.98545  0.32515  0.15830  1.0000 -0.196667151
C   C41       1.0  0.13861  0.30101  0.56760  1.0000 0.0677537935
C   C42       1.0  0.69899  0.26659  0.83760  1.0000 0.0677537935
C   C43       1.0  0.73341  0.57101  0.43240  1.0000 0.0677537935
C   C44       1.0  0.42899  0.86139  0.16240  1.0000 0.0677537935
C   C45       1.0  0.01659  0.94899  0.33760  1.0000 0.0677537935
C   C46       1.0  0.32101  0.98341  0.93240  1.0000 0.0677537935
C   C47       1.0  0.61139  0.67899  0.66240  1.0000 0.0677537935
C   C48       1.0  0.05101  0.38861  0.06760  1.0000 0.0677537935
C   C49       1.0  0.15165  0.28595  0.63590  1.0000 -0.196667151
C   C50       1.0  0.71405  0.34995  0.86570  1.0000 -0.196667151
C   C51       1.0  0.65005  0.51575  0.36410  1.0000 -0.196667151
C   C52       1.0  0.48425  0.84835  0.13430  1.0000 -0.196667151
C   C53       1.0  0.09995  0.96405  0.36570  1.0000 -0.196667151
C   C54       1.0  0.26575  0.90005  0.86410  1.0000 -0.196667151
C   C55       1.0  0.59835  0.73425  0.63430  1.0000 -0.196667151
C   C56       1.0  0.03595  0.40165  0.13590  1.0000 -0.196667151
C   C57       1.0  0.06480  0.25790  0.59070  1.0000 0.138880641
C   C58       1.0  0.74210  0.33280  0.80690  1.0000 0.138880641
C   C59       1.0  0.66720  0.47410  0.40930  1.0000 0.138880641
C   C60       1.0  0.52590  0.93520  0.19310  1.0000 0.138880641
C   C61       1.0  0.08280  0.99210  0.30690  1.0000 0.138880641
C   C62       1.0  0.22410  0.91720  0.90930  1.0000 0.138880641
C   C63       1.0  0.68520  0.77590  0.69310  1.0000 0.138880641
C   C64       1.0  0.00790  0.31480  0.09070  1.0000 0.138880641
C   C65       1.0  0.96845  0.24325  0.47480  1.0000 -0.2207219296
C   C66       1.0  0.75675  0.23155  0.72520  1.0000 -0.2207219296
C   C67       1.0  0.76845  0.49365  0.52520  1.0000 -0.2207219296
C   C68       1.0  0.50635  0.03155  0.27480  1.0000 -0.2207219296
C   C69       1.0  0.98155  0.00675  0.22520  1.0000 -0.2207219296
C   C70       1.0  0.24365  0.01845  0.02520  1.0000 -0.2207219296
C   C71       1.0  0.78155  0.75635  0.77480  1.0000 -0.2207219296
C   C72       1.0  0.99325  0.21845  0.97480  1.0000 -0.2207219296
C   C73       1.0  0.95966  0.26436  0.41290  1.0000 0.0572418279
C   C74       1.0  0.73564  0.14854  0.69530  1.0000 0.0572418279
C   C75       1.0  0.85146  0.54676  0.58710  1.0000 0.0572418279
C   C76       1.0  0.45324  0.04034  0.30470  1.0000 0.0572418279
C   C77       1.0  0.89854  0.98564  0.19530  1.0000 0.0572418279
C   C78       1.0  0.29676  0.10146  0.08710  1.0000 0.0572418279
C   C79       1.0  0.79034  0.70324  0.80470  1.0000 0.0572418279
C   C80       1.0  0.01436  0.20966  0.91290  1.0000 0.0572418279
N   N1        1.0  0.06457  0.32607  0.76470  1.0000 -0.028374516
N   N2        1.0  0.67393  0.43863  0.73850  1.0000 -0.028374516
N   N3        1.0  0.56137  0.29987  0.23530  1.0000 -0.028374516
N   N4        1.0  0.70013  0.93543  0.26150  1.0000 -0.028374516
N   N5        1.0  0.18863  0.92393  0.23850  1.0000 -0.028374516
N   N6        1.0  0.04987  0.81137  0.73530  1.0000 -0.028374516
N   N7        1.0  0.68543  0.95013  0.76150  1.0000 -0.028374516
N   N8        1.0  0.07607  0.31457  0.26470  1.0000 -0.028374516
N   N9        1.0  0.04354  0.29324  0.45890  1.0000 -0.2207219296
N   N10       1.0  0.70676  0.16566  0.75030  1.0000 -0.2207219296
N   N11       1.0  0.83434  0.58464  0.54110  1.0000 -0.2207219296
N   N12       1.0  0.41536  0.95646  0.24970  1.0000 -0.2207219296
N   N13       1.0  0.91566  0.95676  0.25030  1.0000 -0.2207219296
N   N14       1.0  0.33464  0.08434  0.04110  1.0000 -0.2207219296
N   N15       1.0  0.70646  0.66536  0.74970  1.0000 -0.2207219296
N   N16       1.0  0.04324  0.29354  0.95890  1.0000 -0.2207219296
O   O1        1.0  0.84429  0.47659  0.73610  1.0000 -0.5480170914
O   O2        1.0  0.52341  0.25951  0.36770  1.0000 -0.5480170914
O   O3        1.0  0.74049  0.10819  0.26390  1.0000 -0.5480170914
O   O4        1.0  0.89181  0.15571  0.63230  1.0000 -0.5480170914
O   O5        1.0  0.00951  0.77341  0.86770  1.0000 -0.5480170914
O   O6        1.0  0.85819  0.99049  0.76390  1.0000 -0.5480170914
O   O7        1.0  0.90571  0.14181  0.13230  1.0000 -0.5480170914
O   O8        1.0  0.22659  0.09429  0.23610  1.0000 -0.5480170914
O   O9        1.0  0.93839  0.40429  0.82970  1.0000 -0.4985536926
O   O10       1.0  0.59571  0.42541  0.53410  1.0000 -0.4985536926
O   O11       1.0  0.57459  0.10869  0.17030  1.0000 -0.4985536926
O   O12       1.0  0.89131  0.06161  0.46590  1.0000 -0.4985536926
O   O13       1.0  0.17541  0.84571  0.03410  1.0000 -0.4985536926
O   O14       1.0  0.85869  0.82459  0.67030  1.0000 -0.4985536926
O   O15       1.0  0.81161  0.14131  0.96590  1.0000 -0.4985536926
O   O16       1.0  0.15429  0.18839  0.32970  1.0000 -0.4985536926
O   O17       1.0  0.20497  0.37617  0.02000  1.0000 -0.5605151721
O   O18       1.0  0.62383  0.64383  0.82880  1.0000 -0.5605151721
O   O19       1.0  0.35617  0.18497  0.98000  1.0000 -0.5605151721
O   O20       1.0  0.81503  0.79503  0.17120  1.0000 -0.5605151721
O   O21       1.0  0.39383  0.87383  0.32880  1.0000 -0.5605151721
O   O22       1.0  0.93497  0.60617  0.48000  1.0000 -0.5605151721
O   O23       1.0  0.54503  0.06503  0.67120  1.0000 -0.5605151721
O   O24       1.0  0.12617  0.45497  0.52000  1.0000 -0.5605151721
O   O25       1.0  0.32284  0.47454  0.11870  1.0000 -0.5807177864
O   O26       1.0  0.52546  0.64416  0.84830  1.0000 -0.5807177864
O   O27       1.0  0.35584  0.20414  0.88130  1.0000 -0.5807177864
O   O28       1.0  0.79586  0.67716  0.15170  1.0000 -0.5807177864
O   O29       1.0  0.39416  0.77546  0.34830  1.0000 -0.5807177864
O   O30       1.0  0.95414  0.60584  0.38130  1.0000 -0.5807177864
O   O31       1.0  0.42716  0.04586  0.65170  1.0000 -0.5807177864
O   O32       1.0  0.22454  0.57284  0.61870  1.0000 -0.5807177864
