# DDEC6 charges by PACMAN v1.1 (https://github.com/mtap-research/PACMAN-charge/)
data_2012[Mg][bcu]3[ASR]2
_chemical_formula_sum              "Mg12 H104 C128 N16 O72"
_cell_length_a       14.974
_cell_length_b       19.706
_cell_length_c       19.76
_cell_angle_alpha    90
_cell_angle_beta     90
_cell_angle_gamma    90

_symmetry_space_group_name_H-M    "P 1"
_symmetry_Int_Tables_number       1

loop_
  _symmetry_equiv_pos_as_xyz
  'x, y, z'

loop_
  _atom_site_type_symbol
  _atom_site_label
  _atom_site_symmetry_multiplicity
  _atom_site_fract_x
  _atom_site_fract_y
  _atom_site_fract_z
  _atom_site_occupancy
  _atom_site_charge
Mg  Mg1       1.0  0.50000  0.50000  0.00000  1.0000 1.391239769
Mg  Mg2       1.0  0.50000  0.00000  0.50000  1.0000 1.391239769
Mg  Mg3       1.0  0.00000  0.00000  0.00000  1.0000 1.391239769
Mg  Mg4       1.0  0.00000  0.50000  0.50000  1.0000 1.391239769
Mg  Mg5       1.0  0.73545  0.52583  0.02532  1.0000 1.3190603323
Mg  Mg6       1.0  0.26455  0.97417  0.52532  1.0000 1.3190603323
Mg  Mg7       1.0  0.76455  0.02583  0.97468  1.0000 1.3190603323
Mg  Mg8       1.0  0.23545  0.47417  0.47468  1.0000 1.3190603323
Mg  Mg9       1.0  0.26455  0.47417  0.97468  1.0000 1.3190603323
Mg  Mg10      1.0  0.73545  0.02583  0.47468  1.0000 1.3190603323
Mg  Mg11      1.0  0.23545  0.97417  0.02532  1.0000 1.3190603323
Mg  Mg12      1.0  0.76455  0.52583  0.52532  1.0000 1.3190603323
H   H1        1.0  0.82080  0.49110  0.38680  1.0000 0.2688008353
H   H2        1.0  0.17920  0.00890  0.88680  1.0000 0.2688008353
H   H3        1.0  0.67920  0.99110  0.61320  1.0000 0.2688008353
H   H4        1.0  0.32080  0.50890  0.11320  1.0000 0.2688008353
H   H5        1.0  0.17920  0.50890  0.61320  1.0000 0.2688008353
H   H6        1.0  0.82080  0.99110  0.11320  1.0000 0.2688008353
H   H7        1.0  0.32080  0.00890  0.38680  1.0000 0.2688008353
H   H8        1.0  0.67920  0.49110  0.88680  1.0000 0.2688008353
H   H9        1.0  0.34680  0.79840  0.96010  1.0000 0.2990494503
H   H10       1.0  0.65320  0.70160  0.46010  1.0000 0.2990494503
H   H11       1.0  0.15320  0.29840  0.03990  1.0000 0.2990494503
H   H12       1.0  0.84680  0.20160  0.53990  1.0000 0.2990494503
H   H13       1.0  0.65320  0.20160  0.03990  1.0000 0.2990494503
H   H14       1.0  0.34680  0.29840  0.53990  1.0000 0.2990494503
H   H15       1.0  0.84680  0.70160  0.96010  1.0000 0.2990494503
H   H16       1.0  0.15320  0.79840  0.46010  1.0000 0.2990494503
H   H17       1.0  0.38050  0.86940  0.95670  1.0000 0.2948886223
H   H18       1.0  0.61950  0.63060  0.45670  1.0000 0.2948886223
H   H19       1.0  0.11950  0.36940  0.04330  1.0000 0.2948886223
H   H20       1.0  0.88050  0.13060  0.54330  1.0000 0.2948886223
H   H21       1.0  0.61950  0.13060  0.04330  1.0000 0.2948886223
H   H22       1.0  0.38050  0.36940  0.54330  1.0000 0.2948886223
H   H23       1.0  0.88050  0.63060  0.95670  1.0000 0.2948886223
H   H24       1.0  0.11950  0.86940  0.45670  1.0000 0.2948886223
H   H25       1.0  0.34590  0.53240  0.30020  1.0000 0.2990494503
H   H26       1.0  0.65410  0.96760  0.80020  1.0000 0.2990494503
H   H27       1.0  0.15410  0.03240  0.69980  1.0000 0.2990494503
H   H28       1.0  0.84590  0.46760  0.19980  1.0000 0.2990494503
H   H29       1.0  0.65410  0.46760  0.69980  1.0000 0.2990494503
H   H30       1.0  0.34590  0.03240  0.19980  1.0000 0.2990494503
H   H31       1.0  0.84590  0.96760  0.30020  1.0000 0.2990494503
H   H32       1.0  0.15410  0.53240  0.80020  1.0000 0.2990494503
H   H33       1.0  0.38030  0.53410  0.37090  1.0000 0.2990494503
H   H34       1.0  0.61970  0.96590  0.87090  1.0000 0.2990494503
H   H35       1.0  0.11970  0.03410  0.62910  1.0000 0.2990494503
H   H36       1.0  0.88030  0.46590  0.12910  1.0000 0.2990494503
H   H37       1.0  0.61970  0.46590  0.62910  1.0000 0.2990494503
H   H38       1.0  0.38030  0.03410  0.12910  1.0000 0.2990494503
H   H39       1.0  0.88030  0.96590  0.37090  1.0000 0.2990494503
H   H40       1.0  0.11970  0.53410  0.87090  1.0000 0.2990494503
H   H41       1.0  0.44680  0.70500  0.97680  1.0000 0.1401043974
H   H42       1.0  0.55320  0.79500  0.47680  1.0000 0.1401043974
H   H43       1.0  0.05320  0.20500  0.02320  1.0000 0.1401043974
H   H44       1.0  0.94680  0.29500  0.52320  1.0000 0.1401043974
H   H45       1.0  0.55320  0.29500  0.02320  1.0000 0.1401043974
H   H46       1.0  0.44680  0.20500  0.52320  1.0000 0.1401043974
H   H47       1.0  0.94680  0.79500  0.97680  1.0000 0.1401043974
H   H48       1.0  0.05320  0.70500  0.47680  1.0000 0.1401043974
H   H49       1.0  0.71080  0.74130  0.99020  1.0000 0.1132673539
H   H50       1.0  0.28920  0.75870  0.49020  1.0000 0.1132673539
H   H51       1.0  0.78920  0.24130  0.00980  1.0000 0.1132673539
H   H52       1.0  0.21080  0.25870  0.50980  1.0000 0.1132673539
H   H53       1.0  0.28920  0.25870  0.00980  1.0000 0.1132673539
H   H54       1.0  0.71080  0.24130  0.50980  1.0000 0.1132673539
H   H55       1.0  0.21080  0.75870  0.99020  1.0000 0.1132673539
H   H56       1.0  0.78920  0.74130  0.49020  1.0000 0.1132673539
H   H57       1.0  0.53760  0.89470  0.96630  1.0000 0.1173403926
H   H58       1.0  0.46240  0.60530  0.46630  1.0000 0.1173403926
H   H59       1.0  0.96240  0.39470  0.03370  1.0000 0.1173403926
H   H60       1.0  0.03760  0.10530  0.53370  1.0000 0.1173403926
H   H61       1.0  0.46240  0.10530  0.03370  1.0000 0.1173403926
H   H62       1.0  0.53760  0.39470  0.53370  1.0000 0.1173403926
H   H63       1.0  0.03760  0.60530  0.96630  1.0000 0.1173403926
H   H64       1.0  0.96240  0.89470  0.46630  1.0000 0.1173403926
H   H65       1.0  0.53840  0.52810  0.39650  1.0000 0.1306924738
H   H66       1.0  0.46160  0.97190  0.89650  1.0000 0.1306924738
H   H67       1.0  0.96160  0.02810  0.60350  1.0000 0.1306924738
H   H68       1.0  0.03840  0.47190  0.10350  1.0000 0.1306924738
H   H69       1.0  0.46160  0.47190  0.60350  1.0000 0.1306924738
H   H70       1.0  0.53840  0.02810  0.10350  1.0000 0.1306924738
H   H71       1.0  0.03840  0.97190  0.39650  1.0000 0.1306924738
H   H72       1.0  0.96160  0.52810  0.89650  1.0000 0.1306924738
H   H73       1.0  0.70980  0.50880  0.24160  1.0000 0.1173403926
H   H74       1.0  0.29020  0.99120  0.74160  1.0000 0.1173403926
H   H75       1.0  0.79020  0.00880  0.75840  1.0000 0.1173403926
H   H76       1.0  0.20980  0.49120  0.25840  1.0000 0.1173403926
H   H77       1.0  0.29020  0.49120  0.75840  1.0000 0.1173403926
H   H78       1.0  0.70980  0.00880  0.25840  1.0000 0.1173403926
H   H79       1.0  0.20980  0.99120  0.24160  1.0000 0.1173403926
H   H80       1.0  0.79020  0.50880  0.74160  1.0000 0.1173403926
H   H81       1.0  0.44770  0.52210  0.20510  1.0000 0.1306924738
H   H82       1.0  0.55230  0.97790  0.70510  1.0000 0.1306924738
H   H83       1.0  0.05230  0.02210  0.79490  1.0000 0.1306924738
H   H84       1.0  0.94770  0.47790  0.29490  1.0000 0.1306924738
H   H85       1.0  0.55230  0.47790  0.79490  1.0000 0.1306924738
H   H86       1.0  0.44770  0.02210  0.29490  1.0000 0.1306924738
H   H87       1.0  0.94770  0.97790  0.20510  1.0000 0.1306924738
H   H88       1.0  0.05230  0.52210  0.70510  1.0000 0.1306924738
H   H89       1.0  0.65800  0.48500  0.94000  1.0000 0.2990494503
H   H90       1.0  0.34200  0.01500  0.44000  1.0000 0.2990494503
H   H91       1.0  0.84200  0.98500  0.06000  1.0000 0.2990494503
H   H92       1.0  0.15800  0.51500  0.56000  1.0000 0.2990494503
H   H93       1.0  0.34200  0.51500  0.06000  1.0000 0.2990494503
H   H94       1.0  0.65800  0.98500  0.56000  1.0000 0.2990494503
H   H95       1.0  0.15800  0.01500  0.94000  1.0000 0.2990494503
H   H96       1.0  0.84200  0.48500  0.44000  1.0000 0.2990494503
H   H97       1.0  0.66300  0.44400  0.99700  1.0000 0.3908864774
H   H98       1.0  0.33700  0.05600  0.49700  1.0000 0.3908864774
H   H99       1.0  0.83700  0.94400  0.00300  1.0000 0.3908864774
H   H100      1.0  0.16300  0.55600  0.50300  1.0000 0.3908864774
H   H101      1.0  0.33700  0.55600  0.00300  1.0000 0.3908864774
H   H102      1.0  0.66300  0.94400  0.50300  1.0000 0.3908864774
H   H103      1.0  0.16300  0.05600  0.99700  1.0000 0.3908864774
H   H104      1.0  0.83700  0.44400  0.49700  1.0000 0.3908864774
C   C1        1.0  0.58100  0.51500  0.21190  1.0000 -0.0037797439
C   C2        1.0  0.41900  0.98500  0.71190  1.0000 -0.0037797439
C   C3        1.0  0.91900  0.01500  0.78810  1.0000 -0.0037797439
C   C4        1.0  0.08100  0.48500  0.28810  1.0000 -0.0037797439
C   C5        1.0  0.41900  0.48500  0.78810  1.0000 -0.0037797439
C   C6        1.0  0.58100  0.01500  0.28810  1.0000 -0.0037797439
C   C7        1.0  0.08100  0.98500  0.21190  1.0000 -0.0037797439
C   C8        1.0  0.91900  0.51500  0.71190  1.0000 -0.0037797439
C   C9        1.0  0.58230  0.71120  0.98750  1.0000 -0.0214464011
C   C10       1.0  0.41770  0.78880  0.48750  1.0000 -0.0214464011
C   C11       1.0  0.91770  0.21120  0.01250  1.0000 -0.0214464011
C   C12       1.0  0.08230  0.28880  0.51250  1.0000 -0.0214464011
C   C13       1.0  0.41770  0.28880  0.01250  1.0000 -0.0214464011
C   C14       1.0  0.58230  0.21120  0.51250  1.0000 -0.0214464011
C   C15       1.0  0.08230  0.78880  0.98750  1.0000 -0.0214464011
C   C16       1.0  0.91770  0.71120  0.48750  1.0000 -0.0214464011
C   C17       1.0  0.47830  0.80310  0.97080  1.0000 0.2576912112
C   C18       1.0  0.52170  0.69690  0.47080  1.0000 0.2576912112
C   C19       1.0  0.02170  0.30310  0.02920  1.0000 0.2576912112
C   C20       1.0  0.97830  0.19690  0.52920  1.0000 0.2576912112
C   C21       1.0  0.52170  0.19690  0.02920  1.0000 0.2576912112
C   C22       1.0  0.47830  0.30310  0.52920  1.0000 0.2576912112
C   C23       1.0  0.97830  0.69690  0.97080  1.0000 0.2576912112
C   C24       1.0  0.02170  0.80310  0.47080  1.0000 0.2576912112
C   C25       1.0  0.49420  0.73550  0.97800  1.0000 -0.1984807341
C   C26       1.0  0.50580  0.76450  0.47800  1.0000 -0.1984807341
C   C27       1.0  0.00580  0.23550  0.02200  1.0000 -0.1984807341
C   C28       1.0  0.99420  0.26450  0.52200  1.0000 -0.1984807341
C   C29       1.0  0.50580  0.26450  0.02200  1.0000 -0.1984807341
C   C30       1.0  0.49420  0.23550  0.52200  1.0000 -0.1984807341
C   C31       1.0  0.99420  0.76450  0.97800  1.0000 -0.1984807341
C   C32       1.0  0.00580  0.73550  0.47800  1.0000 -0.1984807341
C   C33       1.0  0.63540  0.51790  0.32650  1.0000 -0.025583376
C   C34       1.0  0.36460  0.98210  0.82650  1.0000 -0.025583376
C   C35       1.0  0.86460  0.01790  0.67350  1.0000 -0.025583376
C   C36       1.0  0.13540  0.48210  0.17350  1.0000 -0.025583376
C   C37       1.0  0.36460  0.48210  0.67350  1.0000 -0.025583376
C   C38       1.0  0.63540  0.01790  0.17350  1.0000 -0.025583376
C   C39       1.0  0.13540  0.98210  0.32650  1.0000 -0.025583376
C   C40       1.0  0.86460  0.51790  0.82650  1.0000 -0.025583376
C   C41       1.0  0.71090  0.51520  0.37650  1.0000 0.5761191092
C   C42       1.0  0.28910  0.98480  0.87650  1.0000 0.5761191092
C   C43       1.0  0.78910  0.01520  0.62350  1.0000 0.5761191092
C   C44       1.0  0.21090  0.48480  0.12350  1.0000 0.5761191092
C   C45       1.0  0.28910  0.48480  0.62350  1.0000 0.5761191092
C   C46       1.0  0.71090  0.01520  0.12350  1.0000 0.5761191092
C   C47       1.0  0.21090  0.98480  0.37650  1.0000 0.5761191092
C   C48       1.0  0.78910  0.51520  0.87650  1.0000 0.5761191092
C   C49       1.0  0.63630  0.82620  0.98240  1.0000 -0.014650218
C   C50       1.0  0.36370  0.67380  0.48240  1.0000 -0.014650218
C   C51       1.0  0.86370  0.32620  0.01760  1.0000 -0.014650218
C   C52       1.0  0.13630  0.17380  0.51760  1.0000 -0.014650218
C   C53       1.0  0.36370  0.17380  0.01760  1.0000 -0.014650218
C   C54       1.0  0.63630  0.32620  0.51760  1.0000 -0.014650218
C   C55       1.0  0.13630  0.67380  0.98240  1.0000 -0.014650218
C   C56       1.0  0.86370  0.82620  0.48240  1.0000 -0.014650218
C   C57       1.0  0.47770  0.52540  0.30370  1.0000 0.2688008353
C   C58       1.0  0.52230  0.97460  0.80370  1.0000 0.2688008353
C   C59       1.0  0.02230  0.02540  0.69630  1.0000 0.2688008353
C   C60       1.0  0.97770  0.47460  0.19630  1.0000 0.2688008353
C   C61       1.0  0.52230  0.47460  0.69630  1.0000 0.2688008353
C   C62       1.0  0.47770  0.02540  0.19630  1.0000 0.2688008353
C   C63       1.0  0.97770  0.97460  0.30370  1.0000 0.2688008353
C   C64       1.0  0.02230  0.52540  0.80370  1.0000 0.2688008353
C   C65       1.0  0.59690  0.63700  0.99390  1.0000 0.6194237537
C   C66       1.0  0.40310  0.86300  0.49390  1.0000 0.6194237537
C   C67       1.0  0.90310  0.13700  0.00610  1.0000 0.6194237537
C   C68       1.0  0.09690  0.36300  0.50610  1.0000 0.6194237537
C   C69       1.0  0.40310  0.36300  0.00610  1.0000 0.6194237537
C   C70       1.0  0.59690  0.13700  0.50610  1.0000 0.6194237537
C   C71       1.0  0.09690  0.86300  0.99390  1.0000 0.6194237537
C   C72       1.0  0.90310  0.63700  0.49390  1.0000 0.6194237537
C   C73       1.0  0.65240  0.75700  0.98710  1.0000 -0.1336396419
C   C74       1.0  0.34760  0.74300  0.48710  1.0000 -0.1336396419
C   C75       1.0  0.84760  0.25700  0.01290  1.0000 -0.1336396419
C   C76       1.0  0.15240  0.24300  0.51290  1.0000 -0.1336396419
C   C77       1.0  0.34760  0.24300  0.01290  1.0000 -0.1336396419
C   C78       1.0  0.65240  0.25700  0.51290  1.0000 -0.1336396419
C   C79       1.0  0.15240  0.74300  0.98710  1.0000 -0.1336396419
C   C80       1.0  0.84760  0.75700  0.48710  1.0000 -0.1336396419
C   C81       1.0  0.54870  0.84860  0.97220  1.0000 -0.2125510059
C   C82       1.0  0.45130  0.65140  0.47220  1.0000 -0.2125510059
C   C83       1.0  0.95130  0.34860  0.02780  1.0000 -0.2125510059
C   C84       1.0  0.04870  0.15140  0.52780  1.0000 -0.2125510059
C   C85       1.0  0.45130  0.15140  0.02780  1.0000 -0.2125510059
C   C86       1.0  0.54870  0.34860  0.52780  1.0000 -0.2125510059
C   C87       1.0  0.04870  0.65140  0.97220  1.0000 -0.2125510059
C   C88       1.0  0.95130  0.84860  0.47220  1.0000 -0.2125510059
C   C89       1.0  0.54930  0.52440  0.35030  1.0000 -0.1984807341
C   C90       1.0  0.45070  0.97560  0.85030  1.0000 -0.1984807341
C   C91       1.0  0.95070  0.02440  0.64970  1.0000 -0.1984807341
C   C92       1.0  0.04930  0.47560  0.14970  1.0000 -0.1984807341
C   C93       1.0  0.45070  0.47560  0.64970  1.0000 -0.1984807341
C   C94       1.0  0.54930  0.02440  0.14970  1.0000 -0.1984807341
C   C95       1.0  0.04930  0.97560  0.35030  1.0000 -0.1984807341
C   C96       1.0  0.95070  0.52440  0.85030  1.0000 -0.1984807341
C   C97       1.0  0.65160  0.51320  0.25740  1.0000 -0.1462961853
C   C98       1.0  0.34840  0.98680  0.75740  1.0000 -0.1462961853
C   C99       1.0  0.84840  0.01320  0.74260  1.0000 -0.1462961853
C   C100      1.0  0.15160  0.48680  0.24260  1.0000 -0.1462961853
C   C101      1.0  0.34840  0.48680  0.74260  1.0000 -0.1462961853
C   C102      1.0  0.65160  0.01320  0.24260  1.0000 -0.1462961853
C   C103      1.0  0.15160  0.98680  0.25740  1.0000 -0.1462961853
C   C104      1.0  0.84840  0.51320  0.75740  1.0000 -0.1462961853
C   C105      1.0  0.49490  0.52100  0.23560  1.0000 -0.1984807341
C   C106      1.0  0.50510  0.97900  0.73560  1.0000 -0.1984807341
C   C107      1.0  0.00510  0.02100  0.76440  1.0000 -0.1984807341
C   C108      1.0  0.99490  0.47900  0.26440  1.0000 -0.1984807341
C   C109      1.0  0.50510  0.47900  0.76440  1.0000 -0.1984807341
C   C110      1.0  0.49490  0.02100  0.26440  1.0000 -0.1984807341
C   C111      1.0  0.99490  0.97900  0.23560  1.0000 -0.1984807341
C   C112      1.0  0.00510  0.52100  0.73560  1.0000 -0.1984807341
C   C113      1.0  0.59770  0.51100  0.13650  1.0000 0.6194237537
C   C114      1.0  0.40230  0.98900  0.63650  1.0000 0.6194237537
C   C115      1.0  0.90230  0.01100  0.86350  1.0000 0.6194237537
C   C116      1.0  0.09770  0.48900  0.36350  1.0000 0.6194237537
C   C117      1.0  0.40230  0.48900  0.86350  1.0000 0.6194237537
C   C118      1.0  0.59770  0.01100  0.36350  1.0000 0.6194237537
C   C119      1.0  0.09770  0.98900  0.13650  1.0000 0.6194237537
C   C120      1.0  0.90230  0.51100  0.63650  1.0000 0.6194237537
C   C121      1.0  0.71190  0.87570  0.98120  1.0000 0.5761191092
C   C122      1.0  0.28810  0.62430  0.48120  1.0000 0.5761191092
C   C123      1.0  0.78810  0.37570  0.01880  1.0000 0.5761191092
C   C124      1.0  0.21190  0.12430  0.51880  1.0000 0.5761191092
C   C125      1.0  0.28810  0.12430  0.01880  1.0000 0.5761191092
C   C126      1.0  0.71190  0.37570  0.51880  1.0000 0.5761191092
C   C127      1.0  0.21190  0.62430  0.98120  1.0000 0.5761191092
C   C128      1.0  0.78810  0.87570  0.48120  1.0000 0.5761191092
N   N1        1.0  0.39050  0.82670  0.96130  1.0000 -0.589254
N   N2        1.0  0.60950  0.67330  0.46130  1.0000 -0.589254
N   N3        1.0  0.10950  0.32670  0.03870  1.0000 -0.589254
N   N4        1.0  0.89050  0.17330  0.53870  1.0000 -0.589254
N   N5        1.0  0.60950  0.17330  0.03870  1.0000 -0.589254
N   N6        1.0  0.39050  0.32670  0.53870  1.0000 -0.589254
N   N7        1.0  0.89050  0.67330  0.96130  1.0000 -0.589254
N   N8        1.0  0.10950  0.82670  0.46130  1.0000 -0.589254
N   N9        1.0  0.39000  0.53140  0.32810  1.0000 -0.589254
N   N10       1.0  0.61000  0.96860  0.82810  1.0000 -0.589254
N   N11       1.0  0.11000  0.03140  0.67190  1.0000 -0.589254
N   N12       1.0  0.89000  0.46860  0.17190  1.0000 -0.589254
N   N13       1.0  0.61000  0.46860  0.67190  1.0000 -0.589254
N   N14       1.0  0.39000  0.03140  0.17190  1.0000 -0.589254
N   N15       1.0  0.89000  0.96860  0.32810  1.0000 -0.589254
N   N16       1.0  0.11000  0.53140  0.82810  1.0000 -0.589254
O   O1        1.0  0.53170  0.59760  0.98600  1.0000 -0.6285678976
O   O2        1.0  0.46830  0.90240  0.48600  1.0000 -0.6285678976
O   O3        1.0  0.96830  0.09760  0.01400  1.0000 -0.6285678976
O   O4        1.0  0.03170  0.40240  0.51400  1.0000 -0.6285678976
O   O5        1.0  0.46830  0.40240  0.01400  1.0000 -0.6285678976
O   O6        1.0  0.53170  0.09760  0.51400  1.0000 -0.6285678976
O   O7        1.0  0.03170  0.90240  0.98600  1.0000 -0.6285678976
O   O8        1.0  0.96830  0.59760  0.48600  1.0000 -0.6285678976
O   O9        1.0  0.67420  0.61670  0.00920  1.0000 -0.6519272857
O   O10       1.0  0.32580  0.88330  0.50920  1.0000 -0.6519272857
O   O11       1.0  0.82580  0.11670  0.99080  1.0000 -0.6519272857
O   O12       1.0  0.17420  0.38330  0.49080  1.0000 -0.6519272857
O   O13       1.0  0.32580  0.38330  0.99080  1.0000 -0.6519272857
O   O14       1.0  0.67420  0.11670  0.49080  1.0000 -0.6519272857
O   O15       1.0  0.17420  0.88330  0.00920  1.0000 -0.6519272857
O   O16       1.0  0.82580  0.61670  0.50920  1.0000 -0.6519272857
O   O17       1.0  0.53110  0.50700  0.09950  1.0000 -0.6055189304
O   O18       1.0  0.46890  0.99300  0.59950  1.0000 -0.6055189304
O   O19       1.0  0.96890  0.00700  0.90050  1.0000 -0.6055189304
O   O20       1.0  0.03110  0.49300  0.40050  1.0000 -0.6055189304
O   O21       1.0  0.46890  0.49300  0.90050  1.0000 -0.6055189304
O   O22       1.0  0.53110  0.00700  0.40050  1.0000 -0.6055189304
O   O23       1.0  0.03110  0.99300  0.09950  1.0000 -0.6055189304
O   O24       1.0  0.96890  0.50700  0.59950  1.0000 -0.6055189304
O   O25       1.0  0.67680  0.51300  0.11740  1.0000 -0.6211119078
O   O26       1.0  0.32320  0.98700  0.61740  1.0000 -0.6211119078
O   O27       1.0  0.82320  0.01300  0.88260  1.0000 -0.6211119078
O   O28       1.0  0.17680  0.48700  0.38260  1.0000 -0.6211119078
O   O29       1.0  0.32320  0.48700  0.88260  1.0000 -0.6211119078
O   O30       1.0  0.67680  0.01300  0.38260  1.0000 -0.6211119078
O   O31       1.0  0.17680  0.98700  0.11740  1.0000 -0.6211119078
O   O32       1.0  0.82320  0.51300  0.61740  1.0000 -0.6211119078
O   O33       1.0  0.69590  0.93530  0.96220  1.0000 -0.6519272857
O   O34       1.0  0.30410  0.56470  0.46220  1.0000 -0.6519272857
O   O35       1.0  0.80410  0.43530  0.03780  1.0000 -0.6519272857
O   O36       1.0  0.19590  0.06470  0.53780  1.0000 -0.6519272857
O   O37       1.0  0.30410  0.06470  0.03780  1.0000 -0.6519272857
O   O38       1.0  0.69590  0.43530  0.53780  1.0000 -0.6519272857
O   O39       1.0  0.19590  0.56470  0.96220  1.0000 -0.6519272857
O   O40       1.0  0.80410  0.93530  0.46220  1.0000 -0.6519272857
O   O41       1.0  0.78680  0.85500  0.00150  1.0000 -0.5320487477
O   O42       1.0  0.21320  0.64500  0.50150  1.0000 -0.5320487477
O   O43       1.0  0.71320  0.35500  0.99850  1.0000 -0.5320487477
O   O44       1.0  0.28680  0.14500  0.49850  1.0000 -0.5320487477
O   O45       1.0  0.21320  0.14500  0.99850  1.0000 -0.5320487477
O   O46       1.0  0.78680  0.35500  0.49850  1.0000 -0.5320487477
O   O47       1.0  0.28680  0.64500  0.00150  1.0000 -0.5320487477
O   O48       1.0  0.71320  0.85500  0.50150  1.0000 -0.5320487477
O   O49       1.0  0.78430  0.49040  0.35600  1.0000 -0.4135798447
O   O50       1.0  0.21570  0.00960  0.85600  1.0000 -0.4135798447
O   O51       1.0  0.71570  0.99040  0.64400  1.0000 -0.4135798447
O   O52       1.0  0.28430  0.50960  0.14400  1.0000 -0.4135798447
O   O53       1.0  0.21570  0.50960  0.64400  1.0000 -0.4135798447
O   O54       1.0  0.78430  0.99040  0.14400  1.0000 -0.4135798447
O   O55       1.0  0.28430  0.00960  0.35600  1.0000 -0.4135798447
O   O56       1.0  0.71570  0.49040  0.85600  1.0000 -0.4135798447
O   O57       1.0  0.69630  0.53670  0.43520  1.0000 -0.6211119078
O   O58       1.0  0.30370  0.96330  0.93520  1.0000 -0.6211119078
O   O59       1.0  0.80370  0.03670  0.56480  1.0000 -0.6211119078
O   O60       1.0  0.19630  0.46330  0.06480  1.0000 -0.6211119078
O   O61       1.0  0.30370  0.46330  0.56480  1.0000 -0.6211119078
O   O62       1.0  0.69630  0.03670  0.06480  1.0000 -0.6211119078
O   O63       1.0  0.19630  0.96330  0.43520  1.0000 -0.6211119078
O   O64       1.0  0.80370  0.53670  0.93520  1.0000 -0.6211119078
O   O65       1.0  0.63140  0.47040  0.97410  1.0000 -0.7746400766
O   O66       1.0  0.36860  0.02960  0.47410  1.0000 -0.7746400766
O   O67       1.0  0.86860  0.97040  0.02590  1.0000 -0.7751942806
O   O68       1.0  0.13140  0.52960  0.52590  1.0000 -0.7746400766
O   O69       1.0  0.36860  0.52960  0.02590  1.0000 -0.7746400766
O   O70       1.0  0.63140  0.97040  0.52590  1.0000 -0.7751942806
O   O71       1.0  0.13140  0.02960  0.97410  1.0000 -0.7746400766
O   O72       1.0  0.86860  0.47040  0.47410  1.0000 -0.7746400766
