# DDEC6 charges by PACMAN v1.1 (https://github.com/mtap-research/PACMAN-charge/)
data_2012[Cd][etb]3[ASR]1
_chemical_formula_sum              "Cd6 H66 C102 N18 O24"
_cell_length_a       17.8675
_cell_length_b       17.8675
_cell_length_c       17.8675
_cell_angle_alpha    113.659
_cell_angle_beta     113.659
_cell_angle_gamma    113.659

_symmetry_space_group_name_H-M    "P 1"
_symmetry_Int_Tables_number       1

loop_
  _symmetry_equiv_pos_as_xyz
  'x, y, z'

loop_
  _atom_site_type_symbol
  _atom_site_label
  _atom_site_symmetry_multiplicity
  _atom_site_fract_x
  _atom_site_fract_y
  _atom_site_fract_z
  _atom_site_occupancy
  _atom_site_charge
Cd  Cd1       1.0  0.07958  0.85187  0.44612  1.0000 0.8106349745
Cd  Cd2       1.0  0.85187  0.44612  0.07958  1.0000 0.8106349745
Cd  Cd3       1.0  0.44612  0.07958  0.85187  1.0000 0.8106349745
Cd  Cd4       1.0  0.92042  0.14813  0.55388  1.0000 0.8106349745
Cd  Cd5       1.0  0.14813  0.55388  0.92042  1.0000 0.8106349745
Cd  Cd6       1.0  0.55388  0.92042  0.14813  1.0000 0.8106349745
H   H1        1.0  0.20530  0.73710  0.24200  1.0000 0.1461453923
H   H2        1.0  0.73710  0.24200  0.20530  1.0000 0.1461453923
H   H3        1.0  0.24200  0.20530  0.73710  1.0000 0.1461453923
H   H4        1.0  0.79470  0.26290  0.75800  1.0000 0.1461453923
H   H5        1.0  0.26290  0.75800  0.79470  1.0000 0.1461453923
H   H6        1.0  0.75800  0.79470  0.26290  1.0000 0.1461453923
H   H7        1.0  0.42790  0.06210  0.49150  1.0000 0.1404245956
H   H8        1.0  0.06210  0.49150  0.42790  1.0000 0.1404245956
H   H9        1.0  0.49150  0.42790  0.06210  1.0000 0.1404245956
H   H10       1.0  0.57210  0.93790  0.50850  1.0000 0.1404245956
H   H11       1.0  0.93790  0.50850  0.57210  1.0000 0.1404245956
H   H12       1.0  0.50850  0.57210  0.93790  1.0000 0.1404245956
H   H13       1.0  0.32290  0.03930  0.53830  1.0000 0.109069607
H   H14       1.0  0.03930  0.53830  0.32290  1.0000 0.109069607
H   H15       1.0  0.53830  0.32290  0.03930  1.0000 0.109069607
H   H16       1.0  0.67710  0.96070  0.46170  1.0000 0.109069607
H   H17       1.0  0.96070  0.46170  0.67710  1.0000 0.109069607
H   H18       1.0  0.46170  0.67710  0.96070  1.0000 0.109069607
H   H19       1.0  0.44480  0.05610  0.36030  1.0000 0.1404245956
H   H20       1.0  0.05610  0.36030  0.44480  1.0000 0.1404245956
H   H21       1.0  0.36030  0.44480  0.05610  1.0000 0.1404245956
H   H22       1.0  0.55520  0.94390  0.63970  1.0000 0.1404245956
H   H23       1.0  0.94390  0.63970  0.55520  1.0000 0.1404245956
H   H24       1.0  0.63970  0.55520  0.94390  1.0000 0.1404245956
H   H25       1.0  0.36070  0.77340  0.27590  1.0000 0.1404245956
H   H26       1.0  0.77340  0.27590  0.36070  1.0000 0.1404245956
H   H27       1.0  0.27590  0.36070  0.77340  1.0000 0.1404245956
H   H28       1.0  0.63930  0.22660  0.72410  1.0000 0.1404245956
H   H29       1.0  0.22660  0.72410  0.63930  1.0000 0.1404245956
H   H30       1.0  0.72410  0.63930  0.22660  1.0000 0.1404245956
H   H31       1.0  0.44060  0.77750  0.20060  1.0000 0.109069607
H   H32       1.0  0.77750  0.20060  0.44060  1.0000 0.109069607
H   H33       1.0  0.20060  0.44060  0.77750  1.0000 0.109069607
H   H34       1.0  0.55940  0.22250  0.79940  1.0000 0.109069607
H   H35       1.0  0.22250  0.79940  0.55940  1.0000 0.109069607
H   H36       1.0  0.79940  0.55940  0.22250  1.0000 0.109069607
H   H37       1.0  0.94100  0.76020  0.20240  1.0000 0.1037231664
H   H38       1.0  0.76020  0.20240  0.94100  1.0000 0.1037231664
H   H39       1.0  0.20240  0.94100  0.76020  1.0000 0.1037231664
H   H40       1.0  0.05900  0.23980  0.79760  1.0000 0.1037231664
H   H41       1.0  0.23980  0.79760  0.05900  1.0000 0.1037231664
H   H42       1.0  0.79760  0.05900  0.23980  1.0000 0.1037231664
H   H43       1.0  0.87920  0.80030  0.09720  1.0000 0.1328833216
H   H44       1.0  0.80030  0.09720  0.87920  1.0000 0.1328833216
H   H45       1.0  0.09720  0.87920  0.80030  1.0000 0.1328833216
H   H46       1.0  0.12080  0.19970  0.90280  1.0000 0.1328833216
H   H47       1.0  0.19970  0.90280  0.12080  1.0000 0.1328833216
H   H48       1.0  0.90280  0.12080  0.19970  1.0000 0.1328833216
H   H49       1.0  0.89900  0.95270  0.17490  1.0000 0.1171223441
H   H50       1.0  0.95270  0.17490  0.89900  1.0000 0.1171223441
H   H51       1.0  0.17490  0.89900  0.95270  1.0000 0.1171223441
H   H52       1.0  0.10100  0.04730  0.82510  1.0000 0.1171223441
H   H53       1.0  0.04730  0.82510  0.10100  1.0000 0.1171223441
H   H54       1.0  0.82510  0.10100  0.04730  1.0000 0.1171223441
H   H55       1.0  0.98650  0.06610  0.35560  1.0000 0.1404245956
H   H56       1.0  0.06610  0.35560  0.98650  1.0000 0.1404245956
H   H57       1.0  0.35560  0.98650  0.06610  1.0000 0.1404245956
H   H58       1.0  0.01350  0.93390  0.64440  1.0000 0.1404245956
H   H59       1.0  0.93390  0.64440  0.01350  1.0000 0.1404245956
H   H60       1.0  0.64440  0.01350  0.93390  1.0000 0.1404245956
H   H61       1.0  0.06070  0.02830  0.46290  1.0000 0.1171223441
H   H62       1.0  0.02830  0.46290  0.06070  1.0000 0.1171223441
H   H63       1.0  0.46290  0.06070  0.02830  1.0000 0.1171223441
H   H64       1.0  0.93930  0.97170  0.53710  1.0000 0.1171223441
H   H65       1.0  0.97170  0.53710  0.93930  1.0000 0.1171223441
H   H66       1.0  0.53710  0.93930  0.97170  1.0000 0.1171223441
C   C1        1.0  0.17080  0.79330  0.33220  1.0000 0.1037231664
C   C2        1.0  0.79330  0.33220  0.17080  1.0000 0.1037231664
C   C3        1.0  0.33220  0.17080  0.79330  1.0000 0.1037231664
C   C4        1.0  0.82920  0.20670  0.66780  1.0000 0.1037231664
C   C5        1.0  0.20670  0.66780  0.82920  1.0000 0.1037231664
C   C6        1.0  0.66780  0.82920  0.20670  1.0000 0.1037231664
C   C7        1.0  0.22990  0.80050  0.30160  1.0000 -0.1806039759
C   C8        1.0  0.80050  0.30160  0.22990  1.0000 -0.1806039759
C   C9        1.0  0.30160  0.22990  0.80050  1.0000 -0.1806039759
C   C10       1.0  0.77010  0.19950  0.69840  1.0000 -0.1806039759
C   C11       1.0  0.19950  0.69840  0.77010  1.0000 -0.1806039759
C   C12       1.0  0.69840  0.77010  0.19950  1.0000 -0.1806039759
C   C13       1.0  0.32860  0.90390  0.36050  1.0000 0.1037231664
C   C14       1.0  0.90390  0.36050  0.32860  1.0000 0.1037231664
C   C15       1.0  0.36050  0.32860  0.90390  1.0000 0.1037231664
C   C16       1.0  0.67140  0.09610  0.63950  1.0000 0.1037231664
C   C17       1.0  0.09610  0.63950  0.67140  1.0000 0.1037231664
C   C18       1.0  0.63950  0.67140  0.09610  1.0000 0.1037231664
C   C19       1.0  0.36220  0.99200  0.44910  1.0000 -0.1806039759
C   C20       1.0  0.99200  0.44910  0.36220  1.0000 -0.1806039759
C   C21       1.0  0.44910  0.36220  0.99200  1.0000 -0.1806039759
C   C22       1.0  0.63780  0.00800  0.55090  1.0000 -0.1806039759
C   C23       1.0  0.00800  0.55090  0.63780  1.0000 -0.1806039759
C   C24       1.0  0.55090  0.63780  0.00800  1.0000 -0.1806039759
C   C25       1.0  0.29830  0.97780  0.47680  1.0000 0.109069607
C   C26       1.0  0.97780  0.47680  0.29830  1.0000 0.109069607
C   C27       1.0  0.47680  0.29830  0.97780  1.0000 0.109069607
C   C28       1.0  0.70170  0.02220  0.52320  1.0000 0.109069607
C   C29       1.0  0.02220  0.52320  0.70170  1.0000 0.109069607
C   C30       1.0  0.52320  0.70170  0.02220  1.0000 0.109069607
C   C31       1.0  0.06020  0.68370  0.26530  1.0000 0.5176259466
C   C32       1.0  0.68370  0.26530  0.06020  1.0000 0.5176259466
C   C33       1.0  0.26530  0.06020  0.68370  1.0000 0.5176259466
C   C34       1.0  0.93980  0.31630  0.73470  1.0000 0.5176259466
C   C35       1.0  0.31630  0.73470  0.93980  1.0000 0.5176259466
C   C36       1.0  0.73470  0.93980  0.31630  1.0000 0.5176259466
C   C37       1.0  0.48850  0.99840  0.28250  1.0000 0.0509292335
C   C38       1.0  0.99840  0.28250  0.48850  1.0000 0.0509292335
C   C39       1.0  0.28250  0.48850  0.99840  1.0000 0.0509292335
C   C40       1.0  0.51150  0.00160  0.71750  1.0000 0.0509292335
C   C41       1.0  0.00160  0.71750  0.51150  1.0000 0.0509292335
C   C42       1.0  0.71750  0.51150  0.00160  1.0000 0.0509292335
C   C43       1.0  0.44160  0.99810  0.32670  1.0000 -0.1908323689
C   C44       1.0  0.99810  0.32670  0.44160  1.0000 -0.1908323689
C   C45       1.0  0.32670  0.44160  0.99810  1.0000 -0.1908323689
C   C46       1.0  0.55840  0.00190  0.67330  1.0000 -0.1908323689
C   C47       1.0  0.00190  0.67330  0.55840  1.0000 -0.1908323689
C   C48       1.0  0.67330  0.55840  0.00190  1.0000 -0.1908323689
C   C49       1.0  0.38940  0.91210  0.32270  1.0000 0.0912339651
C   C50       1.0  0.91210  0.32270  0.38940  1.0000 0.0912339651
C   C51       1.0  0.32270  0.38940  0.91210  1.0000 0.0912339651
C   C52       1.0  0.61060  0.08790  0.67730  1.0000 0.0912339651
C   C53       1.0  0.08790  0.67730  0.61060  1.0000 0.0912339651
C   C54       1.0  0.67730  0.61060  0.08790  1.0000 0.0912339651
C   C55       1.0  0.39180  0.83030  0.27700  1.0000 -0.1908323689
C   C56       1.0  0.83030  0.27700  0.39180  1.0000 -0.1908323689
C   C57       1.0  0.27700  0.39180  0.83030  1.0000 -0.1908323689
C   C58       1.0  0.60820  0.16970  0.72300  1.0000 -0.1908323689
C   C59       1.0  0.16970  0.72300  0.60820  1.0000 -0.1908323689
C   C60       1.0  0.72300  0.60820  0.16970  1.0000 -0.1908323689
C   C61       1.0  0.44090  0.83350  0.23250  1.0000 0.109069607
C   C62       1.0  0.83350  0.23250  0.44090  1.0000 0.109069607
C   C63       1.0  0.23250  0.44090  0.83350  1.0000 0.109069607
C   C64       1.0  0.55910  0.16650  0.76750  1.0000 0.109069607
C   C65       1.0  0.16650  0.76750  0.55910  1.0000 0.109069607
C   C66       1.0  0.76750  0.55910  0.16650  1.0000 0.109069607
C   C67       1.0  0.54110  0.08330  0.27910  1.0000 0.5176259466
C   C68       1.0  0.08330  0.27910  0.54110  1.0000 0.5176259466
C   C69       1.0  0.27910  0.54110  0.08330  1.0000 0.5176259466
C   C70       1.0  0.45890  0.91670  0.72090  1.0000 0.5176259466
C   C71       1.0  0.91670  0.72090  0.45890  1.0000 0.5176259466
C   C72       1.0  0.72090  0.45890  0.91670  1.0000 0.5176259466
C   C73       1.0  0.95290  0.82430  0.23560  1.0000 0.0603478217
C   C74       1.0  0.82430  0.23560  0.95290  1.0000 0.0603478217
C   C75       1.0  0.23560  0.95290  0.82430  1.0000 0.0603478217
C   C76       1.0  0.04710  0.17570  0.76440  1.0000 0.0603478217
C   C77       1.0  0.17570  0.76440  0.04710  1.0000 0.0603478217
C   C78       1.0  0.76440  0.04710  0.17570  1.0000 0.0603478217
C   C79       1.0  0.91370  0.84680  0.17100  1.0000 -0.1662320357
C   C80       1.0  0.84680  0.17100  0.91370  1.0000 -0.1662320357
C   C81       1.0  0.17100  0.91370  0.84680  1.0000 -0.1662320357
C   C82       1.0  0.08630  0.15320  0.82900  1.0000 -0.1662320357
C   C83       1.0  0.15320  0.82900  0.08630  1.0000 -0.1662320357
C   C84       1.0  0.82900  0.08630  0.15320  1.0000 -0.1662320357
C   C85       1.0  0.92650  0.93740  0.21730  1.0000 -0.0544484489
C   C86       1.0  0.93740  0.21730  0.92650  1.0000 -0.0544484489
C   C87       1.0  0.21730  0.92650  0.93740  1.0000 -0.0544484489
C   C88       1.0  0.07350  0.06260  0.78270  1.0000 -0.0544484489
C   C89       1.0  0.06260  0.78270  0.07350  1.0000 -0.05529676
C   C90       1.0  0.78270  0.07350  0.06260  1.0000 -0.05529676
C   C91       1.0  0.97830  0.00420  0.32340  1.0000 -0.1328014693
C   C92       1.0  0.00420  0.32340  0.97830  1.0000 -0.1328014693
C   C93       1.0  0.32340  0.97830  0.00420  1.0000 -0.1328014693
C   C94       1.0  0.02170  0.99580  0.67660  1.0000 -0.1328014693
C   C95       1.0  0.99580  0.67660  0.02170  1.0000 -0.1328014693
C   C96       1.0  0.67660  0.02170  0.99580  1.0000 -0.1328014693
C   C97       1.0  0.02160  0.97990  0.38780  1.0000 0.109069607
C   C98       1.0  0.97990  0.38780  0.02160  1.0000 0.109069607
C   C99       1.0  0.38780  0.02160  0.97990  1.0000 0.109069607
C   C100      1.0  0.97840  0.02010  0.61220  1.0000 0.109069607
C   C101      1.0  0.02010  0.61220  0.97840  1.0000 0.109069607
C   C102      1.0  0.61220  0.97840  0.02010  1.0000 0.109069607
N   N1        1.0  0.20490  0.88140  0.41970  1.0000 -0.2448590807
N   N2        1.0  0.88140  0.41970  0.20490  1.0000 -0.2448590807
N   N3        1.0  0.41970  0.20490  0.88140  1.0000 -0.2448590807
N   N4        1.0  0.79510  0.11860  0.58030  1.0000 -0.2448590807
N   N5        1.0  0.11860  0.58030  0.79510  1.0000 -0.2448590807
N   N6        1.0  0.58030  0.79510  0.11860  1.0000 -0.2448590807
N   N7        1.0  0.48840  0.91600  0.23510  1.0000 -0.2563912582
N   N8        1.0  0.91600  0.23510  0.48840  1.0000 -0.2563912582
N   N9        1.0  0.23510  0.48840  0.91600  1.0000 -0.2563912582
N   N10       1.0  0.51160  0.08400  0.76490  1.0000 -0.2563912582
N   N11       1.0  0.08400  0.76490  0.51160  1.0000 -0.2563912582
N   N12       1.0  0.76490  0.51160  0.08400  1.0000 -0.2563912582
N   N13       1.0  0.00660  0.88970  0.34210  1.0000 -0.225784447
N   N14       1.0  0.88970  0.34210  0.00660  1.0000 -0.225784447
N   N15       1.0  0.34210  0.00660  0.88970  1.0000 -0.225784447
N   N16       1.0  0.99340  0.11030  0.65790  1.0000 -0.225784447
N   N17       1.0  0.11030  0.65790  0.99340  1.0000 -0.225784447
N   N18       1.0  0.65790  0.99340  0.11030  1.0000 -0.225784447
O   O1        1.0  0.00390  0.68340  0.29070  1.0000 -0.5576360486
O   O2        1.0  0.68340  0.29070  0.00390  1.0000 -0.5576360486
O   O3        1.0  0.29070  0.00390  0.68340  1.0000 -0.5576360486
O   O4        1.0  0.99610  0.31660  0.70930  1.0000 -0.5576360486
O   O5        1.0  0.31660  0.70930  0.99610  1.0000 -0.5576360486
O   O6        1.0  0.70930  0.99610  0.31660  1.0000 -0.5576360486
O   O7        1.0  0.03010  0.59880  0.18680  1.0000 -0.5330444834
O   O8        1.0  0.59880  0.18680  0.03010  1.0000 -0.5330444834
O   O9        1.0  0.18680  0.03010  0.59880  1.0000 -0.5330444834
O   O10       1.0  0.96990  0.40120  0.81320  1.0000 -0.5330444834
O   O11       1.0  0.40120  0.81320  0.96990  1.0000 -0.5330444834
O   O12       1.0  0.81320  0.96990  0.40120  1.0000 -0.5330444834
O   O13       1.0  0.56770  0.06920  0.22310  1.0000 -0.5479799074
O   O14       1.0  0.06920  0.22310  0.56770  1.0000 -0.5479799074
O   O15       1.0  0.22310  0.56770  0.06920  1.0000 -0.5479799074
O   O16       1.0  0.43230  0.93080  0.77690  1.0000 -0.5479799074
O   O17       1.0  0.93080  0.77690  0.43230  1.0000 -0.5479799074
O   O18       1.0  0.77690  0.43230  0.93080  1.0000 -0.5479799074
O   O19       1.0  0.55080  0.16380  0.32960  1.0000 -0.5175545674
O   O20       1.0  0.16380  0.32960  0.55080  1.0000 -0.5175545674
O   O21       1.0  0.32960  0.55080  0.16380  1.0000 -0.5175545674
O   O22       1.0  0.44920  0.83620  0.67040  1.0000 -0.5175545674
O   O23       1.0  0.83620  0.67040  0.44920  1.0000 -0.5175545674
O   O24       1.0  0.67040  0.44920  0.83620  1.0000 -0.5175545674
