# DDEC6 charges by PACMAN v1.1 (https://github.com/mtap-research/PACMAN-charge/)
data_2012[Zn][nan]3[ASR]29
_chemical_formula_sum              "Zn12 H24 C72 O48"
_cell_length_a       12.906
_cell_length_b       12.606
_cell_length_c       29.9802
_cell_angle_alpha    90
_cell_angle_beta     112.492
_cell_angle_gamma    90

_symmetry_space_group_name_H-M    "P 1"
_symmetry_Int_Tables_number       1

loop_
  _symmetry_equiv_pos_as_xyz
  'x, y, z'

loop_
  _atom_site_type_symbol
  _atom_site_label
  _atom_site_symmetry_multiplicity
  _atom_site_fract_x
  _atom_site_fract_y
  _atom_site_fract_z
  _atom_site_occupancy
  _atom_site_charge
Zn  Zn1       1.0  0.96805  0.04485  0.86567  1.0000 0.9396604703
Zn  Zn2       1.0  0.03195  0.54485  0.63433  1.0000 0.9396604703
Zn  Zn3       1.0  0.03195  0.95515  0.13433  1.0000 0.9396604703
Zn  Zn4       1.0  0.96805  0.45515  0.36567  1.0000 0.9396604703
Zn  Zn5       1.0  0.74837  0.20078  0.79019  1.0000 0.9901115403
Zn  Zn6       1.0  0.25163  0.70078  0.70981  1.0000 0.9901115403
Zn  Zn7       1.0  0.25163  0.79922  0.20981  1.0000 0.9901115403
Zn  Zn8       1.0  0.74837  0.29922  0.29019  1.0000 0.9901115403
Zn  Zn9       1.0  0.54578  0.57721  0.97392  1.0000 0.9396604703
Zn  Zn10      1.0  0.45422  0.07721  0.52608  1.0000 0.9396604703
Zn  Zn11      1.0  0.45422  0.42279  0.02608  1.0000 0.9396604703
Zn  Zn12      1.0  0.54578  0.92279  0.47392  1.0000 0.9396604703
H   H1        1.0  0.19500  0.30840  0.89850  1.0000 0.1354221509
H   H2        1.0  0.80500  0.80840  0.60150  1.0000 0.1354221509
H   H3        1.0  0.80500  0.69160  0.10150  1.0000 0.1354221509
H   H4        1.0  0.19500  0.19160  0.39850  1.0000 0.1354221509
H   H5        1.0  0.30120  0.52800  0.82700  1.0000 0.1284249403
H   H6        1.0  0.69880  0.02800  0.67300  1.0000 0.1284249403
H   H7        1.0  0.69880  0.47200  0.17300  1.0000 0.1284249403
H   H8        1.0  0.30120  0.97200  0.32700  1.0000 0.1284249403
H   H9        1.0  0.01320  0.36760  0.75730  1.0000 0.1284249403
H   H10       1.0  0.98680  0.86760  0.74270  1.0000 0.1284249403
H   H11       1.0  0.98680  0.63240  0.24270  1.0000 0.1284249403
H   H12       1.0  0.01320  0.13240  0.25730  1.0000 0.1284249403
H   H13       1.0  0.12090  0.95150  0.03360  1.0000 0.1284249403
H   H14       1.0  0.87910  0.45150  0.46640  1.0000 0.1284249403
H   H15       1.0  0.87910  0.04850  0.96640  1.0000 0.1284249403
H   H16       1.0  0.12090  0.54850  0.53360  1.0000 0.1284249403
H   H17       1.0  0.31650  0.69190  0.08320  1.0000 0.1284249403
H   H18       1.0  0.68350  0.19190  0.41680  1.0000 0.1284249403
H   H19       1.0  0.68350  0.30810  0.91680  1.0000 0.1284249403
H   H20       1.0  0.31650  0.80810  0.58320  1.0000 0.1284249403
H   H21       1.0  0.24300  0.79840  0.94640  1.0000 0.1284249403
H   H22       1.0  0.75700  0.29840  0.55360  1.0000 0.1284249403
H   H23       1.0  0.75700  0.20160  0.05360  1.0000 0.1284249403
H   H24       1.0  0.24300  0.70160  0.44640  1.0000 0.1284249403
C   C1        1.0  0.09064  0.32610  0.82764  1.0000 -0.045529288
C   C2        1.0  0.90936  0.82610  0.67236  1.0000 -0.0433235982
C   C3        1.0  0.90936  0.67390  0.17236  1.0000 -0.0433235982
C   C4        1.0  0.09064  0.17390  0.32764  1.0000 -0.045529288
C   C5        1.0  0.18452  0.34660  0.86982  1.0000 -0.0807103465
C   C6        1.0  0.81548  0.84660  0.63018  1.0000 -0.0807103465
C   C7        1.0  0.81548  0.65340  0.13018  1.0000 -0.0807103465
C   C8        1.0  0.18452  0.15340  0.36982  1.0000 -0.0807103465
C   C9        1.0  0.26216  0.42270  0.86986  1.0000 -0.0344861473
C   C10       1.0  0.73784  0.92270  0.63014  1.0000 -0.0344861473
C   C11       1.0  0.73784  0.57730  0.13014  1.0000 -0.0344861473
C   C12       1.0  0.26216  0.07730  0.36986  1.0000 -0.0344861473
C   C13       1.0  0.24842  0.47560  0.82712  1.0000 -0.0901803046
C   C14       1.0  0.75158  0.97560  0.67288  1.0000 -0.0901803046
C   C15       1.0  0.75158  0.52440  0.17288  1.0000 -0.0901803046
C   C16       1.0  0.24842  0.02440  0.32712  1.0000 -0.0901803046
C   C17       1.0  0.15843  0.45220  0.78483  1.0000 -0.0433235982
C   C18       1.0  0.84157  0.95220  0.71517  1.0000 -0.0433235982
C   C19       1.0  0.84157  0.54780  0.21517  1.0000 -0.0433235982
C   C20       1.0  0.15843  0.04780  0.28483  1.0000 -0.0433235982
C   C21       1.0  0.07775  0.37990  0.78575  1.0000 -0.0901803046
C   C22       1.0  0.92225  0.87990  0.71425  1.0000 -0.0901803046
C   C23       1.0  0.92225  0.62010  0.21425  1.0000 -0.0901803046
C   C24       1.0  0.07775  0.12010  0.28575  1.0000 -0.0901803046
C   C25       1.0  0.00443  0.24970  0.82903  1.0000 0.5985394821
C   C26       1.0  0.99557  0.74970  0.67097  1.0000 0.5985394821
C   C27       1.0  0.99557  0.75030  0.17097  1.0000 0.5985394821
C   C28       1.0  0.00443  0.25030  0.32903  1.0000 0.5985394821
C   C29       1.0  0.35663  0.45110  0.91593  1.0000 0.5922233568
C   C30       1.0  0.64337  0.95110  0.58407  1.0000 0.5922233568
C   C31       1.0  0.64337  0.54890  0.08407  1.0000 0.5922233568
C   C32       1.0  0.35663  0.04890  0.41593  1.0000 0.5922233568
C   C33       1.0  0.14887  0.50940  0.73947  1.0000 0.6062501476
C   C34       1.0  0.85113  0.00940  0.76053  1.0000 0.6062501476
C   C35       1.0  0.85113  0.49060  0.26053  1.0000 0.6062501476
C   C36       1.0  0.14887  0.99060  0.23947  1.0000 0.6062501476
C   C37       1.0  0.16836  0.88200  0.98356  1.0000 -0.0137978158
C   C38       1.0  0.83164  0.38200  0.51644  1.0000 -0.0137978158
C   C39       1.0  0.83164  0.11800  0.01644  1.0000 -0.0137978158
C   C40       1.0  0.16836  0.61800  0.48356  1.0000 -0.0137978158
C   C41       1.0  0.16313  0.89460  0.02833  1.0000 -0.0901803046
C   C42       1.0  0.83687  0.39460  0.47167  1.0000 -0.0901803046
C   C43       1.0  0.83687  0.10540  0.97167  1.0000 -0.0901803046
C   C44       1.0  0.16313  0.60540  0.52833  1.0000 -0.0901803046
C   C45       1.0  0.21892  0.82490  0.06582  1.0000 -0.0171492163
C   C46       1.0  0.78108  0.32490  0.43418  1.0000 -0.0171492163
C   C47       1.0  0.78108  0.17510  0.93418  1.0000 -0.0137978158
C   C48       1.0  0.21892  0.67510  0.56582  1.0000 -0.0171492163
C   C49       1.0  0.28141  0.74180  0.05821  1.0000 -0.1069074838
C   C50       1.0  0.71859  0.24180  0.44179  1.0000 -0.1069074838
C   C51       1.0  0.71859  0.25820  0.94179  1.0000 -0.1069074838
C   C52       1.0  0.28141  0.75820  0.55821  1.0000 -0.1069074838
C   C53       1.0  0.29252  0.73170  0.01362  1.0000 -0.0171492163
C   C54       1.0  0.70748  0.23170  0.48638  1.0000 -0.0171492163
C   C55       1.0  0.70748  0.26830  0.98638  1.0000 -0.0171492163
C   C56       1.0  0.29252  0.76830  0.51362  1.0000 -0.0171492163
C   C57       1.0  0.23538  0.80370  0.97658  1.0000 -0.1069074838
C   C58       1.0  0.76462  0.30370  0.52342  1.0000 -0.1069074838
C   C59       1.0  0.76462  0.19630  0.02342  1.0000 -0.1069074838
C   C60       1.0  0.23538  0.69630  0.47658  1.0000 -0.1069074838
C   C61       1.0  0.10060  0.95510  0.94370  1.0000 0.5453060971
C   C62       1.0  0.89940  0.45510  0.55630  1.0000 0.5453060971
C   C63       1.0  0.89940  0.04490  0.05630  1.0000 0.5453060971
C   C64       1.0  0.10060  0.54490  0.44370  1.0000 0.5453060971
C   C65       1.0  0.21007  0.83910  0.11437  1.0000 0.5985394821
C   C66       1.0  0.78993  0.33910  0.38563  1.0000 0.5985394821
C   C67       1.0  0.78993  0.16090  0.88563  1.0000 0.5985394821
C   C68       1.0  0.21007  0.66090  0.61437  1.0000 0.5985394821
C   C69       1.0  0.36715  0.64550  0.00695  1.0000 0.5849403248
C   C70       1.0  0.63285  0.14550  0.49305  1.0000 0.5849403248
C   C71       1.0  0.63285  0.35450  0.99305  1.0000 0.5849403248
C   C72       1.0  0.36715  0.85450  0.50695  1.0000 0.5849403248
O   O1        1.0  0.90646  0.25970  0.79946  1.0000 -0.5408934895
O   O2        1.0  0.09354  0.75970  0.70054  1.0000 -0.5408934895
O   O3        1.0  0.09354  0.74030  0.20054  1.0000 -0.5408934895
O   O4        1.0  0.90646  0.24030  0.29946  1.0000 -0.5408934895
O   O5        1.0  0.03925  0.17850  0.86155  1.0000 -0.5408934895
O   O6        1.0  0.96075  0.67850  0.63845  1.0000 -0.5408934895
O   O7        1.0  0.96075  0.82150  0.13845  1.0000 -0.5408934895
O   O8        1.0  0.03925  0.32150  0.36155  1.0000 -0.5408934895
O   O9        1.0  0.42477  0.52100  0.91357  1.0000 -0.5305700197
O   O10       1.0  0.57523  0.02100  0.58643  1.0000 -0.5305700197
O   O11       1.0  0.57523  0.47900  0.08643  1.0000 -0.5305700197
O   O12       1.0  0.42477  0.97900  0.41357  1.0000 -0.5305700197
O   O13       1.0  0.36082  0.40590  0.95382  1.0000 -0.5540755286
O   O14       1.0  0.63918  0.90590  0.54618  1.0000 -0.5540755286
O   O15       1.0  0.63918  0.59410  0.04618  1.0000 -0.5540755286
O   O16       1.0  0.36082  0.09410  0.45382  1.0000 -0.5540755286
O   O17       1.0  0.07216  0.48280  0.70056  1.0000 -0.5305700197
O   O18       1.0  0.92784  0.98280  0.79944  1.0000 -0.5305700197
O   O19       1.0  0.92784  0.51720  0.29944  1.0000 -0.5305700197
O   O20       1.0  0.07216  0.01720  0.20056  1.0000 -0.5305700197
O   O21       1.0  0.21805  0.58090  0.74485  1.0000 -0.5627163842
O   O22       1.0  0.78195  0.08090  0.75515  1.0000 -0.5627163842
O   O23       1.0  0.78195  0.41910  0.25515  1.0000 -0.5627163842
O   O24       1.0  0.21805  0.91910  0.24485  1.0000 -0.5627163842
O   O25       1.0  0.07043  0.04410  0.95393  1.0000 -0.5021393194
O   O26       1.0  0.92957  0.54410  0.54607  1.0000 -0.5021393194
O   O27       1.0  0.92957  0.95590  0.04607  1.0000 -0.5021393194
O   O28       1.0  0.07043  0.45590  0.45393  1.0000 -0.5021393194
O   O29       1.0  0.06915  0.92580  0.90135  1.0000 -0.4936532273
O   O30       1.0  0.93085  0.42580  0.59865  1.0000 -0.4936532273
O   O31       1.0  0.93085  0.07420  0.09865  1.0000 -0.4936532273
O   O32       1.0  0.06915  0.57420  0.40135  1.0000 -0.4936532273
O   O33       1.0  0.24619  0.76630  0.14459  1.0000 -0.5408934895
O   O34       1.0  0.75381  0.26630  0.35541  1.0000 -0.5408934895
O   O35       1.0  0.75381  0.23370  0.85541  1.0000 -0.5408934895
O   O36       1.0  0.24619  0.73370  0.64459  1.0000 -0.5408934895
O   O37       1.0  0.16871  0.92510  0.12241  1.0000 -0.5882773294
O   O38       1.0  0.83129  0.42510  0.37759  1.0000 -0.5882773294
O   O39       1.0  0.83129  0.07490  0.87759  1.0000 -0.5882773294
O   O40       1.0  0.16871  0.57490  0.62241  1.0000 -0.5882773294
O   O41       1.0  0.42344  0.67140  0.98274  1.0000 -0.5305700197
O   O42       1.0  0.57656  0.17140  0.51726  1.0000 -0.5305700197
O   O43       1.0  0.57656  0.32860  0.01726  1.0000 -0.5305700197
O   O44       1.0  0.42344  0.82860  0.48274  1.0000 -0.5305700197
O   O45       1.0  0.36581  0.55920  0.02601  1.0000 -0.5229650929
O   O46       1.0  0.63419  0.05920  0.47399  1.0000 -0.5229650929
O   O47       1.0  0.63419  0.44080  0.97399  1.0000 -0.5229650929
O   O48       1.0  0.36581  0.94080  0.52601  1.0000 -0.5229650929
