# DDEC6 charges by PACMAN v1.1 (https://github.com/mtap-research/PACMAN-charge/)
data_2012[Cd][cds]3[ASR]1
_chemical_formula_sum              "Cd4 H40 C40 N8 O16"
_cell_length_a       8.395
_cell_length_b       9.562
_cell_length_c       16.475
_cell_angle_alpha    90
_cell_angle_beta     90
_cell_angle_gamma    90

_symmetry_space_group_name_H-M    "P 1"
_symmetry_Int_Tables_number       1

loop_
  _symmetry_equiv_pos_as_xyz
  'x, y, z'

loop_
  _atom_site_type_symbol
  _atom_site_label
  _atom_site_symmetry_multiplicity
  _atom_site_fract_x
  _atom_site_fract_y
  _atom_site_fract_z
  _atom_site_occupancy
  _atom_site_charge
Cd  Cd1       1.0  0.38549  0.39548  0.06141  1.0000 0.8709817751
Cd  Cd2       1.0  0.11451  0.89548  0.56141  1.0000 0.8709817751
Cd  Cd3       1.0  0.88549  0.10451  0.06141  1.0000 0.8709817751
Cd  Cd4       1.0  0.61451  0.60452  0.56141  1.0000 0.8709817751
H   H1        1.0  0.35200  0.22940  0.46800  1.0000 0.1125217079
H   H2        1.0  0.14800  0.72940  0.96800  1.0000 0.1125217079
H   H3        1.0  0.85200  0.27059  0.46800  1.0000 0.1125217079
H   H4        1.0  0.64800  0.77060  0.96800  1.0000 0.1125217079
H   H5        1.0  0.42010  0.12370  0.53480  1.0000 0.1392705365
H   H6        1.0  0.07990  0.62370  0.03480  1.0000 0.1392705365
H   H7        1.0  0.92010  0.37629  0.53480  1.0000 0.1392705365
H   H8        1.0  0.57990  0.87630  0.03480  1.0000 0.1392705365
H   H9        1.0  0.47760  0.01021  0.40610  1.0000 0.1314771398
H   H10       1.0  0.02240  0.51021  0.90610  1.0000 0.1314771398
H   H11       1.0  0.97760  0.48979  0.40610  1.0000 0.1314771398
H   H12       1.0  0.52240  0.98979  0.90610  1.0000 0.1314771398
H   H13       1.0  0.35350  0.89070  0.38110  1.0000 0.1392705365
H   H14       1.0  0.14650  0.39070  0.88110  1.0000 0.1392705365
H   H15       1.0  0.85350  0.60929  0.38110  1.0000 0.1392705365
H   H16       1.0  0.64650  0.10930  0.88110  1.0000 0.1392705365
H   H17       1.0  0.06820  0.13820  0.41670  1.0000 0.1211625188
H   H18       1.0  0.43180  0.63821  0.91670  1.0000 0.1211625188
H   H19       1.0  0.56820  0.36179  0.41670  1.0000 0.1211625188
H   H20       1.0  0.93180  0.86179  0.91670  1.0000 0.1211625188
H   H21       1.0  0.09610  0.99220  0.37200  1.0000 0.1314771398
H   H22       1.0  0.40390  0.49221  0.87200  1.0000 0.1314771398
H   H23       1.0  0.59610  0.50779  0.37200  1.0000 0.1314771398
H   H24       1.0  0.90390  0.00779  0.87200  1.0000 0.1314771398
H   H25       1.0  0.37900  0.09720  0.14310  1.0000 0.1211625188
H   H26       1.0  0.12100  0.59720  0.64310  1.0000 0.1211625188
H   H27       1.0  0.87900  0.40279  0.14310  1.0000 0.1211625188
H   H28       1.0  0.62100  0.90279  0.64310  1.0000 0.1211625188
H   H29       1.0  0.27010  0.97901  0.25300  1.0000 0.148897007
H   H30       1.0  0.22990  0.47901  0.75300  1.0000 0.148897007
H   H31       1.0  0.77010  0.52099  0.25300  1.0000 0.148897007
H   H32       1.0  0.72990  0.02099  0.75300  1.0000 0.148897007
H   H33       1.0  0.20960  0.35241  0.36420  1.0000 0.1392705365
H   H34       1.0  0.29040  0.85240  0.86420  1.0000 0.1392705365
H   H35       1.0  0.70960  0.14760  0.36420  1.0000 0.1392705365
H   H36       1.0  0.79040  0.64760  0.86420  1.0000 0.1392705365
H   H37       1.0  0.31150  0.46000  0.24910  1.0000 0.1125217079
H   H38       1.0  0.18850  0.96000  0.74910  1.0000 0.1125217079
H   H39       1.0  0.81150  0.04000  0.24910  1.0000 0.1125217079
H   H40       1.0  0.68850  0.54000  0.74910  1.0000 0.1125217079
C   C1        1.0  0.32240  0.15301  0.50570  1.0000 -0.29257489
C   C2        1.0  0.17760  0.65300  0.00570  1.0000 -0.29257489
C   C3        1.0  0.82240  0.34699  0.50570  1.0000 -0.29257489
C   C4        1.0  0.67760  0.84700  0.00570  1.0000 -0.29257489
C   C5        1.0  0.20240  0.20835  0.56700  1.0000 0.6057558878
C   C6        1.0  0.29760  0.70834  0.06700  1.0000 0.6057558878
C   C7        1.0  0.70240  0.29165  0.56700  1.0000 0.6057558878
C   C8        1.0  0.79760  0.79165  0.06700  1.0000 0.6057558878
C   C9        1.0  0.39260  0.94800  0.42697  1.0000 -0.2731835918
C   C10       1.0  0.10740  0.44800  0.92697  1.0000 -0.2731835918
C   C11       1.0  0.89260  0.55200  0.42697  1.0000 -0.2731835918
C   C12       1.0  0.60740  0.05199  0.92697  1.0000 -0.2731835918
C   C13       1.0  0.46240  0.85190  0.49152  1.0000 0.6040403469
C   C14       1.0  0.03760  0.35191  0.99152  1.0000 0.6040403469
C   C15       1.0  0.96240  0.64809  0.49152  1.0000 0.6040403469
C   C16       1.0  0.53760  0.14810  0.99152  1.0000 0.6040403469
C   C17       1.0  0.15070  0.07680  0.39268  1.0000 -0.2100411804
C   C18       1.0  0.34930  0.57681  0.89268  1.0000 -0.2100411804
C   C19       1.0  0.65070  0.42319  0.39268  1.0000 -0.2100411804
C   C20       1.0  0.84930  0.92319  0.89268  1.0000 -0.2100411804
C   C21       1.0  0.34170  0.14971  0.18820  1.0000 0.0946520827
C   C22       1.0  0.15830  0.64970  0.68820  1.0000 0.0946520827
C   C23       1.0  0.84170  0.35030  0.18820  1.0000 0.0946520827
C   C24       1.0  0.65830  0.85030  0.68820  1.0000 0.0946520827
C   C25       1.0  0.27770  0.07810  0.25386  1.0000 -0.2009939627
C   C26       1.0  0.22230  0.57810  0.75386  1.0000 -0.2009939627
C   C27       1.0  0.77770  0.42190  0.25386  1.0000 -0.2009939627
C   C28       1.0  0.72230  0.92190  0.75386  1.0000 -0.2009939627
C   C29       1.0  0.22510  0.15301  0.32082  1.0000 0.148897007
C   C30       1.0  0.27490  0.65300  0.82082  1.0000 0.148897007
C   C31       1.0  0.72510  0.34699  0.32082  1.0000 0.148897007
C   C32       1.0  0.77490  0.84700  0.82082  1.0000 0.148897007
C   C33       1.0  0.24110  0.29740  0.31889  1.0000 -0.2100411804
C   C34       1.0  0.25890  0.79741  0.81889  1.0000 -0.2100411804
C   C35       1.0  0.74110  0.20259  0.31889  1.0000 -0.2100411804
C   C36       1.0  0.75890  0.70259  0.81889  1.0000 -0.2100411804
C   C37       1.0  0.30370  0.36090  0.25006  1.0000 0.0769044905
C   C38       1.0  0.19630  0.86090  0.75006  1.0000 0.0769044905
C   C39       1.0  0.80370  0.13909  0.25006  1.0000 0.0769044905
C   C40       1.0  0.69630  0.63909  0.75006  1.0000 0.0769044905
N   N1        1.0  0.26140  0.03367  0.45818  1.0000 -0.0348065208
N   N2        1.0  0.23860  0.53367  0.95818  1.0000 -0.0348065208
N   N3        1.0  0.76140  0.46632  0.45818  1.0000 -0.0348065208
N   N4        1.0  0.73860  0.96632  0.95818  1.0000 -0.0348065208
N   N5        1.0  0.35320  0.28951  0.18538  1.0000 -0.2373486907
N   N6        1.0  0.14680  0.78951  0.68538  1.0000 -0.2373486907
N   N7        1.0  0.85320  0.21049  0.18538  1.0000 -0.2373486907
N   N8        1.0  0.64680  0.71049  0.68538  1.0000 -0.2373486907
O   O1        1.0  0.11500  0.12039  0.60359  1.0000 -0.5753890351
O   O2        1.0  0.38500  0.62038  0.10359  1.0000 -0.5753890351
O   O3        1.0  0.61500  0.37961  0.60359  1.0000 -0.5753890351
O   O4        1.0  0.88500  0.87961  0.10359  1.0000 -0.5753890351
O   O5        1.0  0.20000  0.33603  0.58124  1.0000 -0.56689813
O   O6        1.0  0.30000  0.83603  0.08124  1.0000 -0.56689813
O   O7        1.0  0.70000  0.16396  0.58124  1.0000 -0.56689813
O   O8        1.0  0.80000  0.66397  0.08124  1.0000 -0.56689813
O   O9        1.0  0.38818  0.82931  0.55498  1.0000 -0.544122331
O   O10       1.0  0.11182  0.32932  0.05498  1.0000 -0.544122331
O   O11       1.0  0.88818  0.67068  0.55498  1.0000 -0.544122331
O   O12       1.0  0.61182  0.17069  0.05498  1.0000 -0.544122331
O   O13       1.0  0.59494  0.79477  0.47520  1.0000 -0.5528634266
O   O14       1.0  0.90506  0.29476  0.97520  1.0000 -0.5528634266
O   O15       1.0  0.09494  0.70523  0.47520  1.0000 -0.5528634266
O   O16       1.0  0.40506  0.20524  0.97520  1.0000 -0.5528634266
