# DDEC6 charges by PACMAN v1.1 (https://github.com/mtap-research/PACMAN-charge/)
data_2012[Cu][tbo]3[ASR]9
_chemical_formula_sum              "Cu12 H24 C72 O48"
_cell_length_a       18.6582
_cell_length_b       18.6582
_cell_length_c       18.6582
_cell_angle_alpha    60
_cell_angle_beta     60
_cell_angle_gamma    60

_symmetry_space_group_name_H-M    "P 1"
_symmetry_Int_Tables_number       1

loop_
  _symmetry_equiv_pos_as_xyz
  'x, y, z'

loop_
  _atom_site_type_symbol
  _atom_site_label
  _atom_site_symmetry_multiplicity
  _atom_site_fract_x
  _atom_site_fract_y
  _atom_site_fract_z
  _atom_site_occupancy
  _atom_site_charge
Cu  Cu1       1.0  0.00000  0.00000  0.42988  1.0000 0.8535615656
Cu  Cu2       1.0  0.00000  0.42988  0.00000  1.0000 0.8550800336
Cu  Cu3       1.0  0.42988  0.00000  0.00000  1.0000 0.8550800336
Cu  Cu4       1.0  0.00000  0.00000  0.57012  1.0000 0.8535615656
Cu  Cu5       1.0  0.42988  0.00000  0.57012  1.0000 0.8535615656
Cu  Cu6       1.0  0.00000  0.42988  0.57012  1.0000 0.8535615656
Cu  Cu7       1.0  0.57012  0.00000  0.42988  1.0000 0.8535615656
Cu  Cu8       1.0  0.57012  0.00000  0.00000  1.0000 0.8535615656
Cu  Cu9       1.0  0.00000  0.57012  0.42988  1.0000 0.8535615656
Cu  Cu10      1.0  0.42988  0.57012  0.00000  1.0000 0.8535615656
Cu  Cu11      1.0  0.00000  0.57012  0.00000  1.0000 0.8535615656
Cu  Cu12      1.0  0.57012  0.42988  0.00000  1.0000 0.8550800336
H   H1        1.0  0.27030  0.97090  0.48850  1.0000 0.1378627317
H   H2        1.0  0.97090  0.48850  0.27030  1.0000 0.1378627317
H   H3        1.0  0.48850  0.27030  0.97090  1.0000 0.1378627317
H   H4        1.0  0.97090  0.27030  0.27030  1.0000 0.1378627317
H   H5        1.0  0.48850  0.97090  0.27030  1.0000 0.1378627317
H   H6        1.0  0.27030  0.48850  0.27030  1.0000 0.1378627317
H   H7        1.0  0.27030  0.27030  0.48850  1.0000 0.1378627317
H   H8        1.0  0.27030  0.97090  0.27030  1.0000 0.1378627317
H   H9        1.0  0.97090  0.27030  0.48850  1.0000 0.1378627317
H   H10       1.0  0.48850  0.27030  0.27030  1.0000 0.1378627317
H   H11       1.0  0.27030  0.27030  0.97090  1.0000 0.1378627317
H   H12       1.0  0.27030  0.48850  0.97090  1.0000 0.1378627317
H   H13       1.0  0.02910  0.72970  0.51150  1.0000 0.1378627317
H   H14       1.0  0.51150  0.02910  0.72970  1.0000 0.1378627317
H   H15       1.0  0.72970  0.51150  0.02910  1.0000 0.1378627317
H   H16       1.0  0.72970  0.02910  0.72970  1.0000 0.1378627317
H   H17       1.0  0.02910  0.51150  0.72970  1.0000 0.1378627317
H   H18       1.0  0.51150  0.72970  0.72970  1.0000 0.1378627317
H   H19       1.0  0.72970  0.72970  0.51150  1.0000 0.1378627317
H   H20       1.0  0.02910  0.72970  0.72970  1.0000 0.1378627317
H   H21       1.0  0.72970  0.02910  0.51150  1.0000 0.1378627317
H   H22       1.0  0.72970  0.51150  0.72970  1.0000 0.1378627317
H   H23       1.0  0.72970  0.72970  0.02910  1.0000 0.1378627317
H   H24       1.0  0.51150  0.72970  0.02910  1.0000 0.1378627317
C   C1        1.0  0.29960  0.97114  0.42966  1.0000 -0.0956208036
C   C2        1.0  0.97114  0.42966  0.29960  1.0000 -0.0945801614
C   C3        1.0  0.42966  0.29960  0.97114  1.0000 -0.0945801614
C   C4        1.0  0.97114  0.29960  0.29960  1.0000 -0.0956208036
C   C5        1.0  0.42966  0.97114  0.29960  1.0000 -0.0956208036
C   C6        1.0  0.29960  0.42966  0.29960  1.0000 -0.0945801614
C   C7        1.0  0.29960  0.29960  0.42966  1.0000 -0.0956208036
C   C8        1.0  0.29960  0.97114  0.29960  1.0000 -0.0956208036
C   C9        1.0  0.97114  0.29960  0.42966  1.0000 -0.0956208036
C   C10       1.0  0.42966  0.29960  0.29960  1.0000 -0.0956208036
C   C11       1.0  0.29960  0.29960  0.97114  1.0000 -0.0945801614
C   C12       1.0  0.29960  0.42966  0.97114  1.0000 -0.0945801614
C   C13       1.0  0.02886  0.70040  0.57034  1.0000 -0.0945801614
C   C14       1.0  0.57034  0.02886  0.70040  1.0000 -0.0956208036
C   C15       1.0  0.70040  0.57034  0.02886  1.0000 -0.0956208036
C   C16       1.0  0.70040  0.02886  0.70040  1.0000 -0.0956208036
C   C17       1.0  0.02886  0.57034  0.70040  1.0000 -0.0956208036
C   C18       1.0  0.57034  0.70040  0.70040  1.0000 -0.0945801614
C   C19       1.0  0.70040  0.70040  0.57034  1.0000 -0.0956208036
C   C20       1.0  0.02886  0.70040  0.70040  1.0000 -0.0945801614
C   C21       1.0  0.70040  0.02886  0.57034  1.0000 -0.0956208036
C   C22       1.0  0.70040  0.57034  0.70040  1.0000 -0.0956208036
C   C23       1.0  0.70040  0.70040  0.02886  1.0000 -0.0956208036
C   C24       1.0  0.57034  0.70040  0.02886  1.0000 -0.0956208036
C   C25       1.0  0.25790  0.97130  0.38540  1.0000 -0.0132417254
C   C26       1.0  0.97130  0.38540  0.25790  1.0000 -0.0132417254
C   C27       1.0  0.38540  0.25790  0.97130  1.0000 -0.0132417254
C   C28       1.0  0.97130  0.25790  0.38540  1.0000 -0.0132417254
C   C29       1.0  0.38540  0.97130  0.38540  1.0000 -0.0132417254
C   C30       1.0  0.25790  0.38540  0.38540  1.0000 -0.0132417254
C   C31       1.0  0.38540  0.25790  0.38540  1.0000 -0.0132417254
C   C32       1.0  0.38540  0.97130  0.25790  1.0000 -0.0132417254
C   C33       1.0  0.97130  0.38540  0.38540  1.0000 -0.0132417254
C   C34       1.0  0.38540  0.38540  0.25790  1.0000 -0.0132417254
C   C35       1.0  0.25790  0.38540  0.97130  1.0000 -0.0132417254
C   C36       1.0  0.38540  0.38540  0.97130  1.0000 -0.0132417254
C   C37       1.0  0.02870  0.74210  0.61460  1.0000 -0.0132417254
C   C38       1.0  0.61460  0.02870  0.74210  1.0000 -0.0132417254
C   C39       1.0  0.74210  0.61460  0.02870  1.0000 -0.0132417254
C   C40       1.0  0.74210  0.02870  0.61460  1.0000 -0.0132417254
C   C41       1.0  0.02870  0.61460  0.61460  1.0000 -0.0132417254
C   C42       1.0  0.61460  0.74210  0.61460  1.0000 -0.0132417254
C   C43       1.0  0.74210  0.61460  0.61460  1.0000 -0.0132417254
C   C44       1.0  0.02870  0.61460  0.74210  1.0000 -0.0132417254
C   C45       1.0  0.61460  0.02870  0.61460  1.0000 -0.0132417254
C   C46       1.0  0.61460  0.61460  0.74210  1.0000 -0.0132417254
C   C47       1.0  0.61460  0.74210  0.02870  1.0000 -0.0132417254
C   C48       1.0  0.61460  0.61460  0.02870  1.0000 -0.0132417254
C   C49       1.0  0.16118  0.97802  0.43040  1.0000 0.5820968973
C   C50       1.0  0.97802  0.43040  0.16118  1.0000 0.5820968973
C   C51       1.0  0.43040  0.16118  0.97802  1.0000 0.5820968973
C   C52       1.0  0.97802  0.16118  0.43040  1.0000 0.5820968973
C   C53       1.0  0.43040  0.97802  0.43040  1.0000 0.5820968973
C   C54       1.0  0.16118  0.43040  0.43040  1.0000 0.5820968973
C   C55       1.0  0.43040  0.16118  0.43040  1.0000 0.5820968973
C   C56       1.0  0.43040  0.97802  0.16118  1.0000 0.5820968973
C   C57       1.0  0.97802  0.43040  0.43040  1.0000 0.5820968973
C   C58       1.0  0.43040  0.43040  0.16118  1.0000 0.5820968973
C   C59       1.0  0.16118  0.43040  0.97802  1.0000 0.5820968973
C   C60       1.0  0.43040  0.43040  0.97802  1.0000 0.5820968973
C   C61       1.0  0.02198  0.83882  0.56960  1.0000 0.5820968973
C   C62       1.0  0.56960  0.02198  0.83882  1.0000 0.5820968973
C   C63       1.0  0.83882  0.56960  0.02198  1.0000 0.5820968973
C   C64       1.0  0.83882  0.02198  0.56960  1.0000 0.5820968973
C   C65       1.0  0.02198  0.56960  0.56960  1.0000 0.5820968973
C   C66       1.0  0.56960  0.83882  0.56960  1.0000 0.5820968973
C   C67       1.0  0.83882  0.56960  0.56960  1.0000 0.5820968973
C   C68       1.0  0.02198  0.56960  0.83882  1.0000 0.5820968973
C   C69       1.0  0.56960  0.02198  0.56960  1.0000 0.5820968973
C   C70       1.0  0.56960  0.56960  0.83882  1.0000 0.5820968973
C   C71       1.0  0.56960  0.83882  0.02198  1.0000 0.5820968973
C   C72       1.0  0.56960  0.56960  0.02198  1.0000 0.5820968973
O   O1        1.0  0.12542  0.97994  0.38738  1.0000 -0.519207286
O   O2        1.0  0.97994  0.38738  0.12542  1.0000 -0.519207286
O   O3        1.0  0.38738  0.12542  0.97994  1.0000 -0.519207286
O   O4        1.0  0.97994  0.12542  0.50726  1.0000 -0.519207286
O   O5        1.0  0.38738  0.97994  0.50726  1.0000 -0.519207286
O   O6        1.0  0.12542  0.38738  0.50726  1.0000 -0.519207286
O   O7        1.0  0.50726  0.12542  0.38738  1.0000 -0.519207286
O   O8        1.0  0.50726  0.97994  0.12542  1.0000 -0.519207286
O   O9        1.0  0.97994  0.50726  0.38738  1.0000 -0.519207286
O   O10       1.0  0.38738  0.50726  0.12542  1.0000 -0.519207286
O   O11       1.0  0.12542  0.50726  0.97994  1.0000 -0.519207286
O   O12       1.0  0.50726  0.38738  0.97994  1.0000 -0.519207286
O   O13       1.0  0.02006  0.87458  0.61262  1.0000 -0.519207286
O   O14       1.0  0.61262  0.02006  0.87458  1.0000 -0.519207286
O   O15       1.0  0.87458  0.61262  0.02006  1.0000 -0.519207286
O   O16       1.0  0.87458  0.02006  0.49274  1.0000 -0.519207286
O   O17       1.0  0.02006  0.61262  0.49274  1.0000 -0.519207286
O   O18       1.0  0.61262  0.87458  0.49274  1.0000 -0.519207286
O   O19       1.0  0.87458  0.49274  0.61262  1.0000 -0.519207286
O   O20       1.0  0.02006  0.49274  0.87458  1.0000 -0.519207286
O   O21       1.0  0.49274  0.02006  0.61262  1.0000 -0.519207286
O   O22       1.0  0.49274  0.61262  0.87458  1.0000 -0.519207286
O   O23       1.0  0.49274  0.87458  0.02006  1.0000 -0.519207286
O   O24       1.0  0.61262  0.49274  0.02006  1.0000 -0.519207286
O   O25       1.0  0.87458  0.02006  0.61262  1.0000 -0.519207286
O   O26       1.0  0.02006  0.61262  0.87458  1.0000 -0.519207286
O   O27       1.0  0.61262  0.87458  0.02006  1.0000 -0.519207286
O   O28       1.0  0.02006  0.87458  0.49274  1.0000 -0.519207286
O   O29       1.0  0.61262  0.02006  0.49274  1.0000 -0.519207286
O   O30       1.0  0.87458  0.61262  0.49274  1.0000 -0.519207286
O   O31       1.0  0.49274  0.87458  0.61262  1.0000 -0.519207286
O   O32       1.0  0.49274  0.02006  0.87458  1.0000 -0.519207286
O   O33       1.0  0.02006  0.49274  0.61262  1.0000 -0.519207286
O   O34       1.0  0.61262  0.49274  0.87458  1.0000 -0.519207286
O   O35       1.0  0.87458  0.49274  0.02006  1.0000 -0.519207286
O   O36       1.0  0.49274  0.61262  0.02006  1.0000 -0.519207286
O   O37       1.0  0.97994  0.12542  0.38738  1.0000 -0.519207286
O   O38       1.0  0.38738  0.97994  0.12542  1.0000 -0.519207286
O   O39       1.0  0.12542  0.38738  0.97994  1.0000 -0.519207286
O   O40       1.0  0.12542  0.97994  0.50726  1.0000 -0.519207286
O   O41       1.0  0.97994  0.38738  0.50726  1.0000 -0.519207286
O   O42       1.0  0.38738  0.12542  0.50726  1.0000 -0.519207286
O   O43       1.0  0.12542  0.50726  0.38738  1.0000 -0.519207286
O   O44       1.0  0.97994  0.50726  0.12542  1.0000 -0.519207286
O   O45       1.0  0.50726  0.97994  0.38738  1.0000 -0.519207286
O   O46       1.0  0.50726  0.38738  0.12542  1.0000 -0.519207286
O   O47       1.0  0.50726  0.12542  0.97994  1.0000 -0.519207286
O   O48       1.0  0.38738  0.50726  0.97994  1.0000 -0.519207286
