# DDEC6 charges by PACMAN v1.1 (https://github.com/mtap-research/PACMAN-charge/)
data_2012[Cd][pts]3[ASR]1
_chemical_formula_sum              "Cd8 H24 C48 N16 O32"
_cell_length_a       16.318
_cell_length_b       16.318
_cell_length_c       6.508
_cell_angle_alpha    90
_cell_angle_beta     90
_cell_angle_gamma    90

_symmetry_space_group_name_H-M    "P 1"
_symmetry_Int_Tables_number       1

loop_
  _symmetry_equiv_pos_as_xyz
  'x, y, z'

loop_
  _atom_site_type_symbol
  _atom_site_label
  _atom_site_symmetry_multiplicity
  _atom_site_fract_x
  _atom_site_fract_y
  _atom_site_fract_z
  _atom_site_occupancy
  _atom_site_charge
Cd  Cd1       1.0  0.70538  0.29462  0.00000  1.0000 0.9866304961
Cd  Cd2       1.0  0.29462  0.70538  0.00000  1.0000 0.9866304961
Cd  Cd3       1.0  0.79462  0.20538  0.50000  1.0000 0.9866304961
Cd  Cd4       1.0  0.20538  0.79462  0.50000  1.0000 0.9866304961
Cd  Cd5       1.0  0.79462  0.79462  0.50000  1.0000 0.9866304961
Cd  Cd6       1.0  0.20538  0.20538  0.50000  1.0000 0.9866304961
Cd  Cd7       1.0  0.29462  0.29462  0.00000  1.0000 0.9866304961
Cd  Cd8       1.0  0.70538  0.70538  0.00000  1.0000 0.9866304961
H   H1        1.0  0.56485  0.61932  0.70941  1.0000 0.1307227553
H   H2        1.0  0.47754  0.68108  0.60980  1.0000 0.1423685195
H   H3        1.0  0.45761  0.58661  0.76217  1.0000 0.1307227553
H   H4        1.0  0.56485  0.36132  0.67818  1.0000 0.1423685195
H   H5        1.0  0.47754  0.42307  0.77778  1.0000 0.1307227553
H   H6        1.0  0.45761  0.32860  0.62542  1.0000 0.1423685195
H   H7        1.0  0.61932  0.56485  0.29059  1.0000 0.1307227553
H   H8        1.0  0.68108  0.47754  0.39020  1.0000 0.1423685195
H   H9        1.0  0.58661  0.45761  0.23783  1.0000 0.1307227553
H   H10       1.0  0.36132  0.56485  0.32182  1.0000 0.1423685195
H   H11       1.0  0.42307  0.47754  0.22222  1.0000 0.1307227553
H   H12       1.0  0.32860  0.45761  0.37458  1.0000 0.1423685195
H   H13       1.0  0.11932  0.06485  0.20941  1.0000 0.1307227553
H   H14       1.0  0.18108  0.97754  0.10980  1.0000 0.1423685195
H   H15       1.0  0.08661  0.95761  0.26217  1.0000 0.1307227553
H   H16       1.0  0.86132  0.06485  0.17818  1.0000 0.1423685195
H   H17       1.0  0.92307  0.97754  0.27778  1.0000 0.1307227553
H   H18       1.0  0.82860  0.95761  0.12542  1.0000 0.1423685195
H   H19       1.0  0.06485  0.11932  0.79059  1.0000 0.1307227553
H   H20       1.0  0.97754  0.18108  0.89020  1.0000 0.1423685195
H   H21       1.0  0.95761  0.08661  0.73783  1.0000 0.1307227553
H   H22       1.0  0.06485  0.86132  0.82182  1.0000 0.1423685195
H   H23       1.0  0.97754  0.92307  0.72222  1.0000 0.1307227553
H   H24       1.0  0.95761  0.82860  0.87458  1.0000 0.1423685195
C   C1        1.0  0.60220  0.78460  0.36160  1.0000 0.5622526151
C   C2        1.0  0.54220  0.75400  0.21020  1.0000 0.0341537156
C   C3        1.0  0.39780  0.21540  0.36160  1.0000 0.5622526151
C   C4        1.0  0.45780  0.24600  0.21020  1.0000 0.0341537156
C   C5        1.0  0.71540  0.10220  0.86160  1.0000 0.5622526151
C   C6        1.0  0.74600  0.04220  0.71020  1.0000 0.0341537156
C   C7        1.0  0.28460  0.89780  0.86160  1.0000 0.5622526151
C   C8        1.0  0.25400  0.95780  0.71020  1.0000 0.0341537156
C   C9        1.0  0.50000  0.69160  0.93780  1.0000 0.4340524566
C   C10       1.0  0.50000  0.64160  0.74290  1.0000 -0.4244280491
C   C11       1.0  0.50000  0.30840  0.93780  1.0000 0.4340524566
C   C12       1.0  0.50000  0.35840  0.74290  1.0000 -0.4244280491
C   C13       1.0  0.78460  0.60220  0.63840  1.0000 0.5622526151
C   C14       1.0  0.75400  0.54220  0.78980  1.0000 0.0341537156
C   C15       1.0  0.21540  0.39780  0.63840  1.0000 0.5622526151
C   C16       1.0  0.24600  0.45780  0.78980  1.0000 0.0341537156
C   C17       1.0  0.10220  0.71540  0.13840  1.0000 0.5622526151
C   C18       1.0  0.04220  0.74600  0.28980  1.0000 0.0341537156
C   C19       1.0  0.89780  0.28460  0.13840  1.0000 0.5622526151
C   C20       1.0  0.95780  0.25400  0.28980  1.0000 0.0341537156
C   C21       1.0  0.69160  0.50000  0.06220  1.0000 0.4340524566
C   C22       1.0  0.64160  0.50000  0.25710  1.0000 -0.4244280491
C   C23       1.0  0.30840  0.50000  0.06220  1.0000 0.4340524566
C   C24       1.0  0.35840  0.50000  0.25710  1.0000 -0.4244280491
C   C25       1.0  0.28460  0.10220  0.86160  1.0000 0.5622526151
C   C26       1.0  0.25400  0.04220  0.71020  1.0000 0.0341537156
C   C27       1.0  0.71540  0.89780  0.86160  1.0000 0.5622526151
C   C28       1.0  0.74600  0.95780  0.71020  1.0000 0.0341537156
C   C29       1.0  0.60220  0.21540  0.36160  1.0000 0.5622526151
C   C30       1.0  0.54220  0.24600  0.21020  1.0000 0.0341537156
C   C31       1.0  0.39780  0.78460  0.36160  1.0000 0.5622526151
C   C32       1.0  0.45780  0.75400  0.21020  1.0000 0.0341537156
C   C33       1.0  0.19160  0.00000  0.43780  1.0000 0.4340524566
C   C34       1.0  0.14160  0.00000  0.24290  1.0000 -0.4244280491
C   C35       1.0  0.80840  0.00000  0.43780  1.0000 0.4340524566
C   C36       1.0  0.85840  0.00000  0.24290  1.0000 -0.4244280491
C   C37       1.0  0.10220  0.28460  0.13840  1.0000 0.5622526151
C   C38       1.0  0.04220  0.25400  0.28980  1.0000 0.0341537156
C   C39       1.0  0.89780  0.71540  0.13840  1.0000 0.5622526151
C   C40       1.0  0.95780  0.74600  0.28980  1.0000 0.0341537156
C   C41       1.0  0.21540  0.60220  0.63840  1.0000 0.5622526151
C   C42       1.0  0.24600  0.54220  0.78980  1.0000 0.0341537156
C   C43       1.0  0.78460  0.39780  0.63840  1.0000 0.5622526151
C   C44       1.0  0.75400  0.45780  0.78980  1.0000 0.0341537156
C   C45       1.0  0.00000  0.19160  0.56220  1.0000 0.4340524566
C   C46       1.0  0.00000  0.14160  0.75710  1.0000 -0.4244280491
C   C47       1.0  0.00000  0.80840  0.56220  1.0000 0.4340524566
C   C48       1.0  0.00000  0.85840  0.75710  1.0000 -0.4244280491
N   N1        1.0  0.56860  0.71410  0.03750  1.0000 -0.3918665979
N   N2        1.0  0.43140  0.28590  0.03750  1.0000 -0.3918665979
N   N3        1.0  0.78590  0.06860  0.53750  1.0000 -0.3918665979
N   N4        1.0  0.21410  0.93140  0.53750  1.0000 -0.3918665979
N   N5        1.0  0.71410  0.56860  0.96250  1.0000 -0.3918665979
N   N6        1.0  0.28590  0.43140  0.96250  1.0000 -0.3918665979
N   N7        1.0  0.06860  0.78590  0.46250  1.0000 -0.3918665979
N   N8        1.0  0.93140  0.21410  0.46250  1.0000 -0.3918665979
N   N9        1.0  0.21410  0.06860  0.53750  1.0000 -0.3918665979
N   N10       1.0  0.78590  0.93140  0.53750  1.0000 -0.3918665979
N   N11       1.0  0.56860  0.28590  0.03750  1.0000 -0.3918665979
N   N12       1.0  0.43140  0.71410  0.03750  1.0000 -0.3918665979
N   N13       1.0  0.06860  0.21410  0.46250  1.0000 -0.3918665979
N   N14       1.0  0.93140  0.78590  0.46250  1.0000 -0.3918665979
N   N15       1.0  0.28590  0.56860  0.96250  1.0000 -0.3918665979
N   N16       1.0  0.71410  0.43140  0.96250  1.0000 -0.3918665979
O   O1        1.0  0.67686  0.76715  0.32680  1.0000 -0.5135941762
O   O2        1.0  0.57930  0.82530  0.51710  1.0000 -0.3918665979
O   O3        1.0  0.32314  0.23285  0.32680  1.0000 -0.5162939984
O   O4        1.0  0.42070  0.17470  0.51710  1.0000 -0.3918665979
O   O5        1.0  0.73285  0.17686  0.82680  1.0000 -0.5162939984
O   O6        1.0  0.67470  0.07930  0.01710  1.0000 -0.3918665979
O   O7        1.0  0.26715  0.82314  0.82680  1.0000 -0.5162939984
O   O8        1.0  0.32530  0.92070  0.01710  1.0000 -0.3918665979
O   O9        1.0  0.76715  0.67686  0.67320  1.0000 -0.5135941762
O   O10       1.0  0.82530  0.57930  0.48290  1.0000 -0.3918665979
O   O11       1.0  0.23285  0.32314  0.67320  1.0000 -0.5162939984
O   O12       1.0  0.17470  0.42070  0.48290  1.0000 -0.3918665979
O   O13       1.0  0.17686  0.73285  0.17320  1.0000 -0.5162939984
O   O14       1.0  0.07930  0.67470  0.98290  1.0000 -0.3918665979
O   O15       1.0  0.82314  0.26715  0.17320  1.0000 -0.5162939984
O   O16       1.0  0.92070  0.32530  0.98290  1.0000 -0.3918665979
O   O17       1.0  0.26715  0.17686  0.82680  1.0000 -0.5162939984
O   O18       1.0  0.32530  0.07930  0.01710  1.0000 -0.3918665979
O   O19       1.0  0.73285  0.82314  0.82680  1.0000 -0.5162939984
O   O20       1.0  0.67470  0.92070  0.01710  1.0000 -0.3918665979
O   O21       1.0  0.67686  0.23285  0.32680  1.0000 -0.5162939984
O   O22       1.0  0.57930  0.17470  0.51710  1.0000 -0.3918665979
O   O23       1.0  0.32314  0.76715  0.32680  1.0000 -0.5135941762
O   O24       1.0  0.42070  0.82530  0.51710  1.0000 -0.3918665979
O   O25       1.0  0.17686  0.26715  0.17320  1.0000 -0.5162939984
O   O26       1.0  0.07930  0.32530  0.98290  1.0000 -0.3918665979
O   O27       1.0  0.82314  0.73285  0.17320  1.0000 -0.5162939984
O   O28       1.0  0.92070  0.67470  0.98290  1.0000 -0.3918665979
O   O29       1.0  0.23285  0.67686  0.67320  1.0000 -0.5162939984
O   O30       1.0  0.17470  0.57930  0.48290  1.0000 -0.3918665979
O   O31       1.0  0.76715  0.32314  0.67320  1.0000 -0.5135941762
O   O32       1.0  0.82530  0.42070  0.48290  1.0000 -0.3918665979
