# DDEC6 charges by PACMAN v1.1 (https://github.com/mtap-research/PACMAN-charge/)
data_2012[Tb][nan]3[ASR]1
_chemical_formula_sum              "Tb4 P4 H50 C86 O32"
_cell_length_a       14.4794
_cell_length_b       10.5573
_cell_length_c       23.5015
_cell_angle_alpha    90
_cell_angle_beta     108.712
_cell_angle_gamma    90

_symmetry_space_group_name_H-M    "P 1"
_symmetry_Int_Tables_number       1

loop_
  _symmetry_equiv_pos_as_xyz
  'x, y, z'

loop_
  _atom_site_type_symbol
  _atom_site_label
  _atom_site_symmetry_multiplicity
  _atom_site_fract_x
  _atom_site_fract_y
  _atom_site_fract_z
  _atom_site_occupancy
  _atom_site_charge
Tb  Tb1       1.0  0.34406  0.95195  0.76997  1.0000 2.0662151542
Tb  Tb2       1.0  0.65594  0.95195  0.73003  1.0000 2.0662151542
Tb  Tb3       1.0  0.65594  0.04805  0.23003  1.0000 2.0662151542
Tb  Tb4       1.0  0.34406  0.04805  0.26997  1.0000 2.0662151542
P   P1        1.0  0.27951  0.16027  0.87798  1.0000 0.9020417299
P   P2        1.0  0.72049  0.16027  0.62202  1.0000 0.9020417299
P   P3        1.0  0.72049  0.83973  0.12202  1.0000 0.9020417299
P   P4        1.0  0.27951  0.83973  0.37798  1.0000 0.9020417299
H   H1        1.0  0.09620  0.29680  0.84620  1.0000 0.1119543603
H   H2        1.0  0.90380  0.29680  0.65380  1.0000 0.1119543603
H   H3        1.0  0.90380  0.70320  0.15380  1.0000 0.1119543603
H   H4        1.0  0.09620  0.70320  0.34620  1.0000 0.1119543603
H   H5        1.0  0.32220  0.28440  0.78490  1.0000 0.130226723
H   H6        1.0  0.67780  0.28440  0.71510  1.0000 0.130226723
H   H7        1.0  0.67780  0.71560  0.21510  1.0000 0.130226723
H   H8        1.0  0.32220  0.71560  0.28490  1.0000 0.130226723
H   H9        1.0  0.18560  0.13930  0.96780  1.0000 0.1119543603
H   H10       1.0  0.81440  0.13930  0.53220  1.0000 0.1119543603
H   H11       1.0  0.81440  0.86070  0.03220  1.0000 0.1119543603
H   H12       1.0  0.18560  0.86070  0.46780  1.0000 0.1119543603
H   H13       1.0  0.23690  0.11800  0.07020  1.0000 0.1384115732
H   H14       1.0  0.76310  0.11800  0.42980  1.0000 0.1384115732
H   H15       1.0  0.76310  0.88200  0.92980  1.0000 0.1384115732
H   H16       1.0  0.23690  0.88200  0.57020  1.0000 0.1384115732
H   H17       1.0  0.46240  0.14950  0.97050  1.0000 0.130226723
H   H18       1.0  0.53760  0.14950  0.52950  1.0000 0.130226723
H   H19       1.0  0.53760  0.85050  0.02950  1.0000 0.130226723
H   H20       1.0  0.46240  0.85050  0.47050  1.0000 0.130226723
H   H21       1.0  0.33560  0.48950  0.75730  1.0000 0.130226723
H   H22       1.0  0.66440  0.48950  0.74270  1.0000 0.130226723
H   H23       1.0  0.66440  0.51050  0.24270  1.0000 0.130226723
H   H24       1.0  0.33560  0.51050  0.25730  1.0000 0.130226723
H   H25       1.0  0.28540  0.61220  0.90590  1.0000 0.130226723
H   H26       1.0  0.71460  0.61220  0.59410  1.0000 0.130226723
H   H27       1.0  0.71460  0.38780  0.09410  1.0000 0.130226723
H   H28       1.0  0.28540  0.38780  0.40590  1.0000 0.130226723
H   H29       1.0  0.27030  0.40500  0.93310  1.0000 0.1119543603
H   H30       1.0  0.72970  0.40500  0.56690  1.0000 0.1119543603
H   H31       1.0  0.72970  0.59500  0.06690  1.0000 0.1119543603
H   H32       1.0  0.27030  0.59500  0.43310  1.0000 0.1119543603
H   H33       1.0  0.17240  0.93300  0.85180  1.0000 0.1384115732
H   H34       1.0  0.82760  0.93300  0.64820  1.0000 0.1384115732
H   H35       1.0  0.82760  0.06700  0.14820  1.0000 0.1384115732
H   H36       1.0  0.17240  0.06700  0.35180  1.0000 0.1384115732
H   H37       1.0  0.01250  0.87510  0.82240  1.0000 0.1384115732
H   H38       1.0  0.98750  0.87510  0.67760  1.0000 0.1384115732
H   H39       1.0  0.98750  0.12490  0.17760  1.0000 0.1384115732
H   H40       1.0  0.01250  0.12490  0.32240  1.0000 0.1384115732
H   H41       1.0  0.93390  0.23920  0.81510  1.0000 0.130226723
H   H42       1.0  0.06610  0.23920  0.68490  1.0000 0.130226723
H   H43       1.0  0.06610  0.76080  0.18490  1.0000 0.130226723
H   H44       1.0  0.93390  0.76080  0.31510  1.0000 0.130226723
H   H45       1.0  0.51320  0.12390  0.07350  1.0000 0.130226723
H   H46       1.0  0.48680  0.12390  0.42650  1.0000 0.130226723
H   H47       1.0  0.48680  0.87610  0.92650  1.0000 0.130226723
H   H48       1.0  0.51320  0.87610  0.57350  1.0000 0.130226723
H   H49       1.0  0.50000  0.26790  0.75000  1.0000 0.1171544459
H   H50       1.0  0.50000  0.73210  0.25000  1.0000 0.1171544459
C   C1        1.0  0.15200  0.12160  0.85210  1.0000 -0.1509114612
C   C2        1.0  0.84800  0.12160  0.64790  1.0000 -0.1509114612
C   C3        1.0  0.84800  0.87840  0.14790  1.0000 -0.1509114612
C   C4        1.0  0.15200  0.87840  0.35210  1.0000 -0.1509114612
C   C5        1.0  0.07950  0.21160  0.84100  1.0000 -0.0990088309
C   C6        1.0  0.92050  0.21160  0.65900  1.0000 -0.0990088309
C   C7        1.0  0.92050  0.78840  0.15900  1.0000 -0.0990088309
C   C8        1.0  0.07950  0.78840  0.34100  1.0000 -0.0990088309
C   C9        1.0  0.29370  0.32200  0.86160  1.0000 -0.1596455012
C   C10       1.0  0.70630  0.32200  0.63840  1.0000 -0.1596455012
C   C11       1.0  0.70630  0.67800  0.13840  1.0000 -0.1596455012
C   C12       1.0  0.29370  0.67800  0.36160  1.0000 -0.1596455012
C   C13       1.0  0.31420  0.35010  0.80930  1.0000 -0.0790062953
C   C14       1.0  0.68580  0.35010  0.69070  1.0000 -0.0790062953
C   C15       1.0  0.68580  0.64990  0.19070  1.0000 -0.0790062953
C   C16       1.0  0.31420  0.64990  0.30930  1.0000 -0.0790062953
C   C17       1.0  0.31850  0.14450  0.95820  1.0000 -0.1449634168
C   C18       1.0  0.68150  0.14450  0.54180  1.0000 -0.1449634168
C   C19       1.0  0.68150  0.85550  0.04180  1.0000 -0.1509114612
C   C20       1.0  0.31850  0.85550  0.45820  1.0000 -0.1509114612
C   C21       1.0  0.25190  0.13600  0.98880  1.0000 -0.0990088309
C   C22       1.0  0.74810  0.13600  0.51120  1.0000 -0.0990088309
C   C23       1.0  0.74810  0.86400  0.01120  1.0000 -0.0990088309
C   C24       1.0  0.25190  0.86400  0.48880  1.0000 -0.0990088309
C   C25       1.0  0.28280  0.12280  0.05020  1.0000 -0.0902084807
C   C26       1.0  0.71720  0.12280  0.44980  1.0000 -0.0902084807
C   C27       1.0  0.71720  0.87720  0.94980  1.0000 -0.0902084807
C   C28       1.0  0.28280  0.87720  0.55020  1.0000 -0.0902084807
C   C29       1.0  0.41640  0.14150  0.99030  1.0000 -0.0790062953
C   C30       1.0  0.58360  0.14150  0.50970  1.0000 -0.0790062953
C   C31       1.0  0.58360  0.85850  0.00970  1.0000 -0.0790062953
C   C32       1.0  0.41640  0.85850  0.49030  1.0000 -0.0790062953
C   C33       1.0  0.32270  0.47290  0.79290  1.0000 -0.0902084807
C   C34       1.0  0.67730  0.47290  0.70710  1.0000 -0.0902084807
C   C35       1.0  0.67730  0.52710  0.20710  1.0000 -0.0902084807
C   C36       1.0  0.32270  0.52710  0.29290  1.0000 -0.0902084807
C   C37       1.0  0.31240  0.57390  0.82910  1.0000 0.0018370435
C   C38       1.0  0.68760  0.57390  0.67090  1.0000 0.0018370435
C   C39       1.0  0.68760  0.42610  0.17090  1.0000 0.0018370435
C   C40       1.0  0.31240  0.42610  0.32910  1.0000 0.0018370435
C   C41       1.0  0.29270  0.54660  0.88130  1.0000 -0.0990088309
C   C42       1.0  0.70730  0.54660  0.61870  1.0000 -0.0990088309
C   C43       1.0  0.70730  0.45340  0.11870  1.0000 -0.0990088309
C   C44       1.0  0.29270  0.45340  0.38130  1.0000 -0.0990088309
C   C45       1.0  0.28350  0.42190  0.89770  1.0000 -0.0990088309
C   C46       1.0  0.71650  0.42190  0.60230  1.0000 -0.0990088309
C   C47       1.0  0.71650  0.57810  0.10230  1.0000 -0.0990088309
C   C48       1.0  0.28350  0.57810  0.39770  1.0000 -0.0990088309
C   C49       1.0  0.32240  0.70660  0.80910  1.0000 0.5600504246
C   C50       1.0  0.67760  0.70660  0.69090  1.0000 0.5600504246
C   C51       1.0  0.67760  0.29340  0.19090  1.0000 0.5600504246
C   C52       1.0  0.32240  0.29340  0.30910  1.0000 0.5600504246
C   C53       1.0  0.12450  0.99520  0.84440  1.0000 -0.0790062953
C   C54       1.0  0.87550  0.99520  0.65560  1.0000 -0.0790062953
C   C55       1.0  0.87550  0.00480  0.15560  1.0000 -0.0790062953
C   C56       1.0  0.12450  0.00480  0.34440  1.0000 -0.0790062953
C   C57       1.0  0.02910  0.96040  0.82630  1.0000 -0.0902084807
C   C58       1.0  0.97090  0.96040  0.67370  1.0000 -0.0902084807
C   C59       1.0  0.97090  0.03960  0.17370  1.0000 -0.0902084807
C   C60       1.0  0.02910  0.03960  0.32630  1.0000 -0.0902084807
C   C61       1.0  0.95680  0.05120  0.81370  1.0000 0.0076977009
C   C62       1.0  0.04320  0.05120  0.68630  1.0000 0.0076977009
C   C63       1.0  0.04320  0.94880  0.18630  1.0000 0.0076977009
C   C64       1.0  0.95680  0.94880  0.31370  1.0000 0.0076977009
C   C65       1.0  0.98200  0.17740  0.82210  1.0000 -0.0990088309
C   C66       1.0  0.01800  0.17740  0.67790  1.0000 -0.0990088309
C   C67       1.0  0.01800  0.82260  0.17790  1.0000 -0.0990088309
C   C68       1.0  0.98200  0.82260  0.32210  1.0000 -0.0990088309
C   C69       1.0  0.85040  0.01530  0.78990  1.0000 0.5600504246
C   C70       1.0  0.14960  0.01530  0.71010  1.0000 0.5600504246
C   C71       1.0  0.14960  0.98470  0.21010  1.0000 0.5600504246
C   C72       1.0  0.85040  0.98470  0.28990  1.0000 0.5600504246
C   C73       1.0  0.44700  0.12680  0.05220  1.0000 -0.0902084807
C   C74       1.0  0.55300  0.12680  0.44780  1.0000 -0.0902084807
C   C75       1.0  0.55300  0.87320  0.94780  1.0000 -0.0902084807
C   C76       1.0  0.44700  0.87320  0.55220  1.0000 -0.0902084807
C   C77       1.0  0.38000  0.11650  0.08250  1.0000 -0.0147584149
C   C78       1.0  0.62000  0.11650  0.41750  1.0000 -0.0147584149
C   C79       1.0  0.62000  0.88350  0.91750  1.0000 -0.0147584149
C   C80       1.0  0.38000  0.88350  0.58250  1.0000 -0.0147584149
C   C81       1.0  0.41140  0.09960  0.14950  1.0000 0.6545489695
C   C82       1.0  0.58860  0.09960  0.35050  1.0000 0.6545489695
C   C83       1.0  0.58860  0.90040  0.85050  1.0000 0.6545489695
C   C84       1.0  0.41140  0.90040  0.64950  1.0000 0.6545489695
C   C85       1.0  0.50000  0.17980  0.75000  1.0000 0.540614542
C   C86       1.0  0.50000  0.82020  0.25000  1.0000 0.540614542
O   O1        1.0  0.33661  0.07520  0.85051  1.0000 -0.7471758161
O   O2        1.0  0.66339  0.07520  0.64949  1.0000 -0.7471758161
O   O3        1.0  0.66339  0.92480  0.14949  1.0000 -0.7471758161
O   O4        1.0  0.33661  0.92480  0.35051  1.0000 -0.7471758161
O   O5        1.0  0.31134  0.79730  0.84134  1.0000 -0.6352325115
O   O6        1.0  0.68866  0.79730  0.65866  1.0000 -0.6352325115
O   O7        1.0  0.68866  0.20270  0.15866  1.0000 -0.6352325115
O   O8        1.0  0.31134  0.20270  0.34134  1.0000 -0.6352325115
O   O9        1.0  0.34232  0.72470  0.76172  1.0000 -0.6006322238
O   O10       1.0  0.65768  0.72470  0.73828  1.0000 -0.6006322238
O   O11       1.0  0.65768  0.27530  0.23828  1.0000 -0.6006322238
O   O12       1.0  0.34232  0.27530  0.26172  1.0000 -0.6006322238
O   O13       1.0  0.82841  0.90070  0.77801  1.0000 -0.6083467338
O   O14       1.0  0.17159  0.90070  0.72199  1.0000 -0.6083467338
O   O15       1.0  0.17159  0.09930  0.22199  1.0000 -0.6083467338
O   O16       1.0  0.82841  0.09930  0.27801  1.0000 -0.6083467338
O   O17       1.0  0.78568  0.09830  0.77938  1.0000 -0.6184146438
O   O18       1.0  0.21432  0.09830  0.72062  1.0000 -0.6184146438
O   O19       1.0  0.21432  0.90170  0.22062  1.0000 -0.6184146438
O   O20       1.0  0.78568  0.90170  0.27938  1.0000 -0.6184146438
O   O21       1.0  0.49949  0.09900  0.17739  1.0000 -0.6592192087
O   O22       1.0  0.50051  0.09900  0.32261  1.0000 -0.6592192087
O   O23       1.0  0.50051  0.90100  0.82261  1.0000 -0.6592192087
O   O24       1.0  0.49949  0.90100  0.67739  1.0000 -0.6592192087
O   O25       1.0  0.34587  0.08920  0.17287  1.0000 -0.6287748549
O   O26       1.0  0.65413  0.08920  0.32713  1.0000 -0.6287748549
O   O27       1.0  0.65413  0.91080  0.82713  1.0000 -0.6287748549
O   O28       1.0  0.34587  0.91080  0.67287  1.0000 -0.6287748549
O   O29       1.0  0.42513  0.13280  0.75183  1.0000 -0.5498383078
O   O30       1.0  0.57487  0.13280  0.74817  1.0000 -0.5498383078
O   O31       1.0  0.57487  0.86720  0.24817  1.0000 -0.5498383078
O   O32       1.0  0.42513  0.86720  0.25183  1.0000 -0.5498383078
