# DDEC6 charges by PACMAN v1.1 (https://github.com/mtap-research/PACMAN-charge/)
data_2012[Cu][pcu]3[ASR]1
_chemical_formula_sum              "Cu18 H84 C78 N36 O30"
_cell_length_a       16.8128
_cell_length_b       16.8128
_cell_length_c       16.8128
_cell_angle_alpha    105.664
_cell_angle_beta     105.664
_cell_angle_gamma    105.664

_symmetry_space_group_name_H-M    "P 1"
_symmetry_Int_Tables_number       1

loop_
  _symmetry_equiv_pos_as_xyz
  'x, y, z'

loop_
  _atom_site_type_symbol
  _atom_site_label
  _atom_site_symmetry_multiplicity
  _atom_site_fract_x
  _atom_site_fract_y
  _atom_site_fract_z
  _atom_site_occupancy
  _atom_site_charge
Cu  Cu1       1.0  0.15008  0.56530  0.38610  1.0000 0.7330258361
Cu  Cu2       1.0  0.56530  0.38610  0.15008  1.0000 0.7330258361
Cu  Cu3       1.0  0.38610  0.15008  0.56530  1.0000 0.7330258361
Cu  Cu4       1.0  0.84992  0.43470  0.61390  1.0000 0.7330258361
Cu  Cu5       1.0  0.43470  0.61390  0.84992  1.0000 0.7330258361
Cu  Cu6       1.0  0.61390  0.84992  0.43470  1.0000 0.7330258361
Cu  Cu7       1.0  0.23295  0.62868  0.60993  1.0000 0.69791724
Cu  Cu8       1.0  0.62868  0.60993  0.23295  1.0000 0.69791724
Cu  Cu9       1.0  0.60993  0.23295  0.62868  1.0000 0.69791724
Cu  Cu10      1.0  0.76705  0.37132  0.39007  1.0000 0.69791724
Cu  Cu11      1.0  0.37132  0.39007  0.76705  1.0000 0.69791724
Cu  Cu12      1.0  0.39007  0.76705  0.37132  1.0000 0.69791724
Cu  Cu13      1.0  0.08806  0.71224  0.51409  1.0000 0.7330258361
Cu  Cu14      1.0  0.71224  0.51409  0.08806  1.0000 0.7330258361
Cu  Cu15      1.0  0.51409  0.08806  0.71224  1.0000 0.7330258361
Cu  Cu16      1.0  0.91194  0.28776  0.48591  1.0000 0.7330258361
Cu  Cu17      1.0  0.28776  0.48591  0.91194  1.0000 0.7330258361
Cu  Cu18      1.0  0.48591  0.91194  0.28776  1.0000 0.7330258361
H   H1        1.0  0.24410  0.42240  0.34960  1.0000 0.1216238167
H   H2        1.0  0.42240  0.34960  0.24410  1.0000 0.1216238167
H   H3        1.0  0.34960  0.24410  0.42240  1.0000 0.1216238167
H   H4        1.0  0.75590  0.57760  0.65040  1.0000 0.1216238167
H   H5        1.0  0.57760  0.65040  0.75590  1.0000 0.1216238167
H   H6        1.0  0.65040  0.75590  0.57760  1.0000 0.1216238167
H   H7        1.0  0.35380  0.40750  0.47440  1.0000 0.1307642481
H   H8        1.0  0.40750  0.47440  0.35380  1.0000 0.1307642481
H   H9        1.0  0.47440  0.35380  0.40750  1.0000 0.1307642481
H   H10       1.0  0.64620  0.59250  0.52560  1.0000 0.1307642481
H   H11       1.0  0.59250  0.52560  0.64620  1.0000 0.1307642481
H   H12       1.0  0.52560  0.64620  0.59250  1.0000 0.1307642481
H   H13       1.0  0.36120  0.51640  0.61520  1.0000 0.1107194883
H   H14       1.0  0.51640  0.61520  0.36120  1.0000 0.1107194883
H   H15       1.0  0.61520  0.36120  0.51640  1.0000 0.1107194883
H   H16       1.0  0.63880  0.48360  0.38480  1.0000 0.1107194883
H   H17       1.0  0.48360  0.38480  0.63880  1.0000 0.1107194883
H   H18       1.0  0.38480  0.63880  0.48360  1.0000 0.1107194883
H   H19       1.0  0.26220  0.74160  0.81060  1.0000 0.1107194883
H   H20       1.0  0.74160  0.81060  0.26220  1.0000 0.1107194883
H   H21       1.0  0.81060  0.26220  0.74160  1.0000 0.1107194883
H   H22       1.0  0.73780  0.25840  0.18940  1.0000 0.1107194883
H   H23       1.0  0.25840  0.18940  0.73780  1.0000 0.1107194883
H   H24       1.0  0.18940  0.73780  0.25840  1.0000 0.1107194883
H   H25       1.0  0.18560  0.84670  0.84480  1.0000 0.1307642481
H   H26       1.0  0.84670  0.84480  0.18560  1.0000 0.1307642481
H   H27       1.0  0.84480  0.18560  0.84670  1.0000 0.1307642481
H   H28       1.0  0.81440  0.15330  0.15520  1.0000 0.1307642481
H   H29       1.0  0.15330  0.15520  0.81440  1.0000 0.1307642481
H   H30       1.0  0.15520  0.81440  0.15330  1.0000 0.1307642481
H   H31       1.0  0.08910  0.83760  0.69540  1.0000 0.1107194883
H   H32       1.0  0.83760  0.69540  0.08910  1.0000 0.1107194883
H   H33       1.0  0.69540  0.08910  0.83760  1.0000 0.1107194883
H   H34       1.0  0.91090  0.16240  0.30460  1.0000 0.1107194883
H   H35       1.0  0.16240  0.30460  0.91090  1.0000 0.1107194883
H   H36       1.0  0.30460  0.91090  0.16240  1.0000 0.1107194883
H   H37       1.0  0.98750  0.76560  0.35600  1.0000 0.1216238167
H   H38       1.0  0.76560  0.35600  0.98750  1.0000 0.1216238167
H   H39       1.0  0.35600  0.98750  0.76560  1.0000 0.1216238167
H   H40       1.0  0.01250  0.23440  0.64400  1.0000 0.1216238167
H   H41       1.0  0.23440  0.64400  0.01250  1.0000 0.1216238167
H   H42       1.0  0.64400  0.01250  0.23440  1.0000 0.1216238167
H   H43       1.0  0.97600  0.69440  0.20140  1.0000 0.1368870657
H   H44       1.0  0.69440  0.20140  0.97600  1.0000 0.1368870657
H   H45       1.0  0.20140  0.97600  0.69440  1.0000 0.1368870657
H   H46       1.0  0.02400  0.30560  0.79860  1.0000 0.1368870657
H   H47       1.0  0.30560  0.79860  0.02400  1.0000 0.1368870657
H   H48       1.0  0.79860  0.02400  0.30560  1.0000 0.1368870657
H   H49       1.0  0.04860  0.58370  0.20350  1.0000 0.1216238167
H   H50       1.0  0.58370  0.20350  0.04860  1.0000 0.1216238167
H   H51       1.0  0.20350  0.04860  0.58370  1.0000 0.1216238167
H   H52       1.0  0.95140  0.41630  0.79650  1.0000 0.1216238167
H   H53       1.0  0.41630  0.79650  0.95140  1.0000 0.1216238167
H   H54       1.0  0.79650  0.95140  0.41630  1.0000 0.1216238167
H   H55       1.0  0.34870  0.58580  0.23820  1.0000 0.1368870657
H   H56       1.0  0.58580  0.23820  0.34870  1.0000 0.1368870657
H   H57       1.0  0.23820  0.34870  0.58580  1.0000 0.1368870657
H   H58       1.0  0.65130  0.41420  0.76180  1.0000 0.1368870657
H   H59       1.0  0.41420  0.76180  0.65130  1.0000 0.1368870657
H   H60       1.0  0.76180  0.65130  0.41420  1.0000 0.1368870657
H   H61       1.0  0.28150  0.62120  0.18480  1.0000 0.1307642481
H   H62       1.0  0.62120  0.18480  0.28150  1.0000 0.1307642481
H   H63       1.0  0.18480  0.28150  0.62120  1.0000 0.1307642481
H   H64       1.0  0.71850  0.37880  0.81520  1.0000 0.1307642481
H   H65       1.0  0.37880  0.81520  0.71850  1.0000 0.1307642481
H   H66       1.0  0.81520  0.71850  0.37880  1.0000 0.1307642481
H   H67       1.0  0.25450  0.44340  0.16250  1.0000 0.1216238167
H   H68       1.0  0.44340  0.16250  0.25450  1.0000 0.1216238167
H   H69       1.0  0.16250  0.25450  0.44340  1.0000 0.1216238167
H   H70       1.0  0.74550  0.55660  0.83750  1.0000 0.1216238167
H   H71       1.0  0.55660  0.83750  0.74550  1.0000 0.1216238167
H   H72       1.0  0.83750  0.74550  0.55660  1.0000 0.1216238167
H   H73       1.0  0.17670  0.47340  0.11760  1.0000 0.1216238167
H   H74       1.0  0.47340  0.11760  0.17670  1.0000 0.1216238167
H   H75       1.0  0.11760  0.17670  0.47340  1.0000 0.1216238167
H   H76       1.0  0.82330  0.52660  0.88240  1.0000 0.1216238167
H   H77       1.0  0.52660  0.88240  0.82330  1.0000 0.1216238167
H   H78       1.0  0.88240  0.82330  0.52660  1.0000 0.1216238167
H   H79       1.0  0.08620  0.56480  0.49710  1.0000 0.3799070489
H   H80       1.0  0.56480  0.49710  0.08620  1.0000 0.3799070489
H   H81       1.0  0.49710  0.08620  0.56480  1.0000 0.3799070489
H   H82       1.0  0.91380  0.43520  0.50290  1.0000 0.3799070489
H   H83       1.0  0.43520  0.50290  0.91380  1.0000 0.3799070489
H   H84       1.0  0.50290  0.91380  0.43520  1.0000 0.3799070489
C   C1        1.0  0.26070  0.45470  0.41110  1.0000 0.0055664793
C   C2        1.0  0.45470  0.41110  0.26070  1.0000 0.0055664793
C   C3        1.0  0.41110  0.26070  0.45470  1.0000 0.0055664793
C   C4        1.0  0.73930  0.54530  0.58890  1.0000 0.0055664793
C   C5        1.0  0.54530  0.58890  0.73930  1.0000 0.0055664793
C   C6        1.0  0.58890  0.73930  0.54530  1.0000 0.0055664793
C   C7        1.0  0.32160  0.44590  0.47930  1.0000 -0.2200872057
C   C8        1.0  0.44590  0.47930  0.32160  1.0000 -0.2200872057
C   C9        1.0  0.47930  0.32160  0.44590  1.0000 -0.2200872057
C   C10       1.0  0.67840  0.55410  0.52070  1.0000 -0.2200872057
C   C11       1.0  0.55410  0.52070  0.67840  1.0000 -0.2200872057
C   C12       1.0  0.52070  0.67840  0.55410  1.0000 -0.2200872057
C   C13       1.0  0.32490  0.50610  0.55650  1.0000 0.0176434588
C   C14       1.0  0.50610  0.55650  0.32490  1.0000 0.0176434588
C   C15       1.0  0.55650  0.32490  0.50610  1.0000 0.0176434588
C   C16       1.0  0.67510  0.49390  0.44350  1.0000 0.0176434588
C   C17       1.0  0.49390  0.44350  0.67510  1.0000 0.0176434588
C   C18       1.0  0.44350  0.67510  0.49390  1.0000 0.0176434588
C   C19       1.0  0.22240  0.75390  0.76790  1.0000 -0.009083343
C   C20       1.0  0.75390  0.76790  0.22240  1.0000 -0.009083343
C   C21       1.0  0.76790  0.22240  0.75390  1.0000 -0.009083343
C   C22       1.0  0.77760  0.24610  0.23210  1.0000 -0.009083343
C   C23       1.0  0.24610  0.23210  0.77760  1.0000 -0.009083343
C   C24       1.0  0.23210  0.77760  0.24610  1.0000 -0.009083343
C   C25       1.0  0.18040  0.81140  0.78780  1.0000 -0.2200872057
C   C26       1.0  0.81140  0.78780  0.18040  1.0000 -0.2200872057
C   C27       1.0  0.78780  0.18040  0.81140  1.0000 -0.2200872057
C   C28       1.0  0.81960  0.18860  0.21220  1.0000 -0.2200872057
C   C29       1.0  0.18860  0.21220  0.81960  1.0000 -0.2200872057
C   C30       1.0  0.21220  0.81960  0.18860  1.0000 -0.2200872057
C   C31       1.0  0.12800  0.80630  0.70460  1.0000 0.0271499427
C   C32       1.0  0.80630  0.70460  0.12800  1.0000 0.0271499427
C   C33       1.0  0.70460  0.12800  0.80630  1.0000 0.0271499427
C   C34       1.0  0.87200  0.19370  0.29540  1.0000 0.0271499427
C   C35       1.0  0.19370  0.29540  0.87200  1.0000 0.0271499427
C   C36       1.0  0.29540  0.87200  0.19370  1.0000 0.0271499427
C   C37       1.0  0.01040  0.72130  0.33660  1.0000 -0.0019224879
C   C38       1.0  0.72130  0.33660  0.01040  1.0000 -0.0019224879
C   C39       1.0  0.33660  0.01040  0.72130  1.0000 -0.0019224879
C   C40       1.0  0.98960  0.27870  0.66340  1.0000 -0.0019224879
C   C41       1.0  0.27870  0.66340  0.98960  1.0000 -0.0019224879
C   C42       1.0  0.66340  0.98960  0.27870  1.0000 -0.0019224879
C   C43       1.0  0.00350  0.68230  0.25170  1.0000 -0.2083950295
C   C44       1.0  0.68230  0.25170  0.00350  1.0000 -0.2083950295
C   C45       1.0  0.25170  0.00350  0.68230  1.0000 -0.2083950295
C   C46       1.0  0.99650  0.31770  0.74830  1.0000 -0.2083950295
C   C47       1.0  0.31770  0.74830  0.99650  1.0000 -0.2083950295
C   C48       1.0  0.74830  0.99650  0.31770  1.0000 -0.2083950295
C   C49       1.0  0.04390  0.62220  0.25340  1.0000 -0.009083343
C   C50       1.0  0.62220  0.25340  0.04390  1.0000 -0.009083343
C   C51       1.0  0.25340  0.04390  0.62220  1.0000 -0.009083343
C   C52       1.0  0.95610  0.37780  0.74660  1.0000 -0.009083343
C   C53       1.0  0.37780  0.74660  0.95610  1.0000 -0.009083343
C   C54       1.0  0.74660  0.95610  0.37780  1.0000 -0.009083343
C   C55       1.0  0.24860  0.59070  0.28450  1.0000 0.6157580387
C   C56       1.0  0.59070  0.28450  0.24860  1.0000 0.6157580387
C   C57       1.0  0.28450  0.24860  0.59070  1.0000 0.6157580387
C   C58       1.0  0.75140  0.40930  0.71550  1.0000 0.6157580387
C   C59       1.0  0.40930  0.71550  0.75140  1.0000 0.6157580387
C   C60       1.0  0.71550  0.75140  0.40930  1.0000 0.6157580387
C   C61       1.0  0.28490  0.57560  0.21110  1.0000 -0.3351653446
C   C62       1.0  0.57560  0.21110  0.28490  1.0000 -0.3351653446
C   C63       1.0  0.21110  0.28490  0.57560  1.0000 -0.3351653446
C   C64       1.0  0.71510  0.42440  0.78890  1.0000 -0.3351653446
C   C65       1.0  0.42440  0.78890  0.71510  1.0000 -0.3351653446
C   C66       1.0  0.78890  0.71510  0.42440  1.0000 -0.3351653446
C   C67       1.0  0.24180  0.48870  0.13920  1.0000 -0.2806682814
C   C68       1.0  0.48870  0.13920  0.24180  1.0000 -0.2806682814
C   C69       1.0  0.13920  0.24180  0.48870  1.0000 -0.2806682814
C   C70       1.0  0.75820  0.51130  0.86080  1.0000 -0.2806682814
C   C71       1.0  0.51130  0.86080  0.75820  1.0000 -0.2806682814
C   C72       1.0  0.86080  0.75820  0.51130  1.0000 -0.2806682814
C   C73       1.0  0.27190  0.48550  0.06340  1.0000 0.5986138355
C   C74       1.0  0.48550  0.06340  0.27190  1.0000 0.5986138355
C   C75       1.0  0.06340  0.27190  0.48550  1.0000 0.5986138355
C   C76       1.0  0.72810  0.51450  0.93660  1.0000 0.5986138355
C   C77       1.0  0.51450  0.93660  0.72810  1.0000 0.5986138355
C   C78       1.0  0.93660  0.72810  0.51450  1.0000 0.5986138355
N   N1        1.0  0.22850  0.51530  0.44450  1.0000 -0.2016613524
N   N2        1.0  0.51530  0.44450  0.22850  1.0000 -0.2016613524
N   N3        1.0  0.44450  0.22850  0.51530  1.0000 -0.2016613524
N   N4        1.0  0.77150  0.48470  0.55550  1.0000 -0.2016613524
N   N5        1.0  0.48470  0.55550  0.77150  1.0000 -0.2016613524
N   N6        1.0  0.55550  0.77150  0.48470  1.0000 -0.2016613524
N   N7        1.0  0.26850  0.54740  0.53470  1.0000 -0.2083950295
N   N8        1.0  0.54740  0.53470  0.26850  1.0000 -0.2083950295
N   N9        1.0  0.53470  0.26850  0.54740  1.0000 -0.2083950295
N   N10       1.0  0.73150  0.45260  0.46530  1.0000 -0.2083950295
N   N11       1.0  0.45260  0.46530  0.73150  1.0000 -0.2083950295
N   N12       1.0  0.46530  0.73150  0.45260  1.0000 -0.2083950295
N   N13       1.0  0.19940  0.71710  0.67920  1.0000 -0.2083950295
N   N14       1.0  0.71710  0.67920  0.19940  1.0000 -0.2083950295
N   N15       1.0  0.67920  0.19940  0.71710  1.0000 -0.2083950295
N   N16       1.0  0.80060  0.28290  0.32080  1.0000 -0.2083950295
N   N17       1.0  0.28290  0.32080  0.80060  1.0000 -0.2083950295
N   N18       1.0  0.32080  0.80060  0.28290  1.0000 -0.2083950295
N   N19       1.0  0.14100  0.75140  0.64120  1.0000 -0.2016613524
N   N20       1.0  0.75140  0.64120  0.14100  1.0000 -0.2016613524
N   N21       1.0  0.64120  0.14100  0.75140  1.0000 -0.2016613524
N   N22       1.0  0.85900  0.24860  0.35880  1.0000 -0.2016613524
N   N23       1.0  0.24860  0.35880  0.85900  1.0000 -0.2016613524
N   N24       1.0  0.35880  0.85900  0.24860  1.0000 -0.2016613524
N   N25       1.0  0.05500  0.68710  0.38890  1.0000 -0.1833202669
N   N26       1.0  0.68710  0.38890  0.05500  1.0000 -0.1833202669
N   N27       1.0  0.38890  0.05500  0.68710  1.0000 -0.1833202669
N   N28       1.0  0.94500  0.31290  0.61110  1.0000 -0.1833202669
N   N29       1.0  0.31290  0.61110  0.94500  1.0000 -0.1833202669
N   N30       1.0  0.61110  0.94500  0.31290  1.0000 -0.1833202669
N   N31       1.0  0.07590  0.62670  0.33810  1.0000 -0.1900401492
N   N32       1.0  0.62670  0.33810  0.07590  1.0000 -0.1900401492
N   N33       1.0  0.33810  0.07590  0.62670  1.0000 -0.1900401492
N   N34       1.0  0.92410  0.37330  0.66190  1.0000 -0.1900401492
N   N35       1.0  0.37330  0.66190  0.92410  1.0000 -0.1900401492
N   N36       1.0  0.66190  0.92410  0.37330  1.0000 -0.1900401492
O   O1        1.0  0.18080  0.53030  0.27800  1.0000 -0.5042010773
O   O2        1.0  0.53030  0.27800  0.18080  1.0000 -0.5042010773
O   O3        1.0  0.27800  0.18080  0.53030  1.0000 -0.5042010773
O   O4        1.0  0.81920  0.46970  0.72200  1.0000 -0.5042010773
O   O5        1.0  0.46970  0.72200  0.81920  1.0000 -0.5042010773
O   O6        1.0  0.72200  0.81920  0.46970  1.0000 -0.5042010773
O   O7        1.0  0.28530  0.66400  0.35030  1.0000 -0.5656529595
O   O8        1.0  0.66400  0.35030  0.28530  1.0000 -0.5656529595
O   O9        1.0  0.35030  0.28530  0.66400  1.0000 -0.5656529595
O   O10       1.0  0.71470  0.33600  0.64970  1.0000 -0.5656529595
O   O11       1.0  0.33600  0.64970  0.71470  1.0000 -0.5656529595
O   O12       1.0  0.64970  0.71470  0.33600  1.0000 -0.5656529595
O   O13       1.0  0.21510  0.47370  0.98830  1.0000 -0.5577483405
O   O14       1.0  0.47370  0.98830  0.21510  1.0000 -0.5577483405
O   O15       1.0  0.98830  0.21510  0.47370  1.0000 -0.5577483405
O   O16       1.0  0.78490  0.52630  0.01170  1.0000 -0.5577483405
O   O17       1.0  0.52630  0.01170  0.78490  1.0000 -0.5577483405
O   O18       1.0  0.01170  0.78490  0.52630  1.0000 -0.5577483405
O   O19       1.0  0.35000  0.49630  0.07440  1.0000 -0.5656529595
O   O20       1.0  0.49630  0.07440  0.35000  1.0000 -0.5656529595
O   O21       1.0  0.07440  0.35000  0.49630  1.0000 -0.5656529595
O   O22       1.0  0.65000  0.50370  0.92560  1.0000 -0.5656529595
O   O23       1.0  0.50370  0.92560  0.65000  1.0000 -0.5656529595
O   O24       1.0  0.92560  0.65000  0.50370  1.0000 -0.5656529595
O   O25       1.0  0.13670  0.61590  0.50170  1.0000 -0.7437313824
O   O26       1.0  0.61590  0.50170  0.13670  1.0000 -0.7437313824
O   O27       1.0  0.50170  0.13670  0.61590  1.0000 -0.7437313824
O   O28       1.0  0.86330  0.38410  0.49830  1.0000 -0.7437313824
O   O29       1.0  0.38410  0.49830  0.86330  1.0000 -0.7437313824
O   O30       1.0  0.49830  0.86330  0.38410  1.0000 -0.7437313824
