# DDEC6 charges by PACMAN v1.1 (https://github.com/mtap-research/PACMAN-charge/)
data_2012[DyZn][nan]3[ASR]1
_chemical_formula_sum              "Dy15 Zn3 H72 C108 N18 O54"
_cell_length_a       18.036
_cell_length_b       18.036
_cell_length_c       21.362
_cell_angle_alpha    90
_cell_angle_beta     90
_cell_angle_gamma    120

_symmetry_space_group_name_H-M    "P 1"
_symmetry_Int_Tables_number       1

loop_
  _symmetry_equiv_pos_as_xyz
  'x, y, z'

loop_
  _atom_site_type_symbol
  _atom_site_label
  _atom_site_symmetry_multiplicity
  _atom_site_fract_x
  _atom_site_fract_y
  _atom_site_fract_z
  _atom_site_occupancy
  _atom_site_charge
Dy  Dy1       1.0  0.06530  0.39876  0.08963  1.0000 2.0759892298
Dy  Dy2       1.0  0.60124  0.66654  0.42296  1.0000 2.0759892298
Dy  Dy3       1.0  0.33346  0.93470  0.75630  1.0000 2.0759892298
Dy  Dy4       1.0  0.39876  0.06530  0.91037  1.0000 2.0759892298
Dy  Dy5       1.0  0.66654  0.60124  0.57704  1.0000 2.0856008841
Dy  Dy6       1.0  0.93470  0.33346  0.24370  1.0000 2.0759892298
Dy  Dy7       1.0  0.83013  0.22823  0.08732  1.0000 2.0654001547
Dy  Dy8       1.0  0.77177  0.60190  0.42065  1.0000 2.064189346
Dy  Dy9       1.0  0.39810  0.16987  0.75399  1.0000 2.064189346
Dy  Dy10      1.0  0.22823  0.83013  0.91268  1.0000 2.064189346
Dy  Dy11      1.0  0.60190  0.77177  0.57935  1.0000 2.0654001547
Dy  Dy12      1.0  0.16987  0.39810  0.24601  1.0000 2.064189346
Dy  Dy13      1.0  0.00000  0.18676  0.16667  1.0000 2.0402994467
Dy  Dy14      1.0  0.81324  0.81324  0.50000  1.0000 2.0402994467
Dy  Dy15      1.0  0.18676  0.00000  0.83333  1.0000 2.0402994467
Zn  Zn1       1.0  0.64778  0.64778  0.00000  1.0000 0.4784582569
Zn  Zn2       1.0  0.35222  0.00000  0.33333  1.0000 0.474650891
Zn  Zn3       1.0  0.00000  0.35222  0.66667  1.0000 0.474650891
H   H1        1.0  0.05010  0.45800  0.88760  1.0000 0.1278735636
H   H2        1.0  0.54200  0.59210  0.22093  1.0000 0.1278735636
H   H3        1.0  0.40790  0.94990  0.55427  1.0000 0.1278735636
H   H4        1.0  0.45800  0.05010  0.11240  1.0000 0.1278735636
H   H5        1.0  0.59210  0.54200  0.77907  1.0000 0.1278735636
H   H6        1.0  0.94990  0.40790  0.44573  1.0000 0.1278735636
H   H7        1.0  0.85100  0.22000  0.87510  1.0000 0.1220140524
H   H8        1.0  0.78000  0.63100  0.20843  1.0000 0.1220140524
H   H9        1.0  0.36900  0.14900  0.54177  1.0000 0.1220140524
H   H10       1.0  0.22000  0.85100  0.12490  1.0000 0.1220140524
H   H11       1.0  0.63100  0.78000  0.79157  1.0000 0.1220140524
H   H12       1.0  0.14900  0.36900  0.45823  1.0000 0.1220140524
H   H13       1.0  0.87060  0.22780  0.76780  1.0000 0.0862831245
H   H14       1.0  0.77220  0.64280  0.10113  1.0000 0.0862831245
H   H15       1.0  0.35720  0.12940  0.43447  1.0000 0.0862831245
H   H16       1.0  0.22780  0.87060  0.23220  1.0000 0.0862831245
H   H17       1.0  0.64280  0.77220  0.89887  1.0000 0.0862831245
H   H18       1.0  0.12940  0.35720  0.56553  1.0000 0.0862831245
H   H19       1.0  0.12270  0.57680  0.83290  1.0000 0.1278735636
H   H20       1.0  0.42320  0.54590  0.16623  1.0000 0.1278735636
H   H21       1.0  0.45410  0.87730  0.49957  1.0000 0.1278735636
H   H22       1.0  0.57680  0.12270  0.16710  1.0000 0.1278735636
H   H23       1.0  0.54590  0.42320  0.83377  1.0000 0.1278735636
H   H24       1.0  0.87730  0.45410  0.50043  1.0000 0.1278735636
H   H25       1.0  0.23710  0.66960  0.66630  1.0000 0.1220140524
H   H26       1.0  0.33040  0.56750  0.99963  1.0000 0.1220140524
H   H27       1.0  0.43250  0.76290  0.33297  1.0000 0.1220140524
H   H28       1.0  0.66960  0.23710  0.33370  1.0000 0.1220140524
H   H29       1.0  0.56750  0.33040  0.00037  1.0000 0.1220140524
H   H30       1.0  0.76290  0.43250  0.66703  1.0000 0.1220140524
H   H31       1.0  0.15530  0.53440  0.62590  1.0000 0.0862831245
H   H32       1.0  0.46560  0.62090  0.95923  1.0000 0.0862831245
H   H33       1.0  0.37910  0.84470  0.29257  1.0000 0.0862831245
H   H34       1.0  0.53440  0.15530  0.37410  1.0000 0.0862831245
H   H35       1.0  0.62090  0.46560  0.04077  1.0000 0.0862831245
H   H36       1.0  0.84470  0.37910  0.70743  1.0000 0.0862831245
H   H37       1.0  0.89010  0.94500  0.03570  1.0000 0.1220140524
H   H38       1.0  0.05500  0.94510  0.36903  1.0000 0.1220140524
H   H39       1.0  0.05490  0.10990  0.70237  1.0000 0.1220140524
H   H40       1.0  0.94500  0.89010  0.96430  1.0000 0.1220140524
H   H41       1.0  0.94510  0.05500  0.63097  1.0000 0.1220140524
H   H42       1.0  0.10990  0.05490  0.29763  1.0000 0.1220140524
H   H43       1.0  0.66590  0.93010  0.07150  1.0000 0.1220140524
H   H44       1.0  0.06990  0.73580  0.40483  1.0000 0.1220140524
H   H45       1.0  0.26420  0.33410  0.73817  1.0000 0.1220140524
H   H46       1.0  0.93010  0.66590  0.92850  1.0000 0.1220140524
H   H47       1.0  0.73580  0.06990  0.59517  1.0000 0.1220140524
H   H48       1.0  0.33410  0.26420  0.26183  1.0000 0.1220140524
H   H49       1.0  0.60020  0.78910  0.04300  1.0000 0.0835316343
H   H50       1.0  0.21090  0.81110  0.37633  1.0000 0.0835316343
H   H51       1.0  0.18890  0.39980  0.70967  1.0000 0.0835316343
H   H52       1.0  0.78910  0.60020  0.95700  1.0000 0.0835316343
H   H53       1.0  0.81110  0.21090  0.62367  1.0000 0.0835316343
H   H54       1.0  0.39980  0.18890  0.29033  1.0000 0.0835316343
H   H55       1.0  0.97640  0.21430  0.05490  1.0000 0.3753965511
H   H56       1.0  0.78570  0.76210  0.38823  1.0000 0.3753965511
H   H57       1.0  0.23790  0.02360  0.72157  1.0000 0.3753965511
H   H58       1.0  0.21430  0.97640  0.94510  1.0000 0.3753965511
H   H59       1.0  0.76210  0.78570  0.61177  1.0000 0.3753965511
H   H60       1.0  0.02360  0.23790  0.27843  1.0000 0.3753965511
H   H61       1.0  0.88290  0.37090  0.12510  1.0000 0.3664114985
H   H62       1.0  0.62910  0.51200  0.45843  1.0000 0.3664114985
H   H63       1.0  0.48800  0.11710  0.79177  1.0000 0.3664114985
H   H64       1.0  0.37090  0.88290  0.87490  1.0000 0.3664114985
H   H65       1.0  0.51200  0.62910  0.54157  1.0000 0.3664114985
H   H66       1.0  0.11710  0.48800  0.20823  1.0000 0.3664114985
H   H67       1.0  0.15170  0.30430  0.15440  1.0000 0.3587329997
H   H68       1.0  0.69570  0.84740  0.48773  1.0000 0.3587329997
H   H69       1.0  0.15260  0.84830  0.82107  1.0000 0.3587329997
H   H70       1.0  0.30430  0.15170  0.84560  1.0000 0.3587329997
H   H71       1.0  0.84740  0.69570  0.51227  1.0000 0.3587329997
H   H72       1.0  0.84830  0.15260  0.17893  1.0000 0.3587329997
C   C1        1.0  0.01650  0.41210  0.79840  1.0000 0.141683776
C   C2        1.0  0.58790  0.60440  0.13173  1.0000 0.141683776
C   C3        1.0  0.39560  0.98350  0.46507  1.0000 0.141683776
C   C4        1.0  0.41210  0.01650  0.20160  1.0000 0.141683776
C   C5        1.0  0.60440  0.58790  0.86827  1.0000 0.141683776
C   C6        1.0  0.98350  0.39560  0.53493  1.0000 0.141683776
C   C7        1.0  0.01140  0.41110  0.86410  1.0000 -0.2052763538
C   C8        1.0  0.58890  0.60030  0.19743  1.0000 -0.2052763538
C   C9        1.0  0.39970  0.98860  0.53077  1.0000 -0.2052763538
C   C10       1.0  0.41110  0.01140  0.13590  1.0000 -0.2052763538
C   C11       1.0  0.60030  0.58890  0.80257  1.0000 -0.2052763538
C   C12       1.0  0.98860  0.39970  0.46923  1.0000 -0.203058167
C   C13       1.0  0.94800  0.33930  0.89230  1.0000 -0.0115319076
C   C14       1.0  0.66070  0.60870  0.22563  1.0000 -0.0115319076
C   C15       1.0  0.39130  0.05200  0.55897  1.0000 -0.0115319076
C   C16       1.0  0.33930  0.94800  0.10770  1.0000 -0.0115319076
C   C17       1.0  0.60870  0.66070  0.77437  1.0000 -0.0115319076
C   C18       1.0  0.05200  0.39130  0.44103  1.0000 -0.0115319076
C   C19       1.0  0.89430  0.26960  0.85670  1.0000 -0.1902283491
C   C20       1.0  0.73040  0.62470  0.19003  1.0000 -0.1902283491
C   C21       1.0  0.37530  0.10570  0.52337  1.0000 -0.1902283491
C   C22       1.0  0.26960  0.89430  0.14330  1.0000 -0.1902283491
C   C23       1.0  0.62470  0.73040  0.80997  1.0000 -0.1902283491
C   C24       1.0  0.10570  0.37530  0.47663  1.0000 -0.1902283491
C   C25       1.0  0.90640  0.27530  0.79200  1.0000 0.0328063162
C   C26       1.0  0.72470  0.63110  0.12533  1.0000 0.0328063162
C   C27       1.0  0.36890  0.09360  0.45867  1.0000 0.0328063162
C   C28       1.0  0.27530  0.90640  0.20800  1.0000 0.0328063162
C   C29       1.0  0.63110  0.72470  0.87467  1.0000 0.0328063162
C   C30       1.0  0.09360  0.36890  0.54133  1.0000 0.0328063162
C   C31       1.0  0.08300  0.48870  0.76350  1.0000 0.1220140524
C   C32       1.0  0.51130  0.59430  0.09683  1.0000 0.1220140524
C   C33       1.0  0.40570  0.91700  0.43017  1.0000 0.1220140524
C   C34       1.0  0.48870  0.08300  0.23650  1.0000 0.1220140524
C   C35       1.0  0.59430  0.51130  0.90317  1.0000 0.1220140524
C   C36       1.0  0.91700  0.40570  0.56983  1.0000 0.1220140524
C   C37       1.0  0.13030  0.56910  0.79080  1.0000 -0.2052763538
C   C38       1.0  0.43090  0.56120  0.12413  1.0000 -0.2052763538
C   C39       1.0  0.43880  0.86970  0.45747  1.0000 -0.2052763538
C   C40       1.0  0.56910  0.13030  0.20920  1.0000 -0.2052763538
C   C41       1.0  0.56120  0.43090  0.87587  1.0000 -0.2052763538
C   C42       1.0  0.86970  0.43880  0.54253  1.0000 -0.2052763538
C   C43       1.0  0.18730  0.63600  0.75580  1.0000 0.0058518531
C   C44       1.0  0.36400  0.55130  0.08913  1.0000 0.0047114393
C   C45       1.0  0.44870  0.81270  0.42247  1.0000 0.0047114393
C   C46       1.0  0.63600  0.18730  0.24420  1.0000 0.0058518531
C   C47       1.0  0.55130  0.36400  0.91087  1.0000 0.0058518531
C   C48       1.0  0.81270  0.44870  0.57753  1.0000 0.0058518531
C   C49       1.0  0.19830  0.62460  0.69130  1.0000 -0.203058167
C   C50       1.0  0.37540  0.57370  0.02463  1.0000 -0.203058167
C   C51       1.0  0.42630  0.80170  0.35797  1.0000 -0.203058167
C   C52       1.0  0.62460  0.19830  0.30870  1.0000 -0.203058167
C   C53       1.0  0.57370  0.37540  0.97537  1.0000 -0.203058167
C   C54       1.0  0.80170  0.42630  0.64203  1.0000 -0.203058167
C   C55       1.0  0.14850  0.54320  0.66790  1.0000 0.0328063162
C   C56       1.0  0.45680  0.60530  0.00123  1.0000 0.0328063162
C   C57       1.0  0.39470  0.85150  0.33457  1.0000 0.0328063162
C   C58       1.0  0.54320  0.14850  0.33210  1.0000 0.0328063162
C   C59       1.0  0.60530  0.45680  0.99877  1.0000 0.0328063162
C   C60       1.0  0.85150  0.39470  0.66543  1.0000 0.0328063162
C   C61       1.0  0.94020  0.33590  0.96340  1.0000 0.5903172258
C   C62       1.0  0.66410  0.60430  0.29673  1.0000 0.5903172258
C   C63       1.0  0.39570  0.05980  0.63007  1.0000 0.5903172258
C   C64       1.0  0.33590  0.94020  0.03660  1.0000 0.5903172258
C   C65       1.0  0.60430  0.66410  0.70327  1.0000 0.5903172258
C   C66       1.0  0.05980  0.39570  0.36993  1.0000 0.5903172258
C   C67       1.0  0.23460  0.72530  0.78750  1.0000 0.5903172258
C   C68       1.0  0.27470  0.50930  0.12083  1.0000 0.5903172258
C   C69       1.0  0.49070  0.76540  0.45417  1.0000 0.5903172258
C   C70       1.0  0.72530  0.23460  0.21250  1.0000 0.5903172258
C   C71       1.0  0.50930  0.27470  0.87917  1.0000 0.5903172258
C   C72       1.0  0.76540  0.49070  0.54583  1.0000 0.5903172258
C   C73       1.0  0.78740  0.83130  0.01410  1.0000 0.1220140524
C   C74       1.0  0.16870  0.95610  0.34743  1.0000 0.1220140524
C   C75       1.0  0.04390  0.21260  0.68077  1.0000 0.1220140524
C   C76       1.0  0.83130  0.78740  0.98590  1.0000 0.1220140524
C   C77       1.0  0.95610  0.16870  0.65257  1.0000 0.1220140524
C   C78       1.0  0.21260  0.04390  0.31923  1.0000 0.1220140524
C   C79       1.0  0.83060  0.91440  0.03640  1.0000 -0.203058167
C   C80       1.0  0.08560  0.91620  0.36973  1.0000 -0.203058167
C   C81       1.0  0.08380  0.16940  0.70307  1.0000 -0.203058167
C   C82       1.0  0.91440  0.83060  0.96360  1.0000 -0.203058167
C   C83       1.0  0.91620  0.08560  0.63027  1.0000 -0.203058167
C   C84       1.0  0.16940  0.08380  0.29693  1.0000 -0.203058167
C   C85       1.0  0.78660  0.95260  0.05960  1.0000 -0.0115319076
C   C86       1.0  0.04740  0.83400  0.39293  1.0000 -0.0115319076
C   C87       1.0  0.16600  0.21340  0.72627  1.0000 -0.0115319076
C   C88       1.0  0.95260  0.78660  0.94040  1.0000 -0.0115319076
C   C89       1.0  0.83400  0.04740  0.60707  1.0000 -0.0115319076
C   C90       1.0  0.21340  0.16600  0.27373  1.0000 -0.0115319076
C   C91       1.0  0.69830  0.90570  0.05910  1.0000 -0.1902283491
C   C92       1.0  0.09430  0.79260  0.39243  1.0000 -0.1902283491
C   C93       1.0  0.20740  0.30170  0.72577  1.0000 -0.1902283491
C   C94       1.0  0.90570  0.69830  0.94090  1.0000 -0.1902283491
C   C95       1.0  0.79260  0.09430  0.60757  1.0000 -0.1902283491
C   C96       1.0  0.30170  0.20740  0.27423  1.0000 -0.1902283491
C   C97       1.0  0.65950  0.82130  0.03990  1.0000 0.0418023927
C   C98       1.0  0.17870  0.83820  0.37323  1.0000 0.0418023927
C   C99       1.0  0.16180  0.34050  0.70657  1.0000 0.0418023927
C   C100      1.0  0.82130  0.65950  0.96010  1.0000 0.0418023927
C   C101      1.0  0.83820  0.17870  0.62677  1.0000 0.0418023927
C   C102      1.0  0.34050  0.16180  0.29343  1.0000 0.0418023927
C   C103      1.0  0.83180  0.04180  0.08430  1.0000 0.6019437028
C   C104      1.0  0.95820  0.79000  0.41763  1.0000 0.6019437028
C   C105      1.0  0.21000  0.16820  0.75097  1.0000 0.6019437028
C   C106      1.0  0.04180  0.83180  0.91570  1.0000 0.6019437028
C   C107      1.0  0.79000  0.95820  0.58237  1.0000 0.6019437028
C   C108      1.0  0.16820  0.21000  0.24903  1.0000 0.6019437028
N   N1        1.0  0.96620  0.34460  0.76310  1.0000 -0.2540265011
N   N2        1.0  0.65540  0.62160  0.09643  1.0000 -0.2540265011
N   N3        1.0  0.37840  0.03380  0.42977  1.0000 -0.2540265011
N   N4        1.0  0.34460  0.96620  0.23690  1.0000 -0.2540265011
N   N5        1.0  0.62160  0.65540  0.90357  1.0000 -0.2540265011
N   N6        1.0  0.03380  0.37840  0.57023  1.0000 -0.2540265011
N   N7        1.0  0.09110  0.47590  0.70090  1.0000 -0.290485577
N   N8        1.0  0.52410  0.61520  0.03423  1.0000 -0.290485577
N   N9        1.0  0.38480  0.90890  0.36757  1.0000 -0.290485577
N   N10       1.0  0.47590  0.09110  0.29910  1.0000 -0.290485577
N   N11       1.0  0.61520  0.52410  0.96577  1.0000 -0.290485577
N   N12       1.0  0.90890  0.38480  0.63243  1.0000 -0.290485577
N   N13       1.0  0.69990  0.78240  0.01740  1.0000 -0.290485577
N   N14       1.0  0.21760  0.91750  0.35073  1.0000 -0.290485577
N   N15       1.0  0.08250  0.30010  0.68407  1.0000 -0.290485577
N   N16       1.0  0.78240  0.69990  0.98260  1.0000 -0.290485577
N   N17       1.0  0.91750  0.21760  0.64927  1.0000 -0.290485577
N   N18       1.0  0.30010  0.08250  0.31593  1.0000 -0.290485577
O   O1        1.0  0.87410  0.26950  0.98460  1.0000 -0.7018703606
O   O2        1.0  0.73050  0.60460  0.31793  1.0000 -0.7018703606
O   O3        1.0  0.39540  0.12590  0.65127  1.0000 -0.7018703606
O   O4        1.0  0.26950  0.87410  0.01540  1.0000 -0.7018703606
O   O5        1.0  0.60460  0.73050  0.68207  1.0000 -0.7018703606
O   O6        1.0  0.12590  0.39540  0.34873  1.0000 -0.7018703606
O   O7        1.0  0.99240  0.39150  0.99480  1.0000 -0.6432342615
O   O8        1.0  0.60850  0.60090  0.32813  1.0000 -0.6432342615
O   O9        1.0  0.39910  0.00760  0.66147  1.0000 -0.6432342615
O   O10       1.0  0.39150  0.99240  0.00520  1.0000 -0.6432342615
O   O11       1.0  0.60090  0.60850  0.67187  1.0000 -0.6432342615
O   O12       1.0  0.00760  0.39910  0.33853  1.0000 -0.6432342615
O   O13       1.0  0.29050  0.78650  0.75450  1.0000 -0.7116052694
O   O14       1.0  0.21350  0.50400  0.08783  1.0000 -0.7116052694
O   O15       1.0  0.49600  0.70950  0.42117  1.0000 -0.7116052694
O   O16       1.0  0.78650  0.29050  0.24550  1.0000 -0.7116052694
O   O17       1.0  0.50400  0.21350  0.91217  1.0000 -0.7116052694
O   O18       1.0  0.70950  0.49600  0.57883  1.0000 -0.7116052694
O   O19       1.0  0.21450  0.72900  0.84110  1.0000 -0.6686544703
O   O20       1.0  0.27100  0.48550  0.17443  1.0000 -0.6686544703
O   O21       1.0  0.51450  0.78550  0.50777  1.0000 -0.6686544703
O   O22       1.0  0.72900  0.21450  0.15890  1.0000 -0.6686544703
O   O23       1.0  0.48550  0.27100  0.82557  1.0000 -0.6686544703
O   O24       1.0  0.78550  0.51450  0.49223  1.0000 -0.6686544703
O   O25       1.0  0.79670  0.08710  0.07520  1.0000 -0.7018703606
O   O26       1.0  0.91290  0.70960  0.40853  1.0000 -0.7018703606
O   O27       1.0  0.29040  0.20330  0.74187  1.0000 -0.7018703606
O   O28       1.0  0.08710  0.79670  0.92480  1.0000 -0.7018703606
O   O29       1.0  0.70960  0.91290  0.59147  1.0000 -0.7018703606
O   O30       1.0  0.20330  0.29040  0.25813  1.0000 -0.7018703606
O   O31       1.0  0.90280  0.06535  0.11125  1.0000 -0.7116052694
O   O32       1.0  0.93465  0.83745  0.44458  1.0000 -0.7116052694
O   O33       1.0  0.16255  0.09720  0.77792  1.0000 -0.7116052694
O   O34       1.0  0.06535  0.90280  0.88875  1.0000 -0.7116052694
O   O35       1.0  0.83745  0.93465  0.55542  1.0000 -0.7116052694
O   O36       1.0  0.09720  0.16255  0.22208  1.0000 -0.7116052694
O   O37       1.0  0.97201  0.25051  0.08011  1.0000 -1.1887481961
O   O38       1.0  0.74949  0.72150  0.41344  1.0000 -1.1966982769
O   O39       1.0  0.27850  0.02799  0.74678  1.0000 -1.1887481961
O   O40       1.0  0.25051  0.97201  0.91989  1.0000 -1.1887481961
O   O41       1.0  0.72150  0.74949  0.58656  1.0000 -1.1887481961
O   O42       1.0  0.02799  0.27850  0.25322  1.0000 -1.1887481961
O   O43       1.0  0.92634  0.35820  0.13315  1.0000 -1.2112757252
O   O44       1.0  0.64180  0.56814  0.46648  1.0000 -1.2112757252
O   O45       1.0  0.43186  0.07366  0.79982  1.0000 -1.2112757252
O   O46       1.0  0.35820  0.92634  0.86685  1.0000 -1.2112757252
O   O47       1.0  0.56814  0.64180  0.53352  1.0000 -1.2112757252
O   O48       1.0  0.07366  0.43186  0.20018  1.0000 -1.2112757252
O   O49       1.0  0.11900  0.32610  0.14810  1.0000 -1.1887481961
O   O50       1.0  0.67390  0.79290  0.48143  1.0000 -1.183222978
O   O51       1.0  0.20710  0.88100  0.81477  1.0000 -1.1887481961
O   O52       1.0  0.32610  0.11900  0.85190  1.0000 -1.1887481961
O   O53       1.0  0.79290  0.67390  0.51857  1.0000 -1.183222978
O   O54       1.0  0.88100  0.20710  0.18523  1.0000 -1.1887481961
