# DDEC6 charges by PACMAN v1.1 (https://github.com/mtap-research/PACMAN-charge/)
data_2012[CuV][pcu]3[ASR]1
_chemical_formula_sum              "V2 Cu2 H16 C16 N8 F12"
_cell_length_a       9.7153
_cell_length_b       9.7153
_cell_length_c       8.2024
_cell_angle_alpha    90
_cell_angle_beta     90
_cell_angle_gamma    90

_symmetry_space_group_name_H-M    "P 1"
_symmetry_Int_Tables_number       1

loop_
  _symmetry_equiv_pos_as_xyz
  'x, y, z'

loop_
  _atom_site_type_symbol
  _atom_site_label
  _atom_site_symmetry_multiplicity
  _atom_site_fract_x
  _atom_site_fract_y
  _atom_site_fract_z
  _atom_site_occupancy
  _atom_site_charge
V   V1        1.0  0.50000  0.50000  0.00000  1.0000 2.0294303415
V   V2        1.0  0.00000  0.00000  0.00000  1.0000 2.0294303415
Cu  Cu1       1.0  0.50000  0.50000  0.50000  1.0000 0.7040207205
Cu  Cu2       1.0  0.00000  0.00000  0.50000  1.0000 0.7040207205
H   H1        1.0  0.27520  0.39240  0.71650  1.0000 0.1547598658
H   H2        1.0  0.39240  0.72480  0.71650  1.0000 0.1547598658
H   H3        1.0  0.72480  0.60760  0.71650  1.0000 0.1547598658
H   H4        1.0  0.60760  0.27520  0.71650  1.0000 0.1547598658
H   H5        1.0  0.72480  0.39240  0.28350  1.0000 0.1547598658
H   H6        1.0  0.39240  0.27520  0.28350  1.0000 0.1547598658
H   H7        1.0  0.27520  0.60760  0.28350  1.0000 0.1547598658
H   H8        1.0  0.60760  0.72480  0.28350  1.0000 0.1547598658
H   H9        1.0  0.22480  0.10760  0.28350  1.0000 0.1547598658
H   H10       1.0  0.10760  0.77520  0.28350  1.0000 0.1547598658
H   H11       1.0  0.77520  0.89240  0.28350  1.0000 0.1547598658
H   H12       1.0  0.89240  0.22480  0.28350  1.0000 0.1547598658
H   H13       1.0  0.77520  0.10760  0.71650  1.0000 0.1547598658
H   H14       1.0  0.10760  0.22480  0.71650  1.0000 0.1547598658
H   H15       1.0  0.22480  0.89240  0.71650  1.0000 0.1547598658
H   H16       1.0  0.89240  0.77520  0.71650  1.0000 0.1547598658
C   C1        1.0  0.26640  0.33490  0.62650  1.0000 0.0660607485
C   C2        1.0  0.33490  0.73360  0.62650  1.0000 0.0660607485
C   C3        1.0  0.73360  0.66510  0.62650  1.0000 0.0660607485
C   C4        1.0  0.66510  0.26640  0.62650  1.0000 0.0660607485
C   C5        1.0  0.73360  0.33490  0.37350  1.0000 0.0660607485
C   C6        1.0  0.33490  0.26640  0.37350  1.0000 0.0660607485
C   C7        1.0  0.26640  0.66510  0.37350  1.0000 0.0660607485
C   C8        1.0  0.66510  0.73360  0.37350  1.0000 0.0660607485
C   C9        1.0  0.23360  0.16510  0.37350  1.0000 0.0660607485
C   C10       1.0  0.16510  0.76640  0.37350  1.0000 0.0660607485
C   C11       1.0  0.76640  0.83490  0.37350  1.0000 0.0660607485
C   C12       1.0  0.83490  0.23360  0.37350  1.0000 0.0660607485
C   C13       1.0  0.76640  0.16510  0.62650  1.0000 0.0660607485
C   C14       1.0  0.16510  0.23360  0.62650  1.0000 0.0660607485
C   C15       1.0  0.23360  0.83490  0.62650  1.0000 0.0660607485
C   C16       1.0  0.83490  0.76640  0.62650  1.0000 0.0660607485
N   N1        1.0  0.35113  0.35113  0.50000  1.0000 -0.1715506496
N   N2        1.0  0.35113  0.64887  0.50000  1.0000 -0.1715506496
N   N3        1.0  0.64887  0.64887  0.50000  1.0000 -0.1715506496
N   N4        1.0  0.64887  0.35113  0.50000  1.0000 -0.1715506496
N   N5        1.0  0.14887  0.14887  0.50000  1.0000 -0.1715506496
N   N6        1.0  0.14887  0.85113  0.50000  1.0000 -0.1715506496
N   N7        1.0  0.85113  0.85113  0.50000  1.0000 -0.1715506496
N   N8        1.0  0.85113  0.14887  0.50000  1.0000 -0.1715506496
F   F1        1.0  0.69980  0.50000  0.00000  1.0000 -0.6399191203
F   F2        1.0  0.50000  0.30020  0.00000  1.0000 -0.6399191203
F   F3        1.0  0.30020  0.50000  0.00000  1.0000 -0.6399191203
F   F4        1.0  0.50000  0.69980  0.00000  1.0000 -0.6399191203
F   F5        1.0  0.80020  0.00000  0.00000  1.0000 -0.6399191203
F   F6        1.0  0.00000  0.19980  0.00000  1.0000 -0.6399191203
F   F7        1.0  0.19980  0.00000  0.00000  1.0000 -0.6399191203
F   F8        1.0  0.00000  0.80020  0.00000  1.0000 -0.6399191203
F   F9        1.0  0.50000  0.50000  0.23290  1.0000 -0.6270684483
F   F10       1.0  0.50000  0.50000  0.76710  1.0000 -0.6270684483
F   F11       1.0  0.00000  0.00000  0.76710  1.0000 -0.6270684483
F   F12       1.0  0.00000  0.00000  0.23290  1.0000 -0.6270684483
