# DDEC6 charges by PACMAN v1.1 (https://github.com/mtap-research/PACMAN-charge/)
data_2012[Fe][sql]2[ASR]1
_chemical_formula_sum              "Fe1 H8 C10 S2 N12"
_cell_length_a       7.54954
_cell_length_b       7.54954
_cell_length_c       12.0161
_cell_angle_alpha    65.0537
_cell_angle_beta     114.946
_cell_angle_gamma    123.092

_symmetry_space_group_name_H-M    "P 1"
_symmetry_Int_Tables_number       1

loop_
  _symmetry_equiv_pos_as_xyz
  'x, y, z'

loop_
  _atom_site_type_symbol
  _atom_site_label
  _atom_site_symmetry_multiplicity
  _atom_site_fract_x
  _atom_site_fract_y
  _atom_site_fract_z
  _atom_site_occupancy
  _atom_site_charge
Fe  Fe1       1.0  0.00000  0.00000  0.50000  1.0000 0.674919091
H   H1        1.0  0.11650  0.88350  0.81740  1.0000 0.1352685018
H   H2        1.0  0.88350  0.11650  0.18260  1.0000 0.1352685018
H   H3        1.0  0.80650  0.19350  0.78010  1.0000 0.1267474814
H   H4        1.0  0.19350  0.80650  0.21990  1.0000 0.1267474814
H   H5        1.0  0.19950  0.48290  0.51140  1.0000 0.1154211683
H   H6        1.0  0.48290  0.19950  0.48860  1.0000 0.1154211683
H   H7        1.0  0.80050  0.51710  0.48860  1.0000 0.1154211683
H   H8        1.0  0.51710  0.80050  0.51140  1.0000 0.1154211683
C   C1        1.0  0.03700  0.96300  0.78230  1.0000 0.0924892647
C   C2        1.0  0.96300  0.03700  0.21770  1.0000 0.0924892647
C   C3        1.0  0.86690  0.13310  0.76150  1.0000 0.0685125066
C   C4        1.0  0.13310  0.86690  0.23850  1.0000 0.0685125066
C   C5        1.0  0.72910  0.27090  0.29010  1.0000 0.2580802662
C   C6        1.0  0.27090  0.72910  0.70990  1.0000 0.2580802662
C   C7        1.0  0.32150  0.48690  0.50670  1.0000 0.0338508113
C   C8        1.0  0.48690  0.32150  0.49330  1.0000 0.0338508113
C   C9        1.0  0.67850  0.51310  0.49330  1.0000 0.0338508113
C   C10       1.0  0.51310  0.67850  0.50670  1.0000 0.0338508113
S   S1        1.0  0.59724  0.40276  0.17313  1.0000 -0.3853663432
S   S2        1.0  0.40276  0.59724  0.82687  1.0000 -0.3853663432
N   N1        1.0  0.96510  0.03490  0.66170  1.0000 -0.171177221
N   N2        1.0  0.03490  0.96510  0.33830  1.0000 -0.1647987442
N   N3        1.0  0.85500  0.14500  0.64780  1.0000 -0.1834315436
N   N4        1.0  0.14500  0.85500  0.35220  1.0000 -0.1834315436
N   N5        1.0  0.97940  0.02060  0.84910  1.0000 0.0986374577
N   N6        1.0  0.02060  0.97940  0.15090  1.0000 0.0986374577
N   N7        1.0  0.03490  0.96510  0.98030  1.0000 -0.0356386427
N   N8        1.0  0.96510  0.03490  0.01970  1.0000 -0.0356386427
N   N9        1.0  0.82220  0.17780  0.37090  1.0000 -0.4721372502
N   N10       1.0  0.17780  0.82220  0.62910  1.0000 -0.4721372502
N   N11       1.0  0.30650  0.30650  0.50000  1.0000 -0.171177221
N   N12       1.0  0.69350  0.69350  0.50000  1.0000 -0.171177221
