# DDEC6 charges by PACMAN v1.1 (https://github.com/mtap-research/PACMAN-charge/)
data_2012[Zn][sod]3[ASR]10
_chemical_formula_sum              "Zn6 H60 C48 N24"
_cell_length_a       14.8376
_cell_length_b       14.8376
_cell_length_c       14.8376
_cell_angle_alpha    109.471
_cell_angle_beta     109.471
_cell_angle_gamma    109.471

_symmetry_space_group_name_H-M    "P 1"
_symmetry_Int_Tables_number       1

loop_
  _symmetry_equiv_pos_as_xyz
  'x, y, z'

loop_
  _atom_site_type_symbol
  _atom_site_label
  _atom_site_symmetry_multiplicity
  _atom_site_fract_x
  _atom_site_fract_y
  _atom_site_fract_z
  _atom_site_occupancy
  _atom_site_charge
Zn  Zn1       1.0  0.25000  0.50000  0.75000  1.0000 0.6534950268
Zn  Zn2       1.0  0.75000  0.50000  0.25000  1.0000 0.6534950268
Zn  Zn3       1.0  0.75000  0.25000  0.50000  1.0000 0.6534950268
Zn  Zn4       1.0  0.25000  0.75000  0.50000  1.0000 0.6534950268
Zn  Zn5       1.0  0.50000  0.75000  0.25000  1.0000 0.6534950268
Zn  Zn6       1.0  0.50000  0.25000  0.75000  1.0000 0.6534950268
H   H1        1.0  0.10200  0.56540  0.84500  1.0000 0.1152414516
H   H2        1.0  0.72040  0.25700  0.15500  1.0000 0.1152414516
H   H3        1.0  0.27960  0.43460  0.53660  1.0000 0.1152414516
H   H4        1.0  0.89800  0.74300  0.46340  1.0000 0.1152414516
H   H5        1.0  0.84500  0.10200  0.56540  1.0000 0.1152414516
H   H6        1.0  0.15500  0.72040  0.25700  1.0000 0.1152414516
H   H7        1.0  0.53660  0.27960  0.43460  1.0000 0.1152414516
H   H8        1.0  0.46340  0.89800  0.74300  1.0000 0.1152414516
H   H9        1.0  0.56540  0.84500  0.10200  1.0000 0.1152414516
H   H10       1.0  0.25700  0.15500  0.72040  1.0000 0.1152414516
H   H11       1.0  0.43460  0.53660  0.27960  1.0000 0.1152414516
H   H12       1.0  0.74300  0.46340  0.89800  1.0000 0.1152414516
H   H13       1.0  0.56540  0.10200  0.84500  1.0000 0.1152414516
H   H14       1.0  0.25700  0.72040  0.15500  1.0000 0.1152414516
H   H15       1.0  0.43460  0.27960  0.53660  1.0000 0.1152414516
H   H16       1.0  0.74300  0.89800  0.46340  1.0000 0.1152414516
H   H17       1.0  0.10200  0.84500  0.56540  1.0000 0.1152414516
H   H18       1.0  0.72040  0.15500  0.25700  1.0000 0.1145672557
H   H19       1.0  0.27960  0.53660  0.43460  1.0000 0.1152414516
H   H20       1.0  0.89800  0.46340  0.74300  1.0000 0.1152414516
H   H21       1.0  0.84500  0.56540  0.10200  1.0000 0.1152414516
H   H22       1.0  0.15500  0.25700  0.72040  1.0000 0.1152414516
H   H23       1.0  0.53660  0.43460  0.27960  1.0000 0.1152414516
H   H24       1.0  0.46340  0.74300  0.89800  1.0000 0.1152414516
H   H25       1.0  0.00000  0.21530  0.54050  1.0000 0.1502394571
H   H26       1.0  0.67480  0.45950  0.45950  1.0000 0.1502394571
H   H27       1.0  0.32520  0.78470  0.78470  1.0000 0.1502394571
H   H28       1.0  1.00000  0.54050  0.21530  1.0000 0.1502394571
H   H29       1.0  0.54050  0.00000  0.21530  1.0000 0.1502394571
H   H30       1.0  0.45950  0.67480  0.45950  1.0000 0.1502394571
H   H31       1.0  0.78470  0.32520  0.78470  1.0000 0.1502394571
H   H32       1.0  0.21530  0.00000  0.54050  1.0000 0.1502394571
H   H33       1.0  0.21530  0.54050  0.00000  1.0000 0.1502394571
H   H34       1.0  0.45950  0.45950  0.67480  1.0000 0.1502394571
H   H35       1.0  0.78470  0.78470  0.32520  1.0000 0.1502394571
H   H36       1.0  0.54050  0.21530  0.00000  1.0000 0.1502394571
H   H37       1.0  0.06600  0.31320  0.52460  1.0000 0.1502394571
H   H38       1.0  0.78860  0.54140  0.47540  1.0000 0.1502394571
H   H39       1.0  0.21140  0.68680  0.75280  1.0000 0.1502394571
H   H40       1.0  0.93400  0.45860  0.24720  1.0000 0.1502394571
H   H41       1.0  0.52460  0.06600  0.31320  1.0000 0.1502394571
H   H42       1.0  0.47540  0.78860  0.54140  1.0000 0.1502394571
H   H43       1.0  0.75280  0.21140  0.68680  1.0000 0.1502394571
H   H44       1.0  0.24720  0.93400  0.45860  1.0000 0.1502394571
H   H45       1.0  0.31320  0.52460  0.06600  1.0000 0.1502394571
H   H46       1.0  0.54140  0.47540  0.78860  1.0000 0.1502394571
H   H47       1.0  0.68680  0.75280  0.21140  1.0000 0.1502394571
H   H48       1.0  0.45860  0.24720  0.93400  1.0000 0.1502394571
H   H49       1.0  0.31320  0.06600  0.52460  1.0000 0.1502394571
H   H50       1.0  0.54140  0.78860  0.47540  1.0000 0.1502394571
H   H51       1.0  0.68680  0.21140  0.75280  1.0000 0.1502394571
H   H52       1.0  0.45860  0.93400  0.24720  1.0000 0.1502394571
H   H53       1.0  0.06600  0.52460  0.31320  1.0000 0.1502394571
H   H54       1.0  0.78860  0.47540  0.54140  1.0000 0.1502394571
H   H55       1.0  0.21140  0.75280  0.68680  1.0000 0.1502394571
H   H56       1.0  0.93400  0.24720  0.45860  1.0000 0.1502394571
H   H57       1.0  0.52460  0.31320  0.06600  1.0000 0.1502394571
H   H58       1.0  0.47540  0.54140  0.78860  1.0000 0.1502394571
H   H59       1.0  0.75280  0.68680  0.21140  1.0000 0.1502394571
H   H60       1.0  0.24720  0.45860  0.93400  1.0000 0.1502394571
C   C1        1.0  0.00000  0.35780  0.62220  1.0000 0.3879888363
C   C2        1.0  0.73561  0.37781  0.37781  1.0000 0.3879888363
C   C3        1.0  0.26439  0.64219  0.64219  1.0000 0.3879888363
C   C4        1.0  0.00000  0.62220  0.35780  1.0000 0.3879888363
C   C5        1.0  0.62220  0.00000  0.35780  1.0000 0.3879888363
C   C6        1.0  0.37781  0.73561  0.37781  1.0000 0.3879888363
C   C7        1.0  0.64219  0.26439  0.64219  1.0000 0.3879888363
C   C8        1.0  0.35780  0.00000  0.62220  1.0000 0.3879888363
C   C9        1.0  0.35780  0.62220  0.00000  1.0000 0.3879888363
C   C10       1.0  0.37781  0.37781  0.73561  1.0000 0.3879888363
C   C11       1.0  0.64219  0.64219  0.26439  1.0000 0.3879888363
C   C12       1.0  0.62220  0.35780  0.00000  1.0000 0.3879888363
C   C13       1.0  0.05620  0.49941  0.77541  1.0000 -0.0688449637
C   C14       1.0  0.72400  0.28079  0.22459  1.0000 -0.0688449637
C   C15       1.0  0.27600  0.50059  0.55679  1.0000 -0.0688449637
C   C16       1.0  0.94380  0.71921  0.44321  1.0000 -0.0688449637
C   C17       1.0  0.77541  0.05620  0.49941  1.0000 -0.0688449637
C   C18       1.0  0.22459  0.72400  0.28079  1.0000 -0.0688449637
C   C19       1.0  0.55679  0.27600  0.50059  1.0000 -0.0688449637
C   C20       1.0  0.44321  0.94380  0.71921  1.0000 -0.0688449637
C   C21       1.0  0.49941  0.77541  0.05620  1.0000 -0.0688449637
C   C22       1.0  0.28079  0.22459  0.72400  1.0000 -0.0688449637
C   C23       1.0  0.50059  0.55679  0.27600  1.0000 -0.0688449637
C   C24       1.0  0.71921  0.44321  0.94380  1.0000 -0.0688449637
C   C25       1.0  0.49941  0.05620  0.77541  1.0000 -0.0688449637
C   C26       1.0  0.28079  0.72400  0.22459  1.0000 -0.0688449637
C   C27       1.0  0.50059  0.27600  0.55679  1.0000 -0.0688449637
C   C28       1.0  0.71921  0.94380  0.44321  1.0000 -0.0688449637
C   C29       1.0  0.05620  0.77541  0.49941  1.0000 -0.0688449637
C   C30       1.0  0.72400  0.22459  0.28079  1.0000 -0.0688449637
C   C31       1.0  0.27600  0.55679  0.50059  1.0000 -0.0688449637
C   C32       1.0  0.94380  0.44321  0.71921  1.0000 -0.0688449637
C   C33       1.0  0.77541  0.49941  0.05620  1.0000 -0.0688449637
C   C34       1.0  0.22459  0.28079  0.72400  1.0000 -0.0688449637
C   C35       1.0  0.55679  0.50059  0.27600  1.0000 -0.0688449637
C   C36       1.0  0.44321  0.71921  0.94380  1.0000 -0.0688449637
C   C37       1.0  0.00000  0.27620  0.52820  1.0000 -0.5326781042
C   C38       1.0  0.74800  0.47180  0.47180  1.0000 -0.5326781042
C   C39       1.0  0.25200  0.72380  0.72380  1.0000 -0.5326781042
C   C40       1.0  1.00000  0.52820  0.27620  1.0000 -0.5326781042
C   C41       1.0  0.52820  0.00000  0.27620  1.0000 -0.5326781042
C   C42       1.0  0.47180  0.74800  0.47180  1.0000 -0.5326781042
C   C43       1.0  0.72380  0.25200  0.72380  1.0000 -0.5326781042
C   C44       1.0  0.27620  0.00000  0.52820  1.0000 -0.5326781042
C   C45       1.0  0.27620  0.52820  0.00000  1.0000 -0.5326781042
C   C46       1.0  0.47180  0.47180  0.74800  1.0000 -0.5326781042
C   C47       1.0  0.72380  0.72380  0.25200  1.0000 -0.5326781042
C   C48       1.0  0.52820  0.27620  0.00000  1.0000 -0.5326781042
N   N1        1.0  0.09242  0.44442  0.71428  1.0000 -0.3627567048
N   N2        1.0  0.73014  0.37814  0.28572  1.0000 -0.3627567048
N   N3        1.0  0.26986  0.55558  0.64800  1.0000 -0.3627567048
N   N4        1.0  0.90758  0.62186  0.35200  1.0000 -0.3627567048
N   N5        1.0  0.71428  0.09242  0.44442  1.0000 -0.3627567048
N   N6        1.0  0.28572  0.73014  0.37814  1.0000 -0.3627567048
N   N7        1.0  0.64800  0.26986  0.55558  1.0000 -0.3627567048
N   N8        1.0  0.35200  0.90758  0.62186  1.0000 -0.3627567048
N   N9        1.0  0.44442  0.71428  0.09242  1.0000 -0.3627567048
N   N10       1.0  0.37814  0.28572  0.73014  1.0000 -0.3627567048
N   N11       1.0  0.55558  0.64800  0.26986  1.0000 -0.3627567048
N   N12       1.0  0.62186  0.35200  0.90758  1.0000 -0.3627567048
N   N13       1.0  0.44442  0.09242  0.71428  1.0000 -0.3627567048
N   N14       1.0  0.37814  0.73014  0.28572  1.0000 -0.3627567048
N   N15       1.0  0.55558  0.26986  0.64800  1.0000 -0.3627567048
N   N16       1.0  0.62186  0.90758  0.35200  1.0000 -0.3627567048
N   N17       1.0  0.09242  0.71428  0.44442  1.0000 -0.3627567048
N   N18       1.0  0.73014  0.28572  0.37814  1.0000 -0.3627567048
N   N19       1.0  0.26986  0.64800  0.55558  1.0000 -0.3627567048
N   N20       1.0  0.90758  0.35200  0.62186  1.0000 -0.3627567048
N   N21       1.0  0.71428  0.44442  0.09242  1.0000 -0.3627567048
N   N22       1.0  0.28572  0.37814  0.73014  1.0000 -0.3627567048
N   N23       1.0  0.64800  0.55558  0.26986  1.0000 -0.3627567048
N   N24       1.0  0.35200  0.62186  0.90758  1.0000 -0.3627567048
