# DDEC6 charges by PACMAN v1.1 (https://github.com/mtap-research/PACMAN-charge/)
data_2012[Cd][bpq]3[ASR]1
_chemical_formula_sum              "Cd2 H16 C12 N12 Cl2"
_cell_length_a       12.1968
_cell_length_b       12.1968
_cell_length_c       12.1968
_cell_angle_alpha    143.595
_cell_angle_beta     132.235
_cell_angle_gamma    61.5092

_symmetry_space_group_name_H-M    "P 1"
_symmetry_Int_Tables_number       1

loop_
  _symmetry_equiv_pos_as_xyz
  'x, y, z'

loop_
  _atom_site_type_symbol
  _atom_site_label
  _atom_site_symmetry_multiplicity
  _atom_site_fract_x
  _atom_site_fract_y
  _atom_site_fract_z
  _atom_site_occupancy
  _atom_site_charge
Cd  Cd1       1.0  0.50000  0.00000  0.00000  1.0000 0.6957759595
Cd  Cd2       1.0  0.50000  0.50000  0.50000  1.0000 0.6957759595
H   H1        1.0  0.16220  0.86560  0.80980  1.0000 0.1109419799
H   H2        1.0  0.44420  0.63440  0.29660  1.0000 0.1109419799
H   H3        1.0  0.83780  0.64760  0.70340  1.0000 0.1109419799
H   H4        1.0  0.55580  0.85240  0.19020  1.0000 0.1109419799
H   H5        1.0  0.83780  0.13440  0.19020  1.0000 0.1109419799
H   H6        1.0  0.55580  0.36560  0.70340  1.0000 0.1109419799
H   H7        1.0  0.16220  0.35240  0.29660  1.0000 0.1109419799
H   H8        1.0  0.44420  0.14760  0.80980  1.0000 0.1109419799
H   H9        1.0  0.91770  0.42120  0.29010  1.0000 0.1022427863
H   H10       1.0  0.36890  0.07880  0.49650  1.0000 0.1022427863
H   H11       1.0  0.08230  0.37240  0.50350  1.0000 0.1022427863
H   H12       1.0  0.63110  0.12760  0.70990  1.0000 0.1022427863
H   H13       1.0  0.08230  0.57880  0.70990  1.0000 0.1022427863
H   H14       1.0  0.63110  0.92120  0.50350  1.0000 0.1022427863
H   H15       1.0  0.91770  0.62760  0.49650  1.0000 0.1022427863
H   H16       1.0  0.36890  0.87240  0.29010  1.0000 0.1022427863
C   C1        1.0  0.18990  0.76150  0.70980  1.0000 0.0288901495
C   C2        1.0  0.44830  0.73850  0.42840  1.0000 0.0288901495
C   C3        1.0  0.81010  0.51990  0.57160  1.0000 0.0288901495
C   C4        1.0  0.55170  0.98010  0.29020  1.0000 0.0288901495
C   C5        1.0  0.81010  0.23850  0.29020  1.0000 0.0288901495
C   C6        1.0  0.55170  0.26150  0.57160  1.0000 0.0288901495
C   C7        1.0  0.18990  0.48010  0.42840  1.0000 0.0288901495
C   C8        1.0  0.44830  0.01990  0.70980  1.0000 0.0288901495
C   C9        1.0  0.97740  0.52690  0.45050  1.0000 -0.1669624226
C   C10       1.0  0.42360  0.97310  0.45050  1.0000 -0.1669624226
C   C11       1.0  0.02260  0.47310  0.54950  1.0000 -0.1669624226
C   C12       1.0  0.57640  0.02690  0.54950  1.0000 -0.1669624226
N   N1        1.0  0.30750  0.76160  0.72650  1.0000 -0.197020706
N   N2        1.0  0.46490  0.73840  0.54590  1.0000 -0.197020706
N   N3        1.0  0.69250  0.41900  0.45410  1.0000 -0.197020706
N   N4        1.0  0.53510  0.08100  0.27350  1.0000 -0.197020706
N   N5        1.0  0.69250  0.23840  0.27350  1.0000 -0.197020706
N   N6        1.0  0.53510  0.26160  0.45410  1.0000 -0.197020706
N   N7        1.0  0.30750  0.58100  0.54590  1.0000 -0.197020706
N   N8        1.0  0.46490  0.91900  0.72650  1.0000 -0.197020706
N   N9        1.0  0.11640  0.58890  0.52750  1.0000 0.0152443143
N   N10       1.0  0.43860  0.91110  0.52750  1.0000 0.0152443143
N   N11       1.0  0.88360  0.41110  0.47250  1.0000 0.0152443143
N   N12       1.0  0.56140  0.08890  0.47250  1.0000 0.0152443143
Cl  Cl1       1.0  0.32020  0.25000  0.07020  1.0000 -0.5725565815
Cl  Cl2       1.0  0.67980  0.75000  0.92980  1.0000 -0.5725565815
