# DDEC6 charges by PACMAN v1.1 (https://github.com/mtap-research/PACMAN-charge/)
data_2012[Tb][nan]3[ASR]6
_chemical_formula_sum              "Tb8 H80 C160 O80"
_cell_length_a       23.896
_cell_length_b       11.35
_cell_length_c       37.9215
_cell_angle_alpha    90
_cell_angle_beta     121.009
_cell_angle_gamma    90

_symmetry_space_group_name_H-M    "P 1"
_symmetry_Int_Tables_number       1

loop_
  _symmetry_equiv_pos_as_xyz
  'x, y, z'

loop_
  _atom_site_type_symbol
  _atom_site_label
  _atom_site_symmetry_multiplicity
  _atom_site_fract_x
  _atom_site_fract_y
  _atom_site_fract_z
  _atom_site_occupancy
  _atom_site_charge
Tb  Tb1       1.0  0.21094  0.75897  0.62555  1.0000 2.0706796483
Tb  Tb2       1.0  0.78906  0.25897  0.87445  1.0000 2.0706796483
Tb  Tb3       1.0  0.78906  0.24103  0.37445  1.0000 2.0706796483
Tb  Tb4       1.0  0.21094  0.74103  0.12555  1.0000 2.0706796483
Tb  Tb5       1.0  0.27333  0.26576  0.39887  1.0000 2.0490036444
Tb  Tb6       1.0  0.72667  0.76576  0.10113  1.0000 2.0490036444
Tb  Tb7       1.0  0.72667  0.73424  0.60113  1.0000 2.0490036444
Tb  Tb8       1.0  0.27333  0.23424  0.89887  1.0000 2.0490036444
H   H1        1.0  0.15770  0.64930  0.73350  1.0000 0.1470365045
H   H2        1.0  0.84230  0.14930  0.76650  1.0000 0.1470365045
H   H3        1.0  0.84230  0.35070  0.26650  1.0000 0.1470365045
H   H4        1.0  0.15770  0.85070  0.23350  1.0000 0.1470365045
H   H5        1.0  0.28760  0.44370  0.72900  1.0000 0.1391784467
H   H6        1.0  0.71240  0.94370  0.77100  1.0000 0.1391784467
H   H7        1.0  0.71240  0.55630  0.27100  1.0000 0.1391784467
H   H8        1.0  0.28760  0.05630  0.22900  1.0000 0.1391784467
H   H9        1.0  0.04580  0.65220  0.48330  1.0000 0.1302226936
H   H10       1.0  0.95420  0.15220  0.01670  1.0000 0.1302226936
H   H11       1.0  0.95420  0.34780  0.51670  1.0000 0.1302226936
H   H12       1.0  0.04580  0.84780  0.98330  1.0000 0.1302226936
H   H13       1.0  0.04900  0.43540  0.56730  1.0000 0.1391784467
H   H14       1.0  0.95100  0.93540  0.93270  1.0000 0.1391784467
H   H15       1.0  0.95100  0.56460  0.43270  1.0000 0.1391784467
H   H16       1.0  0.04900  0.06460  0.06730  1.0000 0.1391784467
H   H17       1.0  0.07740  0.85260  0.52390  1.0000 0.1214115131
H   H18       1.0  0.92260  0.35260  0.97610  1.0000 0.1214115131
H   H19       1.0  0.92260  0.14740  0.47610  1.0000 0.1214115131
H   H20       1.0  0.07740  0.64740  0.02390  1.0000 0.1214115131
H   H21       1.0  0.98820  0.11780  0.54540  1.0000 0.1214115131
H   H22       1.0  0.01180  0.61780  0.95460  1.0000 0.1214115131
H   H23       1.0  0.01180  0.88220  0.45460  1.0000 0.1214115131
H   H24       1.0  0.98820  0.38220  0.04540  1.0000 0.1214115131
H   H25       1.0  0.18260  0.87900  0.52110  1.0000 0.1214115131
H   H26       1.0  0.81740  0.37900  0.97890  1.0000 0.1214115131
H   H27       1.0  0.81740  0.12100  0.47890  1.0000 0.1214115131
H   H28       1.0  0.18260  0.62100  0.02110  1.0000 0.1214115131
H   H29       1.0  0.13800  0.93600  0.45570  1.0000 0.1302226936
H   H30       1.0  0.86200  0.43600  0.04430  1.0000 0.1302226936
H   H31       1.0  0.86200  0.06400  0.54430  1.0000 0.1302226936
H   H32       1.0  0.13800  0.56400  0.95570  1.0000 0.1302226936
H   H33       1.0  0.26530  0.20450  0.49280  1.0000 0.1214115131
H   H34       1.0  0.73470  0.70450  0.00720  1.0000 0.1214115131
H   H35       1.0  0.73470  0.79550  0.50720  1.0000 0.1214115131
H   H36       1.0  0.26530  0.29550  0.99280  1.0000 0.1214115131
H   H37       1.0  0.30970  0.14510  0.55970  1.0000 0.1302226936
H   H38       1.0  0.69030  0.64510  0.94030  1.0000 0.1302226936
H   H39       1.0  0.69030  0.85490  0.44030  1.0000 0.1302226936
H   H40       1.0  0.30970  0.35490  0.05970  1.0000 0.1302226936
H   H41       1.0  0.37400  0.45560  0.58900  1.0000 0.1391784467
H   H42       1.0  0.62600  0.95560  0.91100  1.0000 0.1391784467
H   H43       1.0  0.62600  0.54440  0.41100  1.0000 0.1391784467
H   H44       1.0  0.37400  0.04440  0.08900  1.0000 0.1391784467
H   H45       1.0  0.33940  0.39610  0.52260  1.0000 0.1302226936
H   H46       1.0  0.66060  0.89610  0.97740  1.0000 0.1302226936
H   H47       1.0  0.66060  0.60390  0.47740  1.0000 0.1302226936
H   H48       1.0  0.33940  0.10390  0.02260  1.0000 0.1302226936
H   H49       1.0  0.21390  0.66550  0.48020  1.0000 0.1302226936
H   H50       1.0  0.78610  0.16550  0.01980  1.0000 0.1302226936
H   H51       1.0  0.78610  0.33450  0.51980  1.0000 0.1302226936
H   H52       1.0  0.21390  0.83450  0.98020  1.0000 0.1302226936
H   H53       1.0  0.25290  0.72630  0.54640  1.0000 0.1214115131
H   H54       1.0  0.74710  0.22630  0.95360  1.0000 0.1214115131
H   H55       1.0  0.74710  0.27370  0.45360  1.0000 0.1214115131
H   H56       1.0  0.25290  0.77370  0.04640  1.0000 0.1214115131
H   H57       1.0  0.16270  0.53040  0.78390  1.0000 0.1391784467
H   H58       1.0  0.83730  0.03040  0.71610  1.0000 0.1391784467
H   H59       1.0  0.83730  0.46960  0.21610  1.0000 0.1391784467
H   H60       1.0  0.16270  0.96960  0.28390  1.0000 0.1391784467
H   H61       1.0  0.29370  0.32860  0.78120  1.0000 0.1470365045
H   H62       1.0  0.70630  0.82860  0.71880  1.0000 0.1470365045
H   H63       1.0  0.70630  0.67140  0.21880  1.0000 0.1470365045
H   H64       1.0  0.29370  0.17140  0.28120  1.0000 0.1470365045
H   H65       1.0  0.43490  0.94380  0.43210  1.0000 0.1391784467
H   H66       1.0  0.56510  0.44380  0.06790  1.0000 0.1391784467
H   H67       1.0  0.56510  0.05620  0.56790  1.0000 0.1391784467
H   H68       1.0  0.43490  0.55620  0.93210  1.0000 0.1391784467
H   H69       1.0  0.46530  0.14410  0.52770  1.0000 0.1391784467
H   H70       1.0  0.53470  0.64410  0.97230  1.0000 0.1391784467
H   H71       1.0  0.53470  0.85590  0.47230  1.0000 0.1391784467
H   H72       1.0  0.46530  0.35590  0.02770  1.0000 0.1391784467
H   H73       1.0  0.42410  0.35640  0.48440  1.0000 0.1214115131
H   H74       1.0  0.57590  0.85640  0.01560  1.0000 0.1214115131
H   H75       1.0  0.57590  0.64360  0.51560  1.0000 0.1214115131
H   H76       1.0  0.42410  0.14360  0.98440  1.0000 0.1214115131
H   H77       1.0  0.49330  0.61480  0.44870  1.0000 0.1302226936
H   H78       1.0  0.50670  0.11480  0.05130  1.0000 0.1302226936
H   H79       1.0  0.50670  0.38520  0.55130  1.0000 0.1302226936
H   H80       1.0  0.49330  0.88520  0.94870  1.0000 0.1302226936
C   C1        1.0  0.21840  0.63160  0.69120  1.0000 0.5709033147
C   C2        1.0  0.78160  0.13160  0.80880  1.0000 0.5709033147
C   C3        1.0  0.78160  0.36840  0.30880  1.0000 0.5709033147
C   C4        1.0  0.21840  0.86840  0.19120  1.0000 0.5709033147
C   C5        1.0  0.22120  0.55650  0.72730  1.0000 -0.0085876277
C   C6        1.0  0.77880  0.05650  0.77270  1.0000 -0.0085876277
C   C7        1.0  0.77880  0.44350  0.27270  1.0000 -0.0085876277
C   C8        1.0  0.22120  0.94350  0.22730  1.0000 -0.0085876277
C   C9        1.0  0.18500  0.58390  0.74280  1.0000 -0.0818296905
C   C10       1.0  0.81500  0.08390  0.75720  1.0000 -0.0818296905
C   C11       1.0  0.81500  0.41610  0.25720  1.0000 -0.0818296905
C   C12       1.0  0.18500  0.91610  0.24280  1.0000 -0.0818296905
C   C13       1.0  0.26250  0.46170  0.74060  1.0000 -0.0818296905
C   C14       1.0  0.73750  0.96170  0.75940  1.0000 -0.0818296905
C   C15       1.0  0.73750  0.53830  0.25940  1.0000 -0.0818296905
C   C16       1.0  0.26250  0.03830  0.24060  1.0000 -0.0897803384
C   C17       1.0  0.11610  0.61830  0.56310  1.0000 0.5580289797
C   C18       1.0  0.88390  0.11830  0.93690  1.0000 0.5580289797
C   C19       1.0  0.88390  0.38170  0.43690  1.0000 0.5580289797
C   C20       1.0  0.11610  0.88170  0.06310  1.0000 0.5580289797
C   C21       1.0  0.05470  0.55580  0.52990  1.0000 0.0184560041
C   C22       1.0  0.94530  0.05580  0.97010  1.0000 0.0184560041
C   C23       1.0  0.94530  0.44420  0.47010  1.0000 0.0184560041
C   C24       1.0  0.05470  0.94420  0.02990  1.0000 0.0184560041
C   C25       1.0  0.02680  0.59140  0.49000  1.0000 -0.0980117363
C   C26       1.0  0.97320  0.09140  0.01000  1.0000 -0.0980117363
C   C27       1.0  0.97320  0.40860  0.51000  1.0000 -0.0980117363
C   C28       1.0  0.02680  0.90860  0.99000  1.0000 -0.0980117363
C   C29       1.0  0.02890  0.46180  0.54030  1.0000 -0.0818296905
C   C30       1.0  0.97110  0.96180  0.95970  1.0000 -0.0818296905
C   C31       1.0  0.97110  0.53820  0.45970  1.0000 -0.0818296905
C   C32       1.0  0.02890  0.03820  0.04030  1.0000 -0.0818296905
C   C33       1.0  0.08180  0.95850  0.58830  1.0000 0.5986540204
C   C34       1.0  0.91820  0.45850  0.91170  1.0000 0.5986540204
C   C35       1.0  0.91820  0.04150  0.41170  1.0000 0.5986540204
C   C36       1.0  0.08180  0.54150  0.08830  1.0000 0.5986540204
C   C37       1.0  0.04120  0.98050  0.54360  1.0000 -0.0213076523
C   C38       1.0  0.95880  0.48050  0.95640  1.0000 -0.0213076523
C   C39       1.0  0.95880  0.01950  0.45640  1.0000 -0.0213076523
C   C40       1.0  0.04120  0.51950  0.04360  1.0000 -0.0213076523
C   C41       1.0  0.04630  0.91220  0.51460  1.0000 -0.0897803384
C   C42       1.0  0.95370  0.41220  0.98540  1.0000 -0.0897803384
C   C43       1.0  0.95370  0.08780  0.48540  1.0000 -0.0897803384
C   C44       1.0  0.04630  0.58780  0.01460  1.0000 -0.0897803384
C   C45       1.0  0.99330  0.06970  0.52740  1.0000 -0.0980117363
C   C46       1.0  0.00670  0.56970  0.97260  1.0000 -0.0980117363
C   C47       1.0  0.00670  0.93030  0.47260  1.0000 -0.0980117363
C   C48       1.0  0.99330  0.43030  0.02740  1.0000 -0.0980117363
C   C49       1.0  0.27340  0.97530  0.59130  1.0000 0.6185598508
C   C50       1.0  0.72660  0.47530  0.90870  1.0000 0.6185598508
C   C51       1.0  0.72660  0.02470  0.40870  1.0000 0.6185598508
C   C52       1.0  0.27340  0.52470  0.09130  1.0000 0.6185598508
C   C53       1.0  0.24970  0.00790  0.54780  1.0000 -0.0085876277
C   C54       1.0  0.75030  0.50790  0.95220  1.0000 -0.0085876277
C   C55       1.0  0.75030  0.99210  0.45220  1.0000 -0.0085876277
C   C56       1.0  0.24970  0.49210  0.04780  1.0000 -0.0085876277
C   C57       1.0  0.19880  0.94580  0.51520  1.0000 -0.0897803384
C   C58       1.0  0.80120  0.44580  0.98480  1.0000 -0.0897803384
C   C59       1.0  0.80120  0.05420  0.48480  1.0000 -0.0897803384
C   C60       1.0  0.19880  0.55420  0.01520  1.0000 -0.0897803384
C   C61       1.0  0.17290  0.97890  0.47610  1.0000 -0.0818296905
C   C62       1.0  0.82710  0.47890  0.02390  1.0000 -0.0818296905
C   C63       1.0  0.82710  0.02110  0.52390  1.0000 -0.0818296905
C   C64       1.0  0.17290  0.52110  0.97610  1.0000 -0.0818296905
C   C65       1.0  0.19630  0.07570  0.46450  1.0000 -0.0476579708
C   C66       1.0  0.80370  0.57570  0.03550  1.0000 -0.0476579708
C   C67       1.0  0.80370  0.92430  0.53550  1.0000 -0.0476579708
C   C68       1.0  0.19630  0.42430  0.96450  1.0000 -0.0476579708
C   C69       1.0  0.24840  0.13790  0.49830  1.0000 -0.0684195938
C   C70       1.0  0.75160  0.63790  0.00170  1.0000 -0.0684195938
C   C71       1.0  0.75160  0.86210  0.50170  1.0000 -0.0684195938
C   C72       1.0  0.24840  0.36210  0.99830  1.0000 -0.0684195938
C   C73       1.0  0.27490  0.10350  0.53870  1.0000 -0.1109470999
C   C74       1.0  0.72510  0.60350  0.96130  1.0000 -0.1109470999
C   C75       1.0  0.72510  0.89650  0.46130  1.0000 -0.1109470999
C   C76       1.0  0.27490  0.39650  0.03870  1.0000 -0.1109470999
C   C77       1.0  0.17390  0.11000  0.42290  1.0000 0.5986540204
C   C78       1.0  0.82610  0.61000  0.07710  1.0000 0.5986540204
C   C79       1.0  0.82610  0.89000  0.57710  1.0000 0.5986540204
C   C80       1.0  0.17390  0.39000  0.92290  1.0000 0.5986540204
C   C81       1.0  0.33430  0.62560  0.61820  1.0000 0.6130304025
C   C82       1.0  0.66570  0.12560  0.88180  1.0000 0.6130304025
C   C83       1.0  0.66570  0.37440  0.38180  1.0000 0.6130304025
C   C84       1.0  0.33430  0.87440  0.11820  1.0000 0.6130304025
C   C85       1.0  0.31610  0.59430  0.57400  1.0000 0.003897425
C   C86       1.0  0.68390  0.09430  0.92600  1.0000 0.003897425
C   C87       1.0  0.68390  0.40570  0.42600  1.0000 0.003897425
C   C88       1.0  0.31610  0.90570  0.07400  1.0000 0.003897425
C   C89       1.0  0.34190  0.49850  0.56690  1.0000 -0.0980117363
C   C90       1.0  0.65810  0.99850  0.93310  1.0000 -0.0980117363
C   C91       1.0  0.65810  0.50150  0.43310  1.0000 -0.0980117363
C   C92       1.0  0.34190  0.00150  0.06690  1.0000 -0.0980117363
C   C93       1.0  0.32130  0.46300  0.52700  1.0000 -0.0897803384
C   C94       1.0  0.67870  0.96300  0.97300  1.0000 -0.0897803384
C   C95       1.0  0.67870  0.53700  0.47300  1.0000 -0.0897803384
C   C96       1.0  0.32130  0.03700  0.02700  1.0000 -0.0897803384
C   C97       1.0  0.27380  0.52650  0.49340  1.0000 0.0117393147
C   C98       1.0  0.72620  0.02650  0.00660  1.0000 0.0117393147
C   C99       1.0  0.72620  0.47350  0.50660  1.0000 0.0117393147
C   C100      1.0  0.27380  0.97350  0.99340  1.0000 0.0117393147
C   C101      1.0  0.24730  0.62330  0.50180  1.0000 -0.0897803384
C   C102      1.0  0.75270  0.12330  0.99820  1.0000 -0.0897803384
C   C103      1.0  0.75270  0.37670  0.49820  1.0000 -0.0897803384
C   C104      1.0  0.24730  0.87670  0.00180  1.0000 -0.0897803384
C   C105      1.0  0.26960  0.65830  0.54150  1.0000 -0.0818296905
C   C106      1.0  0.73040  0.15830  0.95850  1.0000 -0.0818296905
C   C107      1.0  0.73040  0.34170  0.45850  1.0000 -0.0818296905
C   C108      1.0  0.26960  0.84170  0.04150  1.0000 -0.0818296905
C   C109      1.0  0.24960  0.48290  0.44930  1.0000 0.5986540204
C   C110      1.0  0.75040  0.98290  0.05070  1.0000 0.5986540204
C   C111      1.0  0.75040  0.51710  0.55070  1.0000 0.5986540204
C   C112      1.0  0.24960  0.01710  0.94930  1.0000 0.5986540204
C   C113      1.0  0.23640  0.34870  0.82460  1.0000 0.5709033147
C   C114      1.0  0.76360  0.84870  0.67540  1.0000 0.5709033147
C   C115      1.0  0.76360  0.65130  0.17540  1.0000 0.5709033147
C   C116      1.0  0.23640  0.15130  0.32460  1.0000 0.5709033147
C   C117      1.0  0.23150  0.41590  0.78830  1.0000 0.003897425
C   C118      1.0  0.76850  0.91590  0.71170  1.0000 0.003897425
C   C119      1.0  0.76850  0.58410  0.21170  1.0000 0.0117393147
C   C120      1.0  0.23150  0.08410  0.28830  1.0000 0.003897425
C   C121      1.0  0.18890  0.51370  0.77300  1.0000 -0.0897803384
C   C122      1.0  0.81110  0.01370  0.72700  1.0000 -0.0897803384
C   C123      1.0  0.81110  0.48630  0.22700  1.0000 -0.0897803384
C   C124      1.0  0.18890  0.98630  0.27300  1.0000 -0.0897803384
C   C125      1.0  0.26580  0.39310  0.77180  1.0000 -0.0818296905
C   C126      1.0  0.73420  0.89310  0.72820  1.0000 -0.0818296905
C   C127      1.0  0.73420  0.60690  0.22820  1.0000 -0.0818296905
C   C128      1.0  0.26580  0.10690  0.27180  1.0000 -0.0818296905
C   C129      1.0  0.37860  0.12020  0.44490  1.0000 0.5462259637
C   C130      1.0  0.62140  0.62020  0.05510  1.0000 0.5462259637
C   C131      1.0  0.62140  0.87980  0.55510  1.0000 0.5462259637
C   C132      1.0  0.37860  0.37980  0.94490  1.0000 0.5462259637
C   C133      1.0  0.44220  0.05710  0.47480  1.0000 0.0184560041
C   C134      1.0  0.55780  0.55710  0.02520  1.0000 0.0184560041
C   C135      1.0  0.55780  0.94290  0.52520  1.0000 0.0184560041
C   C136      1.0  0.44220  0.44290  0.97480  1.0000 0.0184560041
C   C137      1.0  0.46180  0.96740  0.45930  1.0000 -0.0897803384
C   C138      1.0  0.53820  0.46740  0.04070  1.0000 -0.0897803384
C   C139      1.0  0.53820  0.03260  0.54070  1.0000 -0.0897803384
C   C140      1.0  0.46180  0.53260  0.95930  1.0000 -0.0897803384
C   C141      1.0  0.48000  0.08740  0.51670  1.0000 -0.0897803384
C   C142      1.0  0.52000  0.58740  0.98330  1.0000 -0.0897803384
C   C143      1.0  0.52000  0.91260  0.48330  1.0000 -0.0897803384
C   C144      1.0  0.48000  0.41260  0.01670  1.0000 -0.0897803384
C   C145      1.0  0.39300  0.46620  0.41650  1.0000 0.635506256
C   C146      1.0  0.60700  0.96620  0.08350  1.0000 0.635506256
C   C147      1.0  0.60700  0.53380  0.58350  1.0000 0.635506256
C   C148      1.0  0.39300  0.03380  0.91650  1.0000 0.635506256
C   C149      1.0  0.44870  0.48320  0.45970  1.0000 -0.0085876277
C   C150      1.0  0.55130  0.98320  0.04030  1.0000 -0.0085876277
C   C151      1.0  0.55130  0.51680  0.54030  1.0000 -0.0085876277
C   C152      1.0  0.44870  0.01680  0.95970  1.0000 -0.0085876277
C   C153      1.0  0.45450  0.41580  0.49030  1.0000 -0.0897803384
C   C154      1.0  0.54550  0.91580  0.00970  1.0000 -0.0897803384
C   C155      1.0  0.54550  0.58420  0.50970  1.0000 -0.0897803384
C   C156      1.0  0.45450  0.08420  0.99030  1.0000 -0.0897803384
C   C157      1.0  0.49530  0.56770  0.46940  1.0000 -0.0980117363
C   C158      1.0  0.50470  0.06770  0.03060  1.0000 -0.0980117363
C   C159      1.0  0.50470  0.43230  0.53060  1.0000 -0.0980117363
C   C160      1.0  0.49530  0.93230  0.96940  1.0000 -0.0980117363
O   O1        1.0  0.17840  0.71380  0.67700  1.0000 -0.5523744239
O   O2        1.0  0.82160  0.21380  0.82300  1.0000 -0.5523744239
O   O3        1.0  0.82160  0.28620  0.32300  1.0000 -0.5523744239
O   O4        1.0  0.17840  0.78620  0.17700  1.0000 -0.5523744239
O   O5        1.0  0.25440  0.61020  0.67850  1.0000 -0.5369326337
O   O6        1.0  0.74560  0.11020  0.82150  1.0000 -0.5369326337
O   O7        1.0  0.74560  0.38980  0.32150  1.0000 -0.5369326337
O   O8        1.0  0.25440  0.88980  0.17850  1.0000 -0.5369326337
O   O9        1.0  0.13320  0.59800  0.60110  1.0000 -0.6099707382
O   O10       1.0  0.86680  0.09800  0.89890  1.0000 -0.6099707382
O   O11       1.0  0.86680  0.40200  0.39890  1.0000 -0.6099707382
O   O12       1.0  0.13320  0.90200  0.10110  1.0000 -0.6099707382
O   O13       1.0  0.14500  0.68900  0.55380  1.0000 -0.5732798441
O   O14       1.0  0.85500  0.18900  0.94620  1.0000 -0.5732798441
O   O15       1.0  0.85500  0.31100  0.44620  1.0000 -0.5732798441
O   O16       1.0  0.14500  0.81100  0.05380  1.0000 -0.5732798441
O   O17       1.0  0.12240  0.87910  0.60110  1.0000 -0.6263057355
O   O18       1.0  0.87760  0.37910  0.89890  1.0000 -0.6172592207
O   O19       1.0  0.87760  0.12090  0.39890  1.0000 -0.6263057355
O   O20       1.0  0.12240  0.62090  0.10110  1.0000 -0.6263057355
O   O21       1.0  0.07380  0.02080  0.61160  1.0000 -0.3964626579
O   O22       1.0  0.92620  0.52080  0.88840  1.0000 -0.3964626579
O   O23       1.0  0.92620  0.97920  0.38840  1.0000 -0.3964626579
O   O24       1.0  0.07380  0.47920  0.11160  1.0000 -0.3964626579
O   O25       1.0  0.24210  0.89930  0.59790  1.0000 -0.6770438864
O   O26       1.0  0.75790  0.39930  0.90210  1.0000 -0.6770438864
O   O27       1.0  0.75790  0.10070  0.40210  1.0000 -0.6770438864
O   O28       1.0  0.24210  0.60070  0.09790  1.0000 -0.6770438864
O   O29       1.0  0.32470  0.02470  0.61970  1.0000 -0.4405026897
O   O30       1.0  0.67530  0.52470  0.88030  1.0000 -0.4465919399
O   O31       1.0  0.67530  0.97530  0.38030  1.0000 -0.4465919399
O   O32       1.0  0.32470  0.47530  0.11970  1.0000 -0.4465919399
O   O33       1.0  0.20270  0.17790  0.41320  1.0000 -0.6172592207
O   O34       1.0  0.79730  0.67790  0.08680  1.0000 -0.6172592207
O   O35       1.0  0.79730  0.82210  0.58680  1.0000 -0.6099707382
O   O36       1.0  0.20270  0.32210  0.91320  1.0000 -0.6172592207
O   O37       1.0  0.11740  0.07010  0.39580  1.0000 -0.4238129122
O   O38       1.0  0.88260  0.57010  0.10420  1.0000 -0.4238129122
O   O39       1.0  0.88260  0.92990  0.60420  1.0000 -0.4238129122
O   O40       1.0  0.11740  0.42990  0.89580  1.0000 -0.4238129122
O   O41       1.0  0.29110  0.66890  0.62250  1.0000 -0.6472273377
O   O42       1.0  0.70890  0.16890  0.87750  1.0000 -0.6472273377
O   O43       1.0  0.70890  0.33110  0.37750  1.0000 -0.6472273377
O   O44       1.0  0.29110  0.83110  0.12250  1.0000 -0.6472273377
O   O45       1.0  0.39060  0.60930  0.64490  1.0000 -0.3568686708
O   O46       1.0  0.60940  0.10930  0.85510  1.0000 -0.3568686708
O   O47       1.0  0.60940  0.39070  0.35510  1.0000 -0.3568686708
O   O48       1.0  0.39060  0.89070  0.14490  1.0000 -0.3568686708
O   O49       1.0  0.27470  0.39530  0.44570  1.0000 -0.6099707382
O   O50       1.0  0.72530  0.89530  0.05430  1.0000 -0.6099707382
O   O51       1.0  0.72530  0.60470  0.55430  1.0000 -0.6099707382
O   O52       1.0  0.27470  0.10470  0.94570  1.0000 -0.6099707382
O   O53       1.0  0.20480  0.54220  0.42030  1.0000 -0.4689877911
O   O54       1.0  0.79520  0.04220  0.07970  1.0000 -0.4639857574
O   O55       1.0  0.79520  0.45780  0.57970  1.0000 -0.4689877911
O   O56       1.0  0.20480  0.95780  0.92030  1.0000 -0.4689877911
O   O57       1.0  0.27030  0.25250  0.83440  1.0000 -0.6008347585
O   O58       1.0  0.72970  0.75250  0.66560  1.0000 -0.6008347585
O   O59       1.0  0.72970  0.74750  0.16560  1.0000 -0.6008347585
O   O60       1.0  0.27030  0.24750  0.33440  1.0000 -0.6008347585
O   O61       1.0  0.21270  0.37950  0.84320  1.0000 -0.4777521415
O   O62       1.0  0.78730  0.87950  0.65680  1.0000 -0.4689877911
O   O63       1.0  0.78730  0.62050  0.15680  1.0000 -0.4777521415
O   O64       1.0  0.21270  0.12050  0.34320  1.0000 -0.4777521415
O   O65       1.0  0.35100  0.10860  0.40890  1.0000 -0.4777521415
O   O66       1.0  0.64900  0.60860  0.09110  1.0000 -0.4777521415
O   O67       1.0  0.64900  0.89140  0.59110  1.0000 -0.4689877911
O   O68       1.0  0.35100  0.39140  0.90890  1.0000 -0.4777521415
O   O69       1.0  0.35460  0.18170  0.46300  1.0000 -0.6379575058
O   O70       1.0  0.64540  0.68170  0.03700  1.0000 -0.6379575058
O   O71       1.0  0.64540  0.81830  0.53700  1.0000 -0.6379575058
O   O72       1.0  0.35460  0.31830  0.96300  1.0000 -0.6379575058
O   O73       1.0  0.35380  0.38550  0.40920  1.0000 -0.6472273377
O   O74       1.0  0.64620  0.88550  0.09080  1.0000 -0.6472273377
O   O75       1.0  0.64620  0.61450  0.59080  1.0000 -0.6379575058
O   O76       1.0  0.35380  0.11450  0.90920  1.0000 -0.6472273377
O   O77       1.0  0.38920  0.52970  0.38680  1.0000 -0.4777521415
O   O78       1.0  0.61080  0.02970  0.11320  1.0000 -0.4777521415
O   O79       1.0  0.61080  0.47030  0.61320  1.0000 -0.4777521415
O   O80       1.0  0.38920  0.97030  0.88680  1.0000 -0.4777521415
