# DDEC6 charges by PACMAN v1.1 (https://github.com/mtap-research/PACMAN-charge/)
data_2012[Co][gra]2[ASR]1
_chemical_formula_sum              "Co4 H76 C100 N12 O16"
_cell_length_a       28.0955
_cell_length_b       26.6395
_cell_length_c       11.3495
_cell_angle_alpha    85.3411
_cell_angle_beta     70.9163
_cell_angle_gamma    23.7425

_symmetry_space_group_name_H-M    "P 1"
_symmetry_Int_Tables_number       1

loop_
  _symmetry_equiv_pos_as_xyz
  'x, y, z'

loop_
  _atom_site_type_symbol
  _atom_site_label
  _atom_site_symmetry_multiplicity
  _atom_site_fract_x
  _atom_site_fract_y
  _atom_site_fract_z
  _atom_site_occupancy
  _atom_site_charge
Co  Co1       1.0  0.79313  0.28328  0.88599  1.0000 0.7239478321
Co  Co2       1.0  0.36400  0.21241  0.45687  1.0000 0.7239478321
Co  Co3       1.0  0.96672  0.45687  0.21241  1.0000 0.7251363487
Co  Co4       1.0  0.03759  0.88599  0.28328  1.0000 0.7251363487
H   H1        1.0  0.25710  0.81290  0.76470  1.0000 0.1101878437
H   H2        1.0  0.48530  0.08470  0.99289  1.0000 0.1101878437
H   H3        1.0  0.29930  0.77710  0.38310  1.0000 0.118299172
H   H4        1.0  0.86691  0.70950  0.95069  1.0000 0.118299172
H   H5        1.0  0.67090  0.40270  0.35690  1.0000 0.1101878437
H   H6        1.0  0.89310  0.68050  0.57910  1.0000 0.1101878437
H   H7        1.0  0.51041  0.59380  0.93480  1.0000 0.1101878437
H   H8        1.0  0.31520  0.28900  0.73960  1.0000 0.1101878437
H   H9        1.0  0.39670  0.70910  0.82349  1.0000 0.1285850298
H   H10       1.0  0.42650  0.17930  0.85330  1.0000 0.1285850298
H   H11       1.0  0.72620  0.31040  0.49579  1.0000 0.1285850298
H   H12       1.0  0.75421  0.78240  0.52380  1.0000 0.1285850298
H   H13       1.0  0.83120  0.20540  0.61720  1.0000 0.1101878437
H   H14       1.0  0.63281  0.90380  0.41879  1.0000 0.1101878437
H   H15       1.0  0.76460  0.05560  0.05459  1.0000 0.118299172
H   H16       1.0  0.19540  0.12480  0.48540  1.0000 0.118299172
H   H17       1.0  0.60960  0.20600  0.07820  1.0000 0.1101878437
H   H18       1.0  0.17180  0.14380  0.64040  1.0000 0.1101878437
H   H19       1.0  0.89370  0.10410  0.99649  1.0000 0.1101878437
H   H20       1.0  0.25350  0.24430  0.35629  1.0000 0.1101878437
H   H21       1.0  0.85120  0.06060  0.08400  1.0000 0.1492014953
H   H22       1.0  0.16600  0.24580  0.39880  1.0000 0.1492014953
H   H23       1.0  0.56071  0.32790  0.99369  1.0000 0.1368325195
H   H24       1.0  0.25631  0.13230  0.68929  1.0000 0.1368325195
H   H25       1.0  0.60500  0.37060  0.91600  1.0000 0.1101878437
H   H26       1.0  0.33401  0.14160  0.64499  1.0000 0.1101878437
H   H27       1.0  0.64231  0.19170  0.30090  1.0000 0.1285850298
H   H28       1.0  0.94910  0.38490  0.60769  1.0000 0.1285850298
H   H29       1.0  0.48901  0.35040  0.32560  1.0000 0.118299172
H   H30       1.0  0.92440  0.41500  0.76099  1.0000 0.118299172
H   H31       1.0  0.64311  0.01410  0.32049  1.0000 0.102414021
H   H32       1.0  0.92950  0.22770  0.60689  1.0000 0.102414021
H   H33       1.0  0.72870  0.01590  0.24569  1.0000 0.1368325195
H   H34       1.0  0.00430  0.24030  0.52129  1.0000 0.1368325195
H   H35       1.0  0.30311  0.46110  0.43310  1.0000 0.1368325195
H   H36       1.0  0.81690  0.44730  0.94689  1.0000 0.1368325195
H   H37       1.0  0.23111  0.44550  0.49529  1.0000 0.1101878437
H   H38       1.0  0.75470  0.42190  0.01889  1.0000 0.1101878437
H   H39       1.0  0.43710  0.99290  0.08470  1.0000 0.1101878437
H   H40       1.0  0.16530  0.76470  0.81290  1.0000 0.1101878437
H   H41       1.0  0.47290  0.95070  0.70950  1.0000 0.118299172
H   H42       1.0  0.54050  0.38310  0.77710  1.0000 0.118299172
H   H43       1.0  0.84730  0.57910  0.68050  1.0000 0.1101878437
H   H44       1.0  0.56950  0.35690  0.40270  1.0000 0.1101878437
H   H45       1.0  0.65620  0.73960  0.28900  1.0000 0.1101878437
H   H46       1.0  0.96100  0.93480  0.59380  1.0000 0.1101878437
H   H47       1.0  0.54090  0.85329  0.17930  1.0000 0.1285850298
H   H48       1.0  0.07070  0.82349  0.70910  1.0000 0.1285850298
H   H49       1.0  0.93960  0.52380  0.78240  1.0000 0.1285850298
H   H50       1.0  0.46760  0.49579  0.31040  1.0000 0.1285850298
H   H51       1.0  0.04460  0.41880  0.90380  1.0000 0.1101878437
H   H52       1.0  0.34620  0.61720  0.20540  1.0000 0.1101878437
H   H53       1.0  0.19440  0.48540  0.12480  1.0000 0.118299172
H   H54       1.0  0.12520  0.05459  0.05560  1.0000 0.118299172
H   H55       1.0  0.04400  0.64040  0.14380  1.0000 0.1101878437
H   H56       1.0  0.10620  0.07820  0.20600  1.0000 0.1101878437
H   H57       1.0  0.14590  0.35630  0.24430  1.0000 0.1101878437
H   H58       1.0  0.00570  0.99650  0.10410  1.0000 0.1101878437
H   H59       1.0  0.18940  0.39880  0.24580  1.0000 0.1492014953
H   H60       1.0  0.00420  0.08400  0.06060  1.0000 0.1492014953
H   H61       1.0  0.92210  0.68930  0.13230  1.0000 0.1368325195
H   H62       1.0  0.11770  0.99369  0.32790  1.0000 0.1368325195
H   H63       1.0  0.87940  0.64500  0.14160  1.0000 0.1101878437
H   H64       1.0  0.10840  0.91600  0.37060  1.0000 0.1101878437
H   H65       1.0  0.05830  0.60769  0.38490  1.0000 0.1285850298
H   H66       1.0  0.86510  0.30090  0.19170  1.0000 0.1285850298
H   H67       1.0  0.89960  0.76099  0.41500  1.0000 0.118299172
H   H68       1.0  0.83500  0.32560  0.35040  1.0000 0.118299172
H   H69       1.0  0.23590  0.60690  0.22770  1.0000 0.102414021
H   H70       1.0  0.02230  0.32049  0.01410  1.0000 0.102414021
H   H71       1.0  0.23410  0.52130  0.24030  1.0000 0.1368325195
H   H72       1.0  0.00970  0.24569  0.01590  1.0000 0.1368325195
H   H73       1.0  0.78890  0.94690  0.44730  1.0000 0.1368325195
H   H74       1.0  0.80270  0.43310  0.46110  1.0000 0.1368325195
H   H75       1.0  0.80450  0.01890  0.42190  1.0000 0.1101878437
H   H76       1.0  0.82810  0.49530  0.44550  1.0000 0.1101878437
C   C1        1.0  0.47602  0.59565  0.57254  1.0000 0.0605090053
C   C2        1.0  0.67745  0.89421  0.77399  1.0000 0.0605090053
C   C3        1.0  0.31946  0.75208  0.65772  1.0000 -0.1589422061
C   C4        1.0  0.59228  0.97926  0.93054  1.0000 -0.1589422061
C   C5        1.0  0.25534  0.81833  0.58606  1.0000 -0.0106320195
C   C6        1.0  0.66394  0.90973  0.99466  1.0000 -0.0106320195
C   C7        1.0  0.34415  0.73133  0.43127  1.0000 -0.1374107806
C   C8        1.0  0.81873  0.75675  0.90585  1.0000 -0.1374107806
C   C9        1.0  0.50079  0.57514  0.34486  1.0000 -0.0106320195
C   C10       1.0  0.90514  0.67078  0.74921  1.0000 -0.0106320195
C   C11       1.0  0.56473  0.50899  0.41580  1.0000 -0.1589422061
C   C12       1.0  0.83420  0.73953  0.68527  1.0000 -0.1589422061
C   C13       1.0  0.55546  0.53492  0.84388  1.0000 0.0825961578
C   C14       1.0  0.40612  0.18426  0.69454  1.0000 0.0825961578
C   C15       1.0  0.48652  0.60460  0.77819  1.0000 -0.1993270276
C   C16       1.0  0.47181  0.11932  0.76348  1.0000 -0.1993270276
C   C17       1.0  0.54666  0.52418  0.64682  1.0000 0.118299172
C   C18       1.0  0.60318  0.96766  0.70334  1.0000 0.118299172
C   C19       1.0  0.67892  0.37177  0.58662  1.0000 -0.1930861084
C   C20       1.0  0.66338  0.88731  0.57108  1.0000 -0.1930861084
C   C21       1.0  0.74186  0.30939  0.65941  1.0000 0.0825961578
C   C22       1.0  0.59059  0.96065  0.50814  1.0000 0.0825961578
C   C23       1.0  0.08803  0.98701  0.67998  1.0000 0.5262416394
C   C24       1.0  0.57002  0.00503  0.16196  1.0000 0.5262416394
C   C25       1.0  0.59808  0.48077  0.17542  1.0000 0.5053961964
C   C26       1.0  0.07457  0.50427  0.65192  1.0000 0.5053961964
C   C27       1.0  0.66746  0.16593  0.10547  1.0000 -0.2290496605
C   C28       1.0  0.14453  0.18885  0.58254  1.0000 -0.2290496605
C   C29       1.0  0.82461  0.15062  0.99618  1.0000 0.0825961578
C   C30       1.0  0.25383  0.22140  0.42540  1.0000 0.0825961578
C   C31       1.0  0.80049  0.12342  0.04797  1.0000 -0.2121446619
C   C32       1.0  0.20202  0.22188  0.44951  1.0000 -0.2121446619
C   C33       1.0  0.70145  0.18849  0.04711  1.0000 0.1608086245
C   C34       1.0  0.20289  0.18705  0.54854  1.0000 0.1608086245
C   C35       1.0  0.62957  0.28075  0.99605  1.0000 -0.2121446619
C   C36       1.0  0.25395  0.15637  0.62043  1.0000 -0.2121446619
C   C37       1.0  0.65790  0.30452  0.94828  1.0000 0.0825961578
C   C38       1.0  0.30172  0.16070  0.59210  1.0000 0.0825961578
C   C39       1.0  0.57805  0.24346  0.27453  1.0000 -0.2411581212
C   C40       1.0  0.97546  0.34604  0.67195  1.0000 -0.2411581212
C   C41       1.0  0.57243  0.10671  0.34208  1.0000 0.0825961578
C   C42       1.0  0.90792  0.27123  0.67756  1.0000 0.0825961578
C   C43       1.0  0.62441  0.10717  0.29802  1.0000 -0.220109178
C   C44       1.0  0.95198  0.27961  0.62558  1.0000 -0.220109178
C   C45       1.0  0.52466  0.24002  0.33017  1.0000 0.1608086245
C   C46       1.0  0.91983  0.34486  0.72533  1.0000 0.1608086245
C   C47       1.0  0.37715  0.36602  0.40597  1.0000 -0.220109178
C   C48       1.0  0.84403  0.39914  0.87286  1.0000 -0.220109178
C   C49       1.0  0.33448  0.35592  0.44388  1.0000 0.0825961578
C   C50       1.0  0.80613  0.38428  0.91551  1.0000 0.0825961578
C   C51       1.0  0.65435  0.77399  0.89421  1.0000 0.0605090053
C   C52       1.0  0.35579  0.57254  0.59565  1.0000 0.0605090053
C   C53       1.0  0.49792  0.93054  0.97926  1.0000 -0.1589422061
C   C54       1.0  0.27074  0.65772  0.75208  1.0000 -0.1589422061
C   C55       1.0  0.43167  0.99467  0.90973  1.0000 -0.0106320195
C   C56       1.0  0.34027  0.58607  0.81833  1.0000 -0.0106320195
C   C57       1.0  0.51867  0.90585  0.75675  1.0000 -0.1374107806
C   C58       1.0  0.49325  0.43127  0.73133  1.0000 -0.1374107806
C   C59       1.0  0.67486  0.74921  0.67078  1.0000 -0.0106320195
C   C60       1.0  0.57922  0.34486  0.57514  1.0000 -0.0106320195
C   C61       1.0  0.74101  0.68527  0.73953  1.0000 -0.1589422061
C   C62       1.0  0.51047  0.41581  0.50899  1.0000 -0.1589422061
C   C63       1.0  0.71508  0.69454  0.18426  1.0000 0.0825961578
C   C64       1.0  0.06574  0.84388  0.53492  1.0000 0.0825961578
C   C65       1.0  0.64540  0.76348  0.11932  1.0000 -0.1993270276
C   C66       1.0  0.13068  0.77819  0.60460  1.0000 -0.1993270276
C   C67       1.0  0.72582  0.70334  0.96766  1.0000 0.118299172
C   C68       1.0  0.28234  0.64682  0.52418  1.0000 0.118299172
C   C69       1.0  0.87823  0.57109  0.88731  1.0000 -0.1930861084
C   C70       1.0  0.36269  0.58663  0.37177  1.0000 -0.1930861084
C   C71       1.0  0.94061  0.50814  0.96065  1.0000 0.0825961578
C   C72       1.0  0.28935  0.65941  0.30939  1.0000 0.0825961578
C   C73       1.0  0.26299  0.16197  0.00503  1.0000 0.5262416394
C   C74       1.0  0.24497  0.67998  0.98701  1.0000 0.5262416394
C   C75       1.0  0.76923  0.65193  0.50427  1.0000 0.5053961964
C   C76       1.0  0.74573  0.17543  0.48077  1.0000 0.5053961964
C   C77       1.0  0.08407  0.58254  0.18885  1.0000 -0.2290496605
C   C78       1.0  0.06115  0.10547  0.16593  1.0000 -0.2290496605
C   C79       1.0  0.09938  0.42540  0.22140  1.0000 0.0825961578
C   C80       1.0  0.02860  0.99618  0.15062  1.0000 0.0825961578
C   C81       1.0  0.12658  0.44951  0.22188  1.0000 -0.2121446619
C   C82       1.0  0.02812  0.04797  0.12342  1.0000 -0.2121446619
C   C83       1.0  0.06151  0.54854  0.18705  1.0000 0.1608086245
C   C84       1.0  0.06295  0.04710  0.18849  1.0000 0.1608086245
C   C85       1.0  0.96925  0.62043  0.15637  1.0000 -0.2121446619
C   C86       1.0  0.09363  0.99605  0.28075  1.0000 -0.2121446619
C   C87       1.0  0.94548  0.59210  0.16070  1.0000 0.0825961578
C   C88       1.0  0.08930  0.94828  0.30452  1.0000 0.0825961578
C   C89       1.0  0.00654  0.67195  0.34604  1.0000 -0.2411581212
C   C90       1.0  0.90396  0.27453  0.24346  1.0000 -0.2411581212
C   C91       1.0  0.14329  0.67757  0.27123  1.0000 0.0825961578
C   C92       1.0  0.97877  0.34209  0.10671  1.0000 0.0825961578
C   C93       1.0  0.14283  0.62558  0.27961  1.0000 -0.220109178
C   C94       1.0  0.97039  0.29802  0.10717  1.0000 -0.220109178
C   C95       1.0  0.00998  0.72534  0.34486  1.0000 0.1608086245
C   C96       1.0  0.90514  0.33017  0.24002  1.0000 0.1608086245
C   C97       1.0  0.88398  0.87286  0.39914  1.0000 -0.220109178
C   C98       1.0  0.85086  0.40598  0.36602  1.0000 -0.220109178
C   C99       1.0  0.89408  0.91551  0.38428  1.0000 0.0825961578
C   C100      1.0  0.86572  0.44388  0.35592  1.0000 0.0825961578
N   N1        1.0  0.68330  0.38776  0.78563  1.0000 -0.2411581212
N   N2        1.0  0.46436  0.10670  0.56669  1.0000 -0.2411581212
N   N3        1.0  0.75582  0.23928  0.94532  1.0000 -0.2411581212
N   N4        1.0  0.30468  0.19042  0.49418  1.0000 -0.2411581212
N   N5        1.0  0.43002  0.22826  0.41234  1.0000 -0.2290496605
N   N6        1.0  0.83766  0.32062  0.81998  1.0000 -0.2290496605
N   N7        1.0  0.86224  0.56669  0.10670  1.0000 -0.2411581212
N   N8        1.0  0.14330  0.78563  0.38776  1.0000 -0.2411581212
N   N9        1.0  0.01072  0.49418  0.19042  1.0000 -0.2411581212
N   N10       1.0  0.05958  0.94531  0.23928  1.0000 -0.2411581212
N   N11       1.0  0.02174  0.81998  0.32062  1.0000 -0.2290496605
N   N12       1.0  0.92938  0.41234  0.22826  1.0000 -0.2290496605
O   O1        1.0  0.01618  0.06505  0.81563  1.0000 -0.5211013663
O   O2        1.0  0.43437  0.14685  0.23382  1.0000 -0.5211013663
O   O3        1.0  0.02451  0.04573  0.62247  1.0000 -0.558092898
O   O4        1.0  0.62753  0.94271  0.22548  1.0000 -0.558092898
O   O5        1.0  0.73982  0.34244  0.09957  1.0000 -0.5211013663
O   O6        1.0  0.15043  0.43184  0.51018  1.0000 -0.5211013663
O   O7        1.0  0.54163  0.53587  0.11253  1.0000 -0.5211013663
O   O8        1.0  0.13748  0.44003  0.70837  1.0000 -0.5211013663
O   O9        1.0  0.18495  0.23383  0.14685  1.0000 -0.5211013663
O   O10       1.0  0.10315  0.81563  0.06505  1.0000 -0.5211013663
O   O11       1.0  0.20427  0.22549  0.94271  1.0000 -0.558092898
O   O12       1.0  0.30729  0.62247  0.04573  1.0000 -0.558092898
O   O13       1.0  0.90756  0.51018  0.43184  1.0000 -0.5211013663
O   O14       1.0  0.81816  0.09957  0.34244  1.0000 -0.5211013663
O   O15       1.0  0.71413  0.70837  0.44003  1.0000 -0.5211013663
O   O16       1.0  0.80997  0.11253  0.53587  1.0000 -0.5211013663
