# DDEC6 charges by PACMAN v1.1 (https://github.com/mtap-research/PACMAN-charge/)
data_2012[Mn][nan]3[ASR]5
_chemical_formula_sum              "Mn6 H6 C24 O18"
_cell_length_a       15.5094
_cell_length_b       15.5094
_cell_length_c       15.5094
_cell_angle_alpha    117.897
_cell_angle_beta     117.897
_cell_angle_gamma    117.897

_symmetry_space_group_name_H-M    "P 1"
_symmetry_Int_Tables_number       1

loop_
  _symmetry_equiv_pos_as_xyz
  'x, y, z'

loop_
  _atom_site_type_symbol
  _atom_site_label
  _atom_site_symmetry_multiplicity
  _atom_site_fract_x
  _atom_site_fract_y
  _atom_site_fract_z
  _atom_site_occupancy
  _atom_site_charge
Mn  Mn1       1.0  0.10402  0.53369  0.79120  1.0000 1.0329009046
Mn  Mn2       1.0  0.53369  0.79120  0.10402  1.0000 1.0329009046
Mn  Mn3       1.0  0.79120  0.10402  0.53369  1.0000 1.0329009046
Mn  Mn4       1.0  0.89598  0.46631  0.20880  1.0000 1.0329009046
Mn  Mn5       1.0  0.46631  0.20880  0.89598  1.0000 1.0329009046
Mn  Mn6       1.0  0.20880  0.89598  0.46631  1.0000 1.0329009046
H   H1        1.0  0.65440  0.18820  0.62754  1.0000 0.1310649564
H   H2        1.0  0.18820  0.62754  0.65440  1.0000 0.1310649564
H   H3        1.0  0.62754  0.65440  0.18820  1.0000 0.1310649564
H   H4        1.0  0.34560  0.81180  0.37246  1.0000 0.1310649564
H   H5        1.0  0.81180  0.37246  0.34560  1.0000 0.1310649564
H   H6        1.0  0.37246  0.34560  0.81180  1.0000 0.1310649564
C   C1        1.0  0.16713  0.60790  0.08492  1.0000 -0.1316353778
C   C2        1.0  0.60790  0.08492  0.16713  1.0000 -0.1316353778
C   C3        1.0  0.08492  0.16713  0.60790  1.0000 -0.1316353778
C   C4        1.0  0.83287  0.39210  0.91508  1.0000 -0.1316353778
C   C5        1.0  0.39210  0.91508  0.83287  1.0000 -0.1316353778
C   C6        1.0  0.91508  0.83287  0.39210  1.0000 -0.1316353778
C   C7        1.0  0.97260  0.43239  0.87527  1.0000 0.2764499833
C   C8        1.0  0.43239  0.87527  0.97260  1.0000 0.2764499833
C   C9        1.0  0.87527  0.97260  0.43239  1.0000 0.2764499833
C   C10       1.0  0.02740  0.56761  0.12473  1.0000 0.2764499833
C   C11       1.0  0.56761  0.12473  0.02740  1.0000 0.2764499833
C   C12       1.0  0.12473  0.02740  0.56761  1.0000 0.2764499833
C   C13       1.0  0.80547  0.32450  0.79035  1.0000 -0.198985373
C   C14       1.0  0.32450  0.79035  0.80547  1.0000 -0.198985373
C   C15       1.0  0.79035  0.80547  0.32450  1.0000 -0.198985373
C   C16       1.0  0.19453  0.67550  0.20965  1.0000 -0.198985373
C   C17       1.0  0.67550  0.20965  0.19453  1.0000 -0.198985373
C   C18       1.0  0.20965  0.19453  0.67550  1.0000 -0.198985373
C   C19       1.0  0.34688  0.72395  0.17627  1.0000 0.6250692358
C   C20       1.0  0.72395  0.17627  0.34688  1.0000 0.6250692358
C   C21       1.0  0.17627  0.34688  0.72395  1.0000 0.6250692358
C   C22       1.0  0.65312  0.27605  0.82373  1.0000 0.6250692358
C   C23       1.0  0.27605  0.82373  0.65312  1.0000 0.6244868388
C   C24       1.0  0.82373  0.65312  0.27605  1.0000 0.6250692358
O   O1        1.0  0.32211  0.66294  0.06375  1.0000 -0.580473885
O   O2        1.0  0.66294  0.06375  0.32211  1.0000 -0.580473885
O   O3        1.0  0.06375  0.32211  0.66294  1.0000 -0.580473885
O   O4        1.0  0.67789  0.33706  0.93625  1.0000 -0.580473885
O   O5        1.0  0.33706  0.93625  0.67789  1.0000 -0.580473885
O   O6        1.0  0.93625  0.67789  0.33706  1.0000 -0.580473885
O   O7        1.0  0.52226  0.88217  0.36527  1.0000 -0.5430292736
O   O8        1.0  0.88217  0.36527  0.52226  1.0000 -0.5430292736
O   O9        1.0  0.36527  0.52226  0.88217  1.0000 -0.5430292736
O   O10       1.0  0.47774  0.11783  0.63473  1.0000 -0.5430292736
O   O11       1.0  0.11783  0.63473  0.47774  1.0000 -0.5430292736
O   O12       1.0  0.63473  0.47774  0.11783  1.0000 -0.5430292736
O   O13       1.0  0.94607  0.36694  0.75449  1.0000 -0.6112641046
O   O14       1.0  0.36694  0.75449  0.94607  1.0000 -0.6112641046
O   O15       1.0  0.75449  0.94607  0.36694  1.0000 -0.6112641046
O   O16       1.0  0.05393  0.63306  0.24551  1.0000 -0.6112641046
O   O17       1.0  0.63306  0.24551  0.05393  1.0000 -0.6112641046
O   O18       1.0  0.24551  0.05393  0.63306  1.0000 -0.6112641046
