# DDEC6 charges by PACMAN v1.1 (https://github.com/mtap-research/PACMAN-charge/)
data_2012[Sm][nan]3[ASR]5
_chemical_formula_sum              "Sm4 H24 C60 N4 O36"
_cell_length_a       14.1851
_cell_length_b       14.1851
_cell_length_c       16.1612
_cell_angle_alpha    62.0383
_cell_angle_beta     117.962
_cell_angle_gamma    112.659

_symmetry_space_group_name_H-M    "P 1"
_symmetry_Int_Tables_number       1

loop_
  _symmetry_equiv_pos_as_xyz
  'x, y, z'

loop_
  _atom_site_type_symbol
  _atom_site_label
  _atom_site_symmetry_multiplicity
  _atom_site_fract_x
  _atom_site_fract_y
  _atom_site_fract_z
  _atom_site_occupancy
  _atom_site_charge
Sm  Sm1       1.0  0.36140  0.98232  0.87831  1.0000 2.0934215092
Sm  Sm2       1.0  0.98232  0.36140  0.62169  1.0000 2.0934215092
Sm  Sm3       1.0  0.63860  0.01768  0.12169  1.0000 2.0934215092
Sm  Sm4       1.0  0.01768  0.63860  0.37831  1.0000 2.0934215092
H   H1        1.0  0.21730  0.45750  0.34310  1.0000 0.1385142409
H   H2        1.0  0.45750  0.21730  0.15690  1.0000 0.1385142409
H   H3        1.0  0.78270  0.54250  0.65690  1.0000 0.1385142409
H   H4        1.0  0.54250  0.78270  0.84310  1.0000 0.1385142409
H   H5        1.0  0.34950  0.19110  0.52870  1.0000 0.1500891761
H   H6        1.0  0.19110  0.34950  0.97130  1.0000 0.1500891761
H   H7        1.0  0.65050  0.80890  0.47130  1.0000 0.1500891761
H   H8        1.0  0.80890  0.65050  0.02870  1.0000 0.1500891761
H   H9        1.0  0.16730  0.27430  0.60740  1.0000 0.1318870091
H   H10       1.0  0.27430  0.16730  0.89260  1.0000 0.1318870091
H   H11       1.0  0.83270  0.72570  0.39260  1.0000 0.1318870091
H   H12       1.0  0.72570  0.83270  0.10740  1.0000 0.1318870091
H   H13       1.0  0.26670  0.62170  0.07220  1.0000 0.1385142409
H   H14       1.0  0.62170  0.26670  0.42780  1.0000 0.1385142409
H   H15       1.0  0.73330  0.37830  0.92780  1.0000 0.1385142409
H   H16       1.0  0.37830  0.73330  0.57220  1.0000 0.1385142409
H   H17       1.0  0.54500  0.67420  0.29850  1.0000 0.1235546672
H   H18       1.0  0.67420  0.54500  0.20150  1.0000 0.1235546672
H   H19       1.0  0.45500  0.32580  0.70150  1.0000 0.1235546672
H   H20       1.0  0.32580  0.45500  0.79850  1.0000 0.1235546672
H   H21       1.0  0.50500  0.49280  0.40000  1.0000 0.1500891761
H   H22       1.0  0.49280  0.50500  0.10000  1.0000 0.1500891761
H   H23       1.0  0.49500  0.50720  0.60000  1.0000 0.1500891761
H   H24       1.0  0.50720  0.49500  0.90000  1.0000 0.1500891761
C   C1        1.0  0.17830  0.37490  0.46970  1.0000 0.0046838845
C   C2        1.0  0.37490  0.17830  0.03030  1.0000 0.0046838845
C   C3        1.0  0.82170  0.62510  0.53030  1.0000 0.0046838845
C   C4        1.0  0.62510  0.82170  0.96970  1.0000 0.0116639826
C   C5        1.0  0.22720  0.39600  0.40360  1.0000 -0.2201869193
C   C6        1.0  0.39600  0.22720  0.09640  1.0000 -0.2201869193
C   C7        1.0  0.77280  0.60400  0.59640  1.0000 -0.2201869193
C   C8        1.0  0.60400  0.77280  0.90360  1.0000 -0.2201869193
C   C9        1.0  0.29010  0.32750  0.42650  1.0000 0.2543597722
C   C10       1.0  0.32750  0.29010  0.07350  1.0000 0.2543597722
C   C11       1.0  0.70990  0.67250  0.57350  1.0000 0.2543597722
C   C12       1.0  0.67250  0.70990  0.92650  1.0000 0.2556910419
C   C13       1.0  0.30660  0.23800  0.51430  1.0000 -0.1991834457
C   C14       1.0  0.23800  0.30660  0.98570  1.0000 -0.1991834457
C   C15       1.0  0.69340  0.76200  0.48570  1.0000 -0.1991834457
C   C16       1.0  0.76200  0.69340  0.01430  1.0000 -0.1991834457
C   C17       1.0  0.25940  0.21740  0.58180  1.0000 0.0116639826
C   C18       1.0  0.21740  0.25940  0.91820  1.0000 0.0116639826
C   C19       1.0  0.74060  0.78260  0.41820  1.0000 0.0116639826
C   C20       1.0  0.78260  0.74060  0.08180  1.0000 0.0116639826
C   C21       1.0  0.19700  0.28680  0.56050  1.0000 -0.1429328456
C   C22       1.0  0.28680  0.19700  0.93950  1.0000 -0.1429328456
C   C23       1.0  0.80300  0.71320  0.43950  1.0000 -0.1429328456
C   C24       1.0  0.71320  0.80300  0.06050  1.0000 -0.1429328456
C   C25       1.0  0.35920  0.45040  0.29820  1.0000 0.1939366364
C   C26       1.0  0.45040  0.35920  0.20180  1.0000 0.1939366364
C   C27       1.0  0.64080  0.54960  0.70180  1.0000 0.1939366364
C   C28       1.0  0.54960  0.64080  0.79820  1.0000 0.1939366364
C   C29       1.0  0.28990  0.48970  0.19990  1.0000 -0.0408049443
C   C30       1.0  0.48970  0.28990  0.30010  1.0000 -0.0408049443
C   C31       1.0  0.71010  0.51030  0.80010  1.0000 -0.0408049443
C   C32       1.0  0.51030  0.71010  0.69990  1.0000 -0.0408049443
C   C33       1.0  0.31450  0.59630  0.13960  1.0000 -0.1324622243
C   C34       1.0  0.59630  0.31450  0.36040  1.0000 -0.1324622243
C   C35       1.0  0.68550  0.40370  0.86040  1.0000 -0.1324622243
C   C36       1.0  0.40370  0.68550  0.63960  1.0000 -0.1324622243
C   C37       1.0  0.40800  0.66667  0.17610  1.0000 -0.0117966744
C   C38       1.0  0.66667  0.40800  0.32390  1.0000 -0.0117966744
C   C39       1.0  0.59200  0.33340  0.82390  1.0000 -0.0117966744
C   C40       1.0  0.33340  0.59200  0.67610  1.0000 -0.0117966744
C   C41       1.0  0.47930  0.62710  0.27330  1.0000 -0.076209294
C   C42       1.0  0.62710  0.47930  0.22670  1.0000 -0.076209294
C   C43       1.0  0.52070  0.37290  0.72670  1.0000 -0.076209294
C   C44       1.0  0.37290  0.52070  0.77330  1.0000 -0.076209294
C   C45       1.0  0.45530  0.51930  0.33380  1.0000 -0.1991834457
C   C46       1.0  0.51930  0.45530  0.16620  1.0000 -0.1991834457
C   C47       1.0  0.54470  0.48070  0.66620  1.0000 -0.1991834457
C   C48       1.0  0.48070  0.54470  0.83380  1.0000 -0.1991834457
C   C49       1.0  0.10720  0.44820  0.44100  1.0000 0.6308084034
C   C50       1.0  0.44820  0.10720  0.05900  1.0000 0.6308084034
C   C51       1.0  0.89280  0.55180  0.55900  1.0000 0.6308084034
C   C52       1.0  0.55180  0.89280  0.94100  1.0000 0.6308084034
C   C53       1.0  0.43200  0.78620  0.11230  1.0000 0.6465394848
C   C54       1.0  0.78620  0.43200  0.38770  1.0000 0.6465394848
C   C55       1.0  0.56800  0.21380  0.88770  1.0000 0.6465394848
C   C56       1.0  0.21380  0.56800  0.61230  1.0000 0.6465394848
C   C57       1.0  0.28150  0.12310  0.67900  1.0000 0.5672184729
C   C58       1.0  0.12310  0.28150  0.82100  1.0000 0.5672184729
C   C59       1.0  0.71850  0.87690  0.32100  1.0000 0.5672184729
C   C60       1.0  0.87690  0.71850  0.17900  1.0000 0.5672184729
N   N1        1.0  0.18800  0.42020  0.15670  1.0000 0.5090230459
N   N2        1.0  0.42020  0.18800  0.34330  1.0000 0.5090230459
N   N3        1.0  0.81200  0.57980  0.84330  1.0000 0.5090230459
N   N4        1.0  0.57980  0.81200  0.65670  1.0000 0.5090230459
O   O1        1.0  0.05156  0.42544  0.49220  1.0000 -0.7501590348
O   O2        1.0  0.42544  0.05156  0.00780  1.0000 -0.7501590348
O   O3        1.0  0.94844  0.57456  0.50780  1.0000 -0.7501590348
O   O4        1.0  0.57456  0.94844  0.99220  1.0000 -0.7501590348
O   O5        1.0  0.10482  0.53198  0.36360  1.0000 -0.6012411214
O   O6        1.0  0.53198  0.10482  0.13640  1.0000 -0.6012411214
O   O7        1.0  0.89518  0.46802  0.63640  1.0000 -0.6012411214
O   O8        1.0  0.46802  0.89518  0.86360  1.0000 -0.6012411214
O   O9        1.0  0.14910  0.33650  0.21240  1.0000 -0.284581939
O   O10       1.0  0.33650  0.14910  0.28760  1.0000 -0.2895991004
O   O11       1.0  0.85090  0.66350  0.78760  1.0000 -0.2895991004
O   O12       1.0  0.66350  0.85090  0.71240  1.0000 -0.2895991004
O   O13       1.0  0.14540  0.45020  0.06560  1.0000 -0.3099076919
O   O14       1.0  0.45020  0.14540  0.43440  1.0000 -0.3099076919
O   O15       1.0  0.85460  0.54980  0.93440  1.0000 -0.3099076919
O   O16       1.0  0.54980  0.85460  0.56560  1.0000 -0.3099076919
O   O17       1.0  0.37134  0.81326  0.02110  1.0000 -0.6763168073
O   O18       1.0  0.81326  0.37134  0.47890  1.0000 -0.6763168073
O   O19       1.0  0.62866  0.18674  0.97890  1.0000 -0.6763168073
O   O20       1.0  0.18674  0.62866  0.52110  1.0000 -0.6763168073
O   O21       1.0  0.50961  0.84619  0.15580  1.0000 -0.6181442635
O   O22       1.0  0.84619  0.50961  0.34420  1.0000 -0.6181442635
O   O23       1.0  0.49039  0.15381  0.84420  1.0000 -0.6181442635
O   O24       1.0  0.15381  0.49039  0.65580  1.0000 -0.6181442635
O   O25       1.0  0.33735  0.06165  0.69540  1.0000 -0.6141706205
O   O26       1.0  0.06165  0.33735  0.80460  1.0000 -0.6141706205
O   O27       1.0  0.66265  0.93835  0.30460  1.0000 -0.6181442635
O   O28       1.0  0.93835  0.66265  0.19540  1.0000 -0.6181442635
O   O29       1.0  0.24495  0.10965  0.74250  1.0000 -0.6431636608
O   O30       1.0  0.10965  0.24495  0.75750  1.0000 -0.6431636608
O   O31       1.0  0.75505  0.89035  0.25750  1.0000 -0.6431636608
O   O32       1.0  0.89035  0.75505  0.24250  1.0000 -0.6431636608
O   O33       1.0  0.33935  0.34385  0.36310  1.0000 -0.2201869193
O   O34       1.0  0.34385  0.33935  0.13690  1.0000 -0.2201869193
O   O35       1.0  0.66065  0.65615  0.63690  1.0000 -0.2201869193
O   O36       1.0  0.65615  0.66065  0.86310  1.0000 -0.2201869193
