# DDEC6 charges by PACMAN v1.1 (https://github.com/mtap-research/PACMAN-charge/)
data_2012[Cu][scu]3[ASR]2
_chemical_formula_sum              "Cu8 H60 C136 N8 O32"
_cell_length_a       22.4261
_cell_length_b       22.4261
_cell_length_c       22.4261
_cell_angle_alpha    118.383
_cell_angle_beta     118.383
_cell_angle_gamma    92.8245

_symmetry_space_group_name_H-M    "P 1"
_symmetry_Int_Tables_number       1

loop_
  _symmetry_equiv_pos_as_xyz
  'x, y, z'

loop_
  _atom_site_type_symbol
  _atom_site_label
  _atom_site_symmetry_multiplicity
  _atom_site_fract_x
  _atom_site_fract_y
  _atom_site_fract_z
  _atom_site_occupancy
  _atom_site_charge
Cu  Cu1       1.0  0.55412  0.55412  0.57420  1.0000 0.8466614765
Cu  Cu2       1.0  0.55412  0.97992  0.00000  1.0000 0.8466614765
Cu  Cu3       1.0  0.97992  0.55412  0.00000  1.0000 0.8466614765
Cu  Cu4       1.0  0.02008  0.02008  0.57420  1.0000 0.8466614765
Cu  Cu5       1.0  0.97992  0.97992  0.42580  1.0000 0.8466614765
Cu  Cu6       1.0  0.44588  0.02008  0.00000  1.0000 0.8466614765
Cu  Cu7       1.0  0.02008  0.44588  0.00000  1.0000 0.8466614765
Cu  Cu8       1.0  0.44588  0.44588  0.42580  1.0000 0.8466614765
H   H1        1.0  0.29400  0.43940  0.48260  1.0000 0.1213444379
H   H2        1.0  0.43940  0.95680  0.14540  1.0000 0.1213444379
H   H3        1.0  0.81140  0.29400  0.85460  1.0000 0.1213444379
H   H4        1.0  0.18860  0.04320  0.48260  1.0000 0.1213444379
H   H5        1.0  0.95680  0.81140  0.51740  1.0000 0.1213444379
H   H6        1.0  0.70600  0.18860  0.14540  1.0000 0.1213444379
H   H7        1.0  0.04320  0.56060  0.85460  1.0000 0.1213444379
H   H8        1.0  0.56060  0.70600  0.51740  1.0000 0.1213444379
H   H9        1.0  0.70600  0.56060  0.51740  1.0000 0.1213444379
H   H10       1.0  0.56060  0.04320  0.85460  1.0000 0.1213444379
H   H11       1.0  0.18860  0.70600  0.14540  1.0000 0.1213444379
H   H12       1.0  0.81140  0.95680  0.51740  1.0000 0.1213444379
H   H13       1.0  0.04320  0.18860  0.48260  1.0000 0.1213444379
H   H14       1.0  0.29400  0.81140  0.85460  1.0000 0.1213444379
H   H15       1.0  0.95680  0.43940  0.14540  1.0000 0.1213444379
H   H16       1.0  0.43940  0.29400  0.48260  1.0000 0.1213444379
H   H17       1.0  0.20920  0.44740  0.51560  1.0000 0.1368760452
H   H18       1.0  0.44740  0.93180  0.23820  1.0000 0.1368760452
H   H19       1.0  0.69360  0.20920  0.76180  1.0000 0.1368760452
H   H20       1.0  0.30640  0.06820  0.51560  1.0000 0.1368760452
H   H21       1.0  0.93180  0.69360  0.48440  1.0000 0.1368760452
H   H22       1.0  0.79080  0.30640  0.23820  1.0000 0.1368760452
H   H23       1.0  0.06820  0.55260  0.76180  1.0000 0.1368760452
H   H24       1.0  0.55260  0.79080  0.48440  1.0000 0.1368760452
H   H25       1.0  0.79080  0.55260  0.48440  1.0000 0.1368760452
H   H26       1.0  0.55260  0.06820  0.76180  1.0000 0.1368760452
H   H27       1.0  0.30640  0.79080  0.23820  1.0000 0.1368760452
H   H28       1.0  0.69360  0.93180  0.48440  1.0000 0.1368760452
H   H29       1.0  0.06820  0.30640  0.51560  1.0000 0.1368760452
H   H30       1.0  0.20920  0.69360  0.76180  1.0000 0.1368760452
H   H31       1.0  0.93180  0.44740  0.23820  1.0000 0.1368760452
H   H32       1.0  0.44740  0.20920  0.51560  1.0000 0.1368760452
H   H33       1.0  0.42570  0.64200  0.66270  1.0000 0.1368760452
H   H34       1.0  0.64200  0.97930  0.21630  1.0000 0.1368760452
H   H35       1.0  0.76300  0.42570  0.78370  1.0000 0.1368760452
H   H36       1.0  0.23700  0.02070  0.66270  1.0000 0.1368760452
H   H37       1.0  0.97930  0.76300  0.33730  1.0000 0.1368760452
H   H38       1.0  0.57430  0.23700  0.21630  1.0000 0.1368760452
H   H39       1.0  0.02070  0.35800  0.78370  1.0000 0.1368760452
H   H40       1.0  0.35800  0.57430  0.33730  1.0000 0.1368760452
H   H41       1.0  0.57430  0.35800  0.33730  1.0000 0.1368760452
H   H42       1.0  0.35800  0.02070  0.78370  1.0000 0.1368760452
H   H43       1.0  0.23700  0.57430  0.21630  1.0000 0.1368760452
H   H44       1.0  0.76300  0.97930  0.33730  1.0000 0.1368760452
H   H45       1.0  0.02070  0.23700  0.66270  1.0000 0.1368760452
H   H46       1.0  0.42570  0.76300  0.78370  1.0000 0.1368760452
H   H47       1.0  0.97930  0.64200  0.21630  1.0000 0.1368760452
H   H48       1.0  0.64200  0.42570  0.66270  1.0000 0.1368760452
H   H49       1.0  0.19470  0.50000  0.69470  1.0000 0.1538142991
H   H50       1.0  0.50000  0.80530  0.30530  1.0000 0.1551067513
H   H51       1.0  0.50000  0.19470  0.69470  1.0000 0.1538142991
H   H52       1.0  0.80530  0.50000  0.30530  1.0000 0.1551067513
H   H53       1.0  0.10690  0.56550  0.54140  1.0000 0.1266878544
H   H54       1.0  0.56550  0.02410  0.45860  1.0000 0.1266878544
H   H55       1.0  0.56550  0.10690  0.54140  1.0000 0.1266878544
H   H56       1.0  0.43450  0.97590  0.54140  1.0000 0.1266878544
H   H57       1.0  0.02410  0.56550  0.45860  1.0000 0.1266878544
H   H58       1.0  0.89310  0.43450  0.45860  1.0000 0.1266878544
H   H59       1.0  0.97590  0.43450  0.54140  1.0000 0.1266878544
H   H60       1.0  0.43450  0.89310  0.45860  1.0000 0.1266878544
C   C1        1.0  0.40940  0.51390  0.52950  1.0000 0.5392312762
C   C2        1.0  0.51390  0.98440  0.10450  1.0000 0.5392312762
C   C3        1.0  0.87990  0.40940  0.89550  1.0000 0.5392312762
C   C4        1.0  0.12010  0.01560  0.52950  1.0000 0.5392312762
C   C5        1.0  0.98440  0.87990  0.47050  1.0000 0.5392312762
C   C6        1.0  0.59060  0.12010  0.10450  1.0000 0.5392312762
C   C7        1.0  0.01560  0.48610  0.89550  1.0000 0.5392312762
C   C8        1.0  0.48610  0.59060  0.47050  1.0000 0.5392312762
C   C9        1.0  0.59060  0.48610  0.47050  1.0000 0.5392312762
C   C10       1.0  0.48610  0.01560  0.89550  1.0000 0.5392312762
C   C11       1.0  0.12010  0.59060  0.10450  1.0000 0.5392312762
C   C12       1.0  0.87990  0.98440  0.47050  1.0000 0.5392312762
C   C13       1.0  0.01560  0.12010  0.52950  1.0000 0.5392312762
C   C14       1.0  0.40940  0.87990  0.89550  1.0000 0.5392312762
C   C15       1.0  0.98440  0.51390  0.10450  1.0000 0.5392312762
C   C16       1.0  0.51390  0.40940  0.52950  1.0000 0.5392312762
C   C17       1.0  0.36950  0.53720  0.56610  1.0000 -0.0596094771
C   C18       1.0  0.53720  0.97110  0.16770  1.0000 -0.0596094771
C   C19       1.0  0.80340  0.36950  0.83230  1.0000 -0.0596094771
C   C20       1.0  0.19660  0.02890  0.56610  1.0000 -0.0596094771
C   C21       1.0  0.97110  0.80340  0.43390  1.0000 -0.0596094771
C   C22       1.0  0.63050  0.19660  0.16770  1.0000 -0.0596094771
C   C23       1.0  0.02890  0.46280  0.83230  1.0000 -0.0596094771
C   C24       1.0  0.46280  0.63050  0.43390  1.0000 -0.0596094771
C   C25       1.0  0.63050  0.46280  0.43390  1.0000 -0.0596094771
C   C26       1.0  0.46280  0.02890  0.83230  1.0000 -0.0596094771
C   C27       1.0  0.19660  0.63050  0.16770  1.0000 -0.0596094771
C   C28       1.0  0.80340  0.97110  0.43390  1.0000 -0.0596094771
C   C29       1.0  0.02890  0.19660  0.56610  1.0000 -0.0596094771
C   C30       1.0  0.36950  0.80340  0.83230  1.0000 -0.0596094771
C   C31       1.0  0.97110  0.53720  0.16770  1.0000 -0.0596094771
C   C32       1.0  0.53720  0.36950  0.56610  1.0000 -0.0596094771
C   C33       1.0  0.30470  0.48500  0.52850  1.0000 -0.0932812926
C   C34       1.0  0.48500  0.95650  0.18030  1.0000 -0.0932812926
C   C35       1.0  0.77620  0.30470  0.81970  1.0000 -0.0932812926
C   C36       1.0  0.22380  0.04350  0.52850  1.0000 -0.0932812926
C   C37       1.0  0.95650  0.77620  0.47150  1.0000 -0.0955105442
C   C38       1.0  0.69530  0.22380  0.18030  1.0000 -0.0932812926
C   C39       1.0  0.04350  0.51500  0.81970  1.0000 -0.0932812926
C   C40       1.0  0.51500  0.69530  0.47150  1.0000 -0.0932812926
C   C41       1.0  0.69530  0.51500  0.47150  1.0000 -0.0955105442
C   C42       1.0  0.51500  0.04350  0.81970  1.0000 -0.0932812926
C   C43       1.0  0.22380  0.69530  0.18030  1.0000 -0.0932812926
C   C44       1.0  0.77620  0.95650  0.47150  1.0000 -0.0955105442
C   C45       1.0  0.04350  0.22380  0.52850  1.0000 -0.0932812926
C   C46       1.0  0.30470  0.77620  0.81970  1.0000 -0.0932812926
C   C47       1.0  0.95650  0.48500  0.18030  1.0000 -0.0955105442
C   C48       1.0  0.48500  0.30470  0.52850  1.0000 -0.0932812926
C   C49       1.0  0.25240  0.48700  0.54580  1.0000 -0.2079043015
C   C50       1.0  0.48700  0.94120  0.23460  1.0000 -0.2079043015
C   C51       1.0  0.70660  0.25240  0.76540  1.0000 -0.2079043015
C   C52       1.0  0.29340  0.05880  0.54580  1.0000 -0.2079043015
C   C53       1.0  0.94120  0.70660  0.45420  1.0000 -0.2079043015
C   C54       1.0  0.74760  0.29340  0.23460  1.0000 -0.2079043015
C   C55       1.0  0.05880  0.51300  0.76540  1.0000 -0.2079043015
C   C56       1.0  0.51300  0.74760  0.45420  1.0000 -0.2079043015
C   C57       1.0  0.74760  0.51300  0.45420  1.0000 -0.2079043015
C   C58       1.0  0.51300  0.05880  0.76540  1.0000 -0.2079043015
C   C59       1.0  0.29340  0.74760  0.23460  1.0000 -0.2079043015
C   C60       1.0  0.70660  0.94120  0.45420  1.0000 -0.2079043015
C   C61       1.0  0.05880  0.29340  0.54580  1.0000 -0.2079043015
C   C62       1.0  0.25240  0.70660  0.76540  1.0000 -0.2079043015
C   C63       1.0  0.94120  0.48700  0.23460  1.0000 -0.2079043015
C   C64       1.0  0.48700  0.25240  0.54580  1.0000 -0.2079043015
C   C65       1.0  0.27260  0.55560  0.61360  1.0000 0.1368760452
C   C66       1.0  0.55560  0.94200  0.28300  1.0000 0.1368760452
C   C67       1.0  0.65900  0.27260  0.71700  1.0000 0.1368760452
C   C68       1.0  0.34100  0.05800  0.61360  1.0000 0.1368760452
C   C69       1.0  0.94200  0.65900  0.38640  1.0000 0.1368760452
C   C70       1.0  0.72740  0.34100  0.28300  1.0000 0.1368760452
C   C71       1.0  0.05800  0.44440  0.71700  1.0000 0.1368760452
C   C72       1.0  0.44440  0.72740  0.38640  1.0000 0.1368760452
C   C73       1.0  0.72740  0.44440  0.38640  1.0000 0.1368760452
C   C74       1.0  0.44440  0.05800  0.71700  1.0000 0.1368760452
C   C75       1.0  0.34100  0.72740  0.28300  1.0000 0.1368760452
C   C76       1.0  0.65900  0.94200  0.38640  1.0000 0.1368760452
C   C77       1.0  0.05800  0.34100  0.61360  1.0000 0.1368760452
C   C78       1.0  0.27260  0.65900  0.71700  1.0000 0.1368760452
C   C79       1.0  0.94200  0.55560  0.28300  1.0000 0.1266878544
C   C80       1.0  0.55560  0.27260  0.61360  1.0000 0.1368760452
C   C81       1.0  0.33590  0.61370  0.65780  1.0000 -0.0073946941
C   C82       1.0  0.61370  0.95590  0.27780  1.0000 -0.0073946941
C   C83       1.0  0.67810  0.33590  0.72220  1.0000 -0.0073946941
C   C84       1.0  0.32190  0.04410  0.65780  1.0000 -0.0073946941
C   C85       1.0  0.95590  0.67810  0.34220  1.0000 -0.0073946941
C   C86       1.0  0.66410  0.32190  0.27780  1.0000 -0.0073946941
C   C87       1.0  0.04410  0.38630  0.72220  1.0000 -0.0073946941
C   C88       1.0  0.38630  0.66410  0.34220  1.0000 -0.0073946941
C   C89       1.0  0.66410  0.38630  0.34220  1.0000 -0.0073946941
C   C90       1.0  0.38630  0.04410  0.72220  1.0000 -0.0073946941
C   C91       1.0  0.32190  0.66410  0.27780  1.0000 -0.0073946941
C   C92       1.0  0.67810  0.95590  0.34220  1.0000 -0.0073946941
C   C93       1.0  0.04410  0.32190  0.65780  1.0000 -0.0073946941
C   C94       1.0  0.33590  0.67810  0.72220  1.0000 -0.0073946941
C   C95       1.0  0.95590  0.61370  0.27780  1.0000 -0.0073946941
C   C96       1.0  0.61370  0.33590  0.65780  1.0000 -0.0073946941
C   C97       1.0  0.38240  0.60260  0.63260  1.0000 -0.1163075696
C   C98       1.0  0.60260  0.97000  0.22020  1.0000 -0.1163075696
C   C99       1.0  0.74980  0.38240  0.77980  1.0000 -0.1163075696
C   C100      1.0  0.25020  0.03000  0.63260  1.0000 -0.1163075696
C   C101      1.0  0.97000  0.74980  0.36740  1.0000 -0.1163075696
C   C102      1.0  0.61760  0.25020  0.22020  1.0000 -0.1163075696
C   C103      1.0  0.03000  0.39740  0.77980  1.0000 -0.1163075696
C   C104      1.0  0.39740  0.61760  0.36740  1.0000 -0.1163075696
C   C105      1.0  0.61760  0.39740  0.36740  1.0000 -0.1163075696
C   C106      1.0  0.39740  0.03000  0.77980  1.0000 -0.1163075696
C   C107      1.0  0.25020  0.61760  0.22020  1.0000 -0.1163075696
C   C108      1.0  0.74980  0.97000  0.36740  1.0000 -0.1163075696
C   C109      1.0  0.03000  0.25020  0.63260  1.0000 -0.1163075696
C   C110      1.0  0.38240  0.74980  0.77980  1.0000 -0.1163075696
C   C111      1.0  0.97000  0.60260  0.22020  1.0000 -0.1163075696
C   C112      1.0  0.60260  0.38240  0.63260  1.0000 -0.1163075696
C   C113      1.0  0.15340  0.50000  0.65340  1.0000 -0.2876333836
C   C114      1.0  0.50000  0.84660  0.34660  1.0000 -0.2876333836
C   C115      1.0  0.50000  0.15340  0.65340  1.0000 -0.2876333836
C   C116      1.0  0.84660  0.50000  0.34660  1.0000 -0.2876333836
C   C117      1.0  0.16131  0.53871  0.62260  1.0000 0.1827738174
C   C118      1.0  0.53871  0.91611  0.37740  1.0000 0.1827738174
C   C119      1.0  0.53871  0.16131  0.62260  1.0000 0.1827738174
C   C120      1.0  0.46129  0.08389  0.62260  1.0000 0.1827738174
C   C121      1.0  0.91611  0.53871  0.37740  1.0000 0.1827738174
C   C122      1.0  0.83869  0.46129  0.37740  1.0000 0.1827738174
C   C123      1.0  0.08389  0.46129  0.62260  1.0000 0.1827738174
C   C124      1.0  0.46129  0.83869  0.37740  1.0000 0.1827738174
C   C125      1.0  0.10083  0.53883  0.56200  1.0000 -0.2490670065
C   C126      1.0  0.53883  0.97683  0.43800  1.0000 -0.2490670065
C   C127      1.0  0.53883  0.10083  0.56200  1.0000 -0.2490670065
C   C128      1.0  0.46117  0.02317  0.56200  1.0000 -0.2490670065
C   C129      1.0  0.97683  0.53883  0.43800  1.0000 -0.2490670065
C   C130      1.0  0.89917  0.46117  0.43800  1.0000 -0.2490670065
C   C131      1.0  0.02317  0.46117  0.56200  1.0000 -0.2490670065
C   C132      1.0  0.46117  0.89917  0.43800  1.0000 -0.2490670065
C   C133      1.0  0.03140  0.50000  0.53140  1.0000 0.0959681031
C   C134      1.0  0.50000  0.96860  0.46860  1.0000 0.0959681031
C   C135      1.0  0.50000  0.03140  0.53140  1.0000 0.0959681031
C   C136      1.0  0.96860  0.50000  0.46860  1.0000 0.0949911159
N   N1        1.0  0.23510  0.58220  0.65290  1.0000 -0.1264169467
N   N2        1.0  0.58220  0.92930  0.34710  1.0000 -0.1264169467
N   N3        1.0  0.58220  0.23510  0.65290  1.0000 -0.1264169467
N   N4        1.0  0.41780  0.07070  0.65290  1.0000 -0.1264169467
N   N5        1.0  0.92930  0.58220  0.34710  1.0000 -0.1264169467
N   N6        1.0  0.76490  0.41780  0.34710  1.0000 -0.1264169467
N   N7        1.0  0.07070  0.41780  0.65290  1.0000 -0.1264169467
N   N8        1.0  0.41780  0.76490  0.34710  1.0000 -0.1264169467
O   O1        1.0  0.47880  0.56430  0.59290  1.0000 -0.5866626966
O   O2        1.0  0.56430  0.97140  0.08550  1.0000 -0.5866626966
O   O3        1.0  0.88590  0.47880  0.91450  1.0000 -0.5866626966
O   O4        1.0  0.11410  0.02860  0.59290  1.0000 -0.5866626966
O   O5        1.0  0.97140  0.88590  0.40710  1.0000 -0.5866626966
O   O6        1.0  0.52120  0.11410  0.08550  1.0000 -0.5842018444
O   O7        1.0  0.02860  0.43570  0.91450  1.0000 -0.5866626966
O   O8        1.0  0.43570  0.52120  0.40710  1.0000 -0.5866626966
O   O9        1.0  0.52120  0.43570  0.40710  1.0000 -0.5866626966
O   O10       1.0  0.43570  0.02860  0.91450  1.0000 -0.5866626966
O   O11       1.0  0.11410  0.52120  0.08550  1.0000 -0.5842018444
O   O12       1.0  0.88590  0.97140  0.40710  1.0000 -0.5866626966
O   O13       1.0  0.02860  0.11410  0.59290  1.0000 -0.5866626966
O   O14       1.0  0.47880  0.88590  0.91450  1.0000 -0.5842018444
O   O15       1.0  0.97140  0.56430  0.08550  1.0000 -0.5842018444
O   O16       1.0  0.56430  0.47880  0.59290  1.0000 -0.5866626966
O   O17       1.0  0.38500  0.46590  0.46350  1.0000 -0.3804223034
O   O18       1.0  0.46590  0.00240  0.08090  1.0000 -0.3804223034
O   O19       1.0  0.92150  0.38500  0.91910  1.0000 -0.3804223034
O   O20       1.0  0.07850  0.99760  0.46350  1.0000 -0.3804223034
O   O21       1.0  0.00240  0.92150  0.53650  1.0000 -0.3804223034
O   O22       1.0  0.61500  0.07850  0.08090  1.0000 -0.3804223034
O   O23       1.0  0.99760  0.53410  0.91910  1.0000 -0.3804223034
O   O24       1.0  0.53410  0.61500  0.53650  1.0000 -0.3804223034
O   O25       1.0  0.61500  0.53410  0.53650  1.0000 -0.3804223034
O   O26       1.0  0.53410  0.99760  0.91910  1.0000 -0.3804223034
O   O27       1.0  0.07850  0.61500  0.08090  1.0000 -0.3804223034
O   O28       1.0  0.92150  0.00240  0.53650  1.0000 -0.3804223034
O   O29       1.0  0.99760  0.07850  0.46350  1.0000 -0.3804223034
O   O30       1.0  0.38500  0.92150  0.91910  1.0000 -0.3804223034
O   O31       1.0  0.00240  0.46590  0.08090  1.0000 -0.3804223034
O   O32       1.0  0.46590  0.38500  0.46350  1.0000 -0.3804223034
