# DDEC6 charges by PACMAN v1.1 (https://github.com/mtap-research/PACMAN-charge/)
data_2012[Cd][gpu]3[ASR]1
_chemical_formula_sum              "Cd6 H72 C96 N18 O12 F2"
_cell_length_a       12.6318
_cell_length_b       12.6318
_cell_length_c       23.263
_cell_angle_alpha    78.8506
_cell_angle_beta     101.149
_cell_angle_gamma    120.119

_symmetry_space_group_name_H-M    "P 1"
_symmetry_Int_Tables_number       1

loop_
  _symmetry_equiv_pos_as_xyz
  'x, y, z'

loop_
  _atom_site_type_symbol
  _atom_site_label
  _atom_site_symmetry_multiplicity
  _atom_site_fract_x
  _atom_site_fract_y
  _atom_site_fract_z
  _atom_site_occupancy
  _atom_site_charge
Cd  Cd1       1.0  0.59137  0.59137  0.75000  1.0000 0.8220349961
Cd  Cd2       1.0  0.40863  0.40863  0.25000  1.0000 0.8220349961
Cd  Cd3       1.0  0.22866  0.41766  0.73455  1.0000 0.8220349961
Cd  Cd4       1.0  0.41766  0.22866  0.76545  1.0000 0.8220349961
Cd  Cd5       1.0  0.77134  0.58234  0.26545  1.0000 0.8220349961
Cd  Cd6       1.0  0.58234  0.77134  0.23455  1.0000 0.8220349961
H   H1        1.0  0.57350  0.90250  0.79660  1.0000 0.1283079138
H   H2        1.0  0.90250  0.57350  0.70340  1.0000 0.1283079138
H   H3        1.0  0.42650  0.09750  0.20340  1.0000 0.1283079138
H   H4        1.0  0.09750  0.42650  0.29660  1.0000 0.1283079138
H   H5        1.0  0.57030  0.07870  0.80510  1.0000 0.0983484251
H   H6        1.0  0.07870  0.57030  0.69490  1.0000 0.0983484251
H   H7        1.0  0.42970  0.92130  0.19490  1.0000 0.0983484251
H   H8        1.0  0.92130  0.42970  0.30510  1.0000 0.0983484251
H   H9        1.0  0.25190  0.96690  0.71250  1.0000 0.0983484251
H   H10       1.0  0.96690  0.25190  0.78750  1.0000 0.0983484251
H   H11       1.0  0.74810  0.03310  0.28750  1.0000 0.0983484251
H   H12       1.0  0.03310  0.74810  0.21250  1.0000 0.0983484251
H   H13       1.0  0.24460  0.78840  0.70170  1.0000 0.1283079138
H   H14       1.0  0.78840  0.24460  0.79830  1.0000 0.1283079138
H   H15       1.0  0.75540  0.21160  0.29830  1.0000 0.1283079138
H   H16       1.0  0.21160  0.75540  0.20170  1.0000 0.1283079138
H   H17       1.0  0.88920  0.07040  0.70910  1.0000 0.1283079138
H   H18       1.0  0.07040  0.88920  0.79090  1.0000 0.1283079138
H   H19       1.0  0.11080  0.92960  0.29090  1.0000 0.1283079138
H   H20       1.0  0.92960  0.11080  0.20910  1.0000 0.1283079138
H   H21       1.0  0.70990  0.88710  0.71150  1.0000 0.0983484251
H   H22       1.0  0.88710  0.70990  0.78850  1.0000 0.0983484251
H   H23       1.0  0.29010  0.11290  0.28850  1.0000 0.0983484251
H   H24       1.0  0.11290  0.29010  0.21150  1.0000 0.0983484251
H   H25       1.0  0.53100  0.75760  0.63470  1.0000 0.094632761
H   H26       1.0  0.75760  0.53100  0.86530  1.0000 0.094632761
H   H27       1.0  0.46900  0.24240  0.36530  1.0000 0.094632761
H   H28       1.0  0.24240  0.46900  0.13470  1.0000 0.094632761
H   H29       1.0  0.54110  0.80750  0.53550  1.0000 0.1283079138
H   H30       1.0  0.80750  0.54110  0.96450  1.0000 0.1283079138
H   H31       1.0  0.45890  0.19250  0.46450  1.0000 0.1283079138
H   H32       1.0  0.19250  0.45890  0.03550  1.0000 0.1283079138
H   H33       1.0  0.64490  0.55730  0.53800  1.0000 0.1283079138
H   H34       1.0  0.55730  0.64490  0.96200  1.0000 0.1283079138
H   H35       1.0  0.35510  0.44270  0.46200  1.0000 0.1283079138
H   H36       1.0  0.44270  0.35510  0.03800  1.0000 0.1283079138
H   H37       1.0  0.62890  0.50970  0.63630  1.0000 0.0983484251
H   H38       1.0  0.50970  0.62890  0.86370  1.0000 0.0983484251
H   H39       1.0  0.37110  0.49030  0.36370  1.0000 0.0983484251
H   H40       1.0  0.49030  0.37110  0.13630  1.0000 0.0983484251
H   H41       1.0  0.46080  0.75660  0.43950  1.0000 0.1283079138
H   H42       1.0  0.75660  0.46080  0.06050  1.0000 0.1283079138
H   H43       1.0  0.53920  0.24340  0.56050  1.0000 0.1283079138
H   H44       1.0  0.24340  0.53920  0.93950  1.0000 0.1283079138
H   H45       1.0  0.46470  0.79090  0.34070  1.0000 0.0983484251
H   H46       1.0  0.79090  0.46470  0.15930  1.0000 0.0983484251
H   H47       1.0  0.53530  0.20910  0.65930  1.0000 0.0983484251
H   H48       1.0  0.20910  0.53530  0.84070  1.0000 0.0983484251
H   H49       1.0  0.73330  0.71710  0.35600  1.0000 0.0983484251
H   H50       1.0  0.71710  0.73330  0.14400  1.0000 0.0983484251
H   H51       1.0  0.26670  0.28290  0.64400  1.0000 0.0983484251
H   H52       1.0  0.28290  0.26670  0.85600  1.0000 0.0983484251
H   H53       1.0  0.73880  0.68420  0.45600  1.0000 0.1283079138
H   H54       1.0  0.68420  0.73880  0.04400  1.0000 0.1283079138
H   H55       1.0  0.26120  0.31580  0.54400  1.0000 0.1283079138
H   H56       1.0  0.31580  0.26120  0.95600  1.0000 0.1283079138
H   H57       1.0  0.29210  0.60590  0.61050  1.0000 0.0983484251
H   H58       1.0  0.60590  0.29210  0.88950  1.0000 0.0983484251
H   H59       1.0  0.70790  0.39410  0.38950  1.0000 0.0983484251
H   H60       1.0  0.39410  0.70790  0.11050  1.0000 0.0983484251
H   H61       1.0  0.19050  0.65030  0.52500  1.0000 0.1242241239
H   H62       1.0  0.65030  0.19050  0.97500  1.0000 0.1242241239
H   H63       1.0  0.80950  0.34970  0.47500  1.0000 0.1242241239
H   H64       1.0  0.34970  0.80950  0.02500  1.0000 0.1242241239
H   H65       1.0  0.91190  0.31150  0.54900  1.0000 0.1283079138
H   H66       1.0  0.31150  0.91190  0.95100  1.0000 0.1283079138
H   H67       1.0  0.08810  0.68850  0.45100  1.0000 0.1283079138
H   H68       1.0  0.68850  0.08810  0.04900  1.0000 0.1283079138
H   H69       1.0  0.02130  0.27630  0.63290  1.0000 0.0983484251
H   H70       1.0  0.27630  0.02130  0.86710  1.0000 0.0983484251
H   H71       1.0  0.97870  0.72370  0.36710  1.0000 0.0983484251
H   H72       1.0  0.72370  0.97870  0.13290  1.0000 0.0983484251
C   C1        1.0  0.40990  0.70930  0.74180  1.0000 0.5328992022
C   C2        1.0  0.70930  0.40990  0.75820  1.0000 0.5328992022
C   C3        1.0  0.59010  0.29070  0.25820  1.0000 0.5328992022
C   C4        1.0  0.29070  0.59010  0.24180  1.0000 0.5328992022
C   C5        1.0  0.41020  0.82480  0.74740  1.0000 0.00419502
C   C6        1.0  0.82480  0.41020  0.75260  1.0000 0.00419502
C   C7        1.0  0.58980  0.17520  0.25260  1.0000 0.00419502
C   C8        1.0  0.17520  0.58980  0.24740  1.0000 0.00419502
C   C9        1.0  0.50660  0.91360  0.77870  1.0000 -0.18778606
C   C10       1.0  0.91360  0.50660  0.72130  1.0000 -0.18778606
C   C11       1.0  0.49340  0.08640  0.22130  1.0000 -0.18778606
C   C12       1.0  0.08640  0.49340  0.27870  1.0000 -0.18778606
C   C13       1.0  0.50430  0.01970  0.78340  1.0000 0.0469145561
C   C14       1.0  0.01970  0.50430  0.71660  1.0000 0.0469145561
C   C15       1.0  0.49570  0.98030  0.21660  1.0000 0.0469145561
C   C16       1.0  0.98030  0.49570  0.28340  1.0000 0.0469145561
C   C17       1.0  0.31820  0.95420  0.72940  1.0000 0.0571580666
C   C18       1.0  0.95420  0.31820  0.77060  1.0000 0.0571580666
C   C19       1.0  0.68180  0.04580  0.27060  1.0000 0.0571580666
C   C20       1.0  0.04580  0.68180  0.22940  1.0000 0.0571580666
C   C21       1.0  0.31300  0.84660  0.72270  1.0000 -0.18778606
C   C22       1.0  0.84660  0.31300  0.77730  1.0000 -0.18778606
C   C23       1.0  0.68700  0.15340  0.27730  1.0000 -0.18778606
C   C24       1.0  0.15340  0.68700  0.22270  1.0000 -0.18778606
C   C25       1.0  0.11970  0.11970  0.75000  1.0000 0.5416836156
C   C26       1.0  0.88030  0.88030  0.25000  1.0000 0.5416836156
C   C27       1.0  0.00090  0.00090  0.75000  1.0000 0.0125783881
C   C28       1.0  0.99910  0.99910  0.25000  1.0000 0.0125783881
C   C29       1.0  0.89080  0.99820  0.72590  1.0000 -0.1813671427
C   C30       1.0  0.99820  0.89080  0.77410  1.0000 -0.1813671427
C   C31       1.0  0.10920  0.00180  0.27410  1.0000 -0.1813671427
C   C32       1.0  0.00180  0.10920  0.22590  1.0000 -0.1813671427
C   C33       1.0  0.78360  0.88760  0.72720  1.0000 0.0571580666
C   C34       1.0  0.88760  0.78360  0.77280  1.0000 0.0571580666
C   C35       1.0  0.21640  0.11240  0.27280  1.0000 0.0571580666
C   C36       1.0  0.11240  0.21640  0.22720  1.0000 0.0571580666
C   C37       1.0  0.55340  0.71580  0.61490  1.0000 0.0360995805
C   C38       1.0  0.71580  0.55340  0.88510  1.0000 0.0360995805
C   C39       1.0  0.44660  0.28420  0.38510  1.0000 0.0360995805
C   C40       1.0  0.28420  0.44660  0.11490  1.0000 0.0360995805
C   C41       1.0  0.55980  0.74640  0.55530  1.0000 -0.2100378525
C   C42       1.0  0.74640  0.55980  0.94470  1.0000 -0.2100378525
C   C43       1.0  0.44020  0.25360  0.44470  1.0000 -0.2100378525
C   C44       1.0  0.25360  0.44020  0.05530  1.0000 -0.2100378525
C   C45       1.0  0.59370  0.68690  0.52480  1.0000 0.0983484251
C   C46       1.0  0.68690  0.59370  0.97520  1.0000 0.0983484251
C   C47       1.0  0.40630  0.31310  0.47520  1.0000 0.0983484251
C   C48       1.0  0.31310  0.40630  0.02480  1.0000 0.0983484251
C   C49       1.0  0.62040  0.59880  0.55670  1.0000 -0.2027499551
C   C50       1.0  0.59880  0.62040  0.94330  1.0000 -0.2027499551
C   C51       1.0  0.37960  0.40120  0.44330  1.0000 -0.2027499551
C   C52       1.0  0.40120  0.37960  0.05670  1.0000 -0.2027499551
C   C53       1.0  0.61130  0.57110  0.61590  1.0000 0.0685685178
C   C54       1.0  0.57110  0.61130  0.88410  1.0000 0.0685685178
C   C55       1.0  0.38870  0.42890  0.38410  1.0000 0.0685685178
C   C56       1.0  0.42890  0.38870  0.11590  1.0000 0.0685685178
C   C57       1.0  0.59850  0.71550  0.46020  1.0000 0.0983484251
C   C58       1.0  0.71550  0.59850  0.03980  1.0000 0.0983484251
C   C59       1.0  0.40150  0.28450  0.53980  1.0000 0.0983484251
C   C60       1.0  0.28450  0.40150  0.96020  1.0000 0.0983484251
C   C61       1.0  0.51750  0.74770  0.42350  1.0000 -0.2100378525
C   C62       1.0  0.74770  0.51750  0.07650  1.0000 -0.2100378525
C   C63       1.0  0.48250  0.25230  0.57650  1.0000 -0.2100378525
C   C64       1.0  0.25230  0.48250  0.92350  1.0000 -0.2100378525
C   C65       1.0  0.51930  0.76690  0.36410  1.0000 0.0469145561
C   C66       1.0  0.76690  0.51930  0.13590  1.0000 0.0469145561
C   C67       1.0  0.48070  0.23310  0.63590  1.0000 0.0469145561
C   C68       1.0  0.23310  0.48070  0.86410  1.0000 0.0469145561
C   C69       1.0  0.67670  0.72410  0.37310  1.0000 0.0685685178
C   C70       1.0  0.72410  0.67670  0.12690  1.0000 0.0685685178
C   C71       1.0  0.32330  0.27590  0.62690  1.0000 0.0685685178
C   C72       1.0  0.27590  0.32330  0.87310  1.0000 0.0685685178
C   C73       1.0  0.68100  0.70460  0.43330  1.0000 -0.2100378525
C   C74       1.0  0.70460  0.68100  0.06670  1.0000 -0.2100378525
C   C75       1.0  0.31900  0.29540  0.56670  1.0000 -0.2100378525
C   C76       1.0  0.29540  0.31900  0.93330  1.0000 -0.2100378525
C   C77       1.0  0.21350  0.54550  0.59810  1.0000 0.0469145561
C   C78       1.0  0.54550  0.21350  0.90190  1.0000 0.0469145561
C   C79       1.0  0.78650  0.45450  0.40190  1.0000 0.0469145561
C   C80       1.0  0.45450  0.78650  0.09810  1.0000 0.0469145561
C   C81       1.0  0.15250  0.57310  0.54640  1.0000 -0.2176598851
C   C82       1.0  0.57310  0.15250  0.95360  1.0000 -0.2176598851
C   C83       1.0  0.84750  0.42690  0.45360  1.0000 -0.2176598851
C   C84       1.0  0.42690  0.84750  0.04640  1.0000 -0.2176598851
C   C85       1.0  0.03560  0.48660  0.52670  1.0000 0.0983484251
C   C86       1.0  0.48660  0.03560  0.97330  1.0000 0.0983484251
C   C87       1.0  0.96440  0.51340  0.47330  1.0000 0.0983484251
C   C88       1.0  0.51340  0.96440  0.02670  1.0000 0.0983484251
C   C89       1.0  0.98950  0.37450  0.56060  1.0000 -0.2176598851
C   C90       1.0  0.37450  0.98950  0.93940  1.0000 -0.2176598851
C   C91       1.0  0.01050  0.62550  0.43940  1.0000 -0.2176598851
C   C92       1.0  0.62550  0.01050  0.06060  1.0000 -0.2100378525
C   C93       1.0  0.05600  0.35360  0.61130  1.0000 0.0571580666
C   C94       1.0  0.35360  0.05600  0.88870  1.0000 0.0571580666
C   C95       1.0  0.94400  0.64640  0.38870  1.0000 0.0571580666
C   C96       1.0  0.64640  0.94400  0.11130  1.0000 0.0571580666
N   N1        1.0  0.41188  0.04132  0.75840  1.0000 -0.2277382599
N   N2        1.0  0.04132  0.41188  0.74160  1.0000 -0.2277382599
N   N3        1.0  0.58812  0.95868  0.24160  1.0000 -0.2277382599
N   N4        1.0  0.95868  0.58812  0.25840  1.0000 -0.2277382599
N   N5        1.0  0.78010  0.78010  0.75000  1.0000 -0.2277382599
N   N6        1.0  0.21990  0.21990  0.25000  1.0000 -0.2277382599
N   N7        1.0  0.57840  0.62820  0.64580  1.0000 -0.2408552902
N   N8        1.0  0.62820  0.57840  0.85420  1.0000 -0.2408552902
N   N9        1.0  0.42160  0.37180  0.35420  1.0000 -0.2408552902
N   N10       1.0  0.37180  0.42160  0.14580  1.0000 -0.2408552902
N   N11       1.0  0.59630  0.75250  0.33770  1.0000 -0.2516660379
N   N12       1.0  0.75250  0.59630  0.16230  1.0000 -0.2516660379
N   N13       1.0  0.40370  0.24750  0.66230  1.0000 -0.2516660379
N   N14       1.0  0.24750  0.40370  0.83770  1.0000 -0.2516660379
N   N15       1.0  0.16640  0.43780  0.63090  1.0000 -0.2408552902
N   N16       1.0  0.43780  0.16640  0.86910  1.0000 -0.2408552902
N   N17       1.0  0.83360  0.56220  0.36910  1.0000 -0.2408552902
N   N18       1.0  0.56220  0.83360  0.13090  1.0000 -0.2408552902
O   O1        1.0  0.50783  0.70697  0.75620  1.0000 -0.5478004055
O   O2        1.0  0.70697  0.50783  0.74380  1.0000 -0.5478004055
O   O3        1.0  0.49217  0.29303  0.24380  1.0000 -0.5478004055
O   O4        1.0  0.29303  0.49217  0.25620  1.0000 -0.5478004055
O   O5        1.0  0.31039  0.62241  0.72320  1.0000 -0.5641421066
O   O6        1.0  0.62241  0.31039  0.77680  1.0000 -0.5641421066
O   O7        1.0  0.68961  0.37759  0.27680  1.0000 -0.5641421066
O   O8        1.0  0.37759  0.68961  0.22320  1.0000 -0.5641421066
O   O9        1.0  0.11412  0.21548  0.72814  1.0000 -0.5676704632
O   O10       1.0  0.21548  0.11412  0.77186  1.0000 -0.5676704632
O   O11       1.0  0.88588  0.78452  0.27186  1.0000 -0.5676704632
O   O12       1.0  0.78452  0.88588  0.22814  1.0000 -0.5676704632
F   F1        1.0  0.40960  0.40960  0.75000  1.0000 -0.5641421066
F   F2        1.0  0.59040  0.59040  0.25000  1.0000 -0.5641421066
