# DDEC6 charges by PACMAN v1.1 (https://github.com/mtap-research/PACMAN-charge/)
data_2012[Cu][tbo]3[ASR]1
_chemical_formula_sum              "Cu36 H48 C96 N48 O104"
_cell_length_a       30.127
_cell_length_b       30.127
_cell_length_c       30.127
_cell_angle_alpha    60
_cell_angle_beta     60
_cell_angle_gamma    60

_symmetry_space_group_name_H-M    "P 1"
_symmetry_Int_Tables_number       1

loop_
  _symmetry_equiv_pos_as_xyz
  'x, y, z'

loop_
  _atom_site_type_symbol
  _atom_site_label
  _atom_site_symmetry_multiplicity
  _atom_site_fract_x
  _atom_site_fract_y
  _atom_site_fract_z
  _atom_site_occupancy
  _atom_site_charge
Cu  Cu1       1.0  0.96871  0.30697  0.30697  1.0000 0.633756162
Cu  Cu2       1.0  0.30697  0.96871  0.41735  1.0000 0.633756162
Cu  Cu3       1.0  0.30697  0.41735  0.96871  1.0000 0.633756162
Cu  Cu4       1.0  0.41735  0.30697  0.30697  1.0000 0.633756162
Cu  Cu5       1.0  0.30697  0.96871  0.30697  1.0000 0.633756162
Cu  Cu6       1.0  0.41735  0.30697  0.96871  1.0000 0.633756162
Cu  Cu7       1.0  0.96871  0.30697  0.41735  1.0000 0.633756162
Cu  Cu8       1.0  0.30697  0.41735  0.30697  1.0000 0.6379256426
Cu  Cu9       1.0  0.30697  0.30697  0.96871  1.0000 0.633756162
Cu  Cu10      1.0  0.96871  0.41735  0.30697  1.0000 0.6379256426
Cu  Cu11      1.0  0.41735  0.96871  0.30697  1.0000 0.633756162
Cu  Cu12      1.0  0.30697  0.30697  0.41735  1.0000 0.6379256426
Cu  Cu13      1.0  0.03129  0.69303  0.58265  1.0000 0.633756162
Cu  Cu14      1.0  0.69303  0.03129  0.69303  1.0000 0.633756162
Cu  Cu15      1.0  0.69303  0.58265  0.69303  1.0000 0.633756162
Cu  Cu16      1.0  0.58265  0.69303  0.03129  1.0000 0.633756162
Cu  Cu17      1.0  0.69303  0.03129  0.58265  1.0000 0.6379256426
Cu  Cu18      1.0  0.58265  0.69303  0.69303  1.0000 0.6379256426
Cu  Cu19      1.0  0.03129  0.69303  0.69303  1.0000 0.633756162
Cu  Cu20      1.0  0.69303  0.58265  0.03129  1.0000 0.633756162
Cu  Cu21      1.0  0.69303  0.69303  0.58265  1.0000 0.633756162
Cu  Cu22      1.0  0.03129  0.58265  0.69303  1.0000 0.6379256426
Cu  Cu23      1.0  0.58265  0.03129  0.69303  1.0000 0.633756162
Cu  Cu24      1.0  0.69303  0.69303  0.03129  1.0000 0.633756162
Cu  Cu25      1.0  0.00000  0.00000  0.45662  1.0000 0.8299336413
Cu  Cu26      1.0  0.00000  0.00000  0.54338  1.0000 0.8299336413
Cu  Cu27      1.0  0.45662  0.54338  0.00000  1.0000 0.8299336413
Cu  Cu28      1.0  0.54338  0.45662  0.00000  1.0000 0.8299336413
Cu  Cu29      1.0  0.45662  0.00000  0.00000  1.0000 0.8299336413
Cu  Cu30      1.0  0.54338  0.00000  0.00000  1.0000 0.8299336413
Cu  Cu31      1.0  1.00000  0.45662  0.54338  1.0000 0.8299336413
Cu  Cu32      1.0  0.00000  0.54338  0.45662  1.0000 0.8299336413
Cu  Cu33      1.0  0.00000  0.45662  0.00000  1.0000 0.8299336413
Cu  Cu34      1.0  0.00000  0.54338  0.00000  1.0000 0.8299336413
Cu  Cu35      1.0  0.54338  0.00000  0.45662  1.0000 0.8299336413
Cu  Cu36      1.0  0.45662  0.00000  0.54338  1.0000 0.8299336413
H   H1        1.0  0.97530  0.18190  0.35670  1.0000 0.1060678679
H   H2        1.0  0.18190  0.97530  0.48610  1.0000 0.1060678679
H   H3        1.0  0.35670  0.48610  0.97530  1.0000 0.1060678679
H   H4        1.0  0.48610  0.35670  0.18190  1.0000 0.1060678679
H   H5        1.0  0.35670  0.97530  0.18190  1.0000 0.1060678679
H   H6        1.0  0.48610  0.18190  0.97530  1.0000 0.1060678679
H   H7        1.0  0.97530  0.35670  0.48610  1.0000 0.1060678679
H   H8        1.0  0.18190  0.48610  0.35670  1.0000 0.1060678679
H   H9        1.0  0.18190  0.35670  0.97530  1.0000 0.1060678679
H   H10       1.0  0.97530  0.48610  0.18190  1.0000 0.1060678679
H   H11       1.0  0.48610  0.97530  0.35670  1.0000 0.1060678679
H   H12       1.0  0.35670  0.18190  0.48610  1.0000 0.1060678679
H   H13       1.0  0.02470  0.81810  0.51390  1.0000 0.1060678679
H   H14       1.0  0.81810  0.02470  0.64330  1.0000 0.1060678679
H   H15       1.0  0.64330  0.51390  0.81810  1.0000 0.1060678679
H   H16       1.0  0.51390  0.64330  0.02470  1.0000 0.1060678679
H   H17       1.0  0.64330  0.02470  0.51390  1.0000 0.1060678679
H   H18       1.0  0.51390  0.81810  0.64330  1.0000 0.1060678679
H   H19       1.0  0.02470  0.64330  0.81810  1.0000 0.1060678679
H   H20       1.0  0.81810  0.51390  0.02470  1.0000 0.1060678679
H   H21       1.0  0.81810  0.64330  0.51390  1.0000 0.1060678679
H   H22       1.0  0.02470  0.51390  0.64330  1.0000 0.1060678679
H   H23       1.0  0.51390  0.02470  0.81810  1.0000 0.1060678679
H   H24       1.0  0.64330  0.81810  0.02470  1.0000 0.1060678679
H   H25       1.0  0.02470  0.81810  0.64330  1.0000 0.1060678679
H   H26       1.0  0.81810  0.02470  0.51390  1.0000 0.1060678679
H   H27       1.0  0.64330  0.51390  0.02470  1.0000 0.1060678679
H   H28       1.0  0.51390  0.64330  0.81810  1.0000 0.1060678679
H   H29       1.0  0.64330  0.02470  0.81810  1.0000 0.1060678679
H   H30       1.0  0.51390  0.81810  0.02470  1.0000 0.1060678679
H   H31       1.0  0.02470  0.64330  0.51390  1.0000 0.1060678679
H   H32       1.0  0.81810  0.51390  0.64330  1.0000 0.1060678679
H   H33       1.0  0.81810  0.64330  0.02470  1.0000 0.1060678679
H   H34       1.0  0.02470  0.51390  0.81810  1.0000 0.1060678679
H   H35       1.0  0.51390  0.02470  0.64330  1.0000 0.1060678679
H   H36       1.0  0.64330  0.81810  0.51390  1.0000 0.1060678679
H   H37       1.0  0.97530  0.18190  0.48610  1.0000 0.1060678679
H   H38       1.0  0.18190  0.97530  0.35670  1.0000 0.1060678679
H   H39       1.0  0.35670  0.48610  0.18190  1.0000 0.1060678679
H   H40       1.0  0.48610  0.35670  0.97530  1.0000 0.1060678679
H   H41       1.0  0.35670  0.97530  0.48610  1.0000 0.1060678679
H   H42       1.0  0.48610  0.18190  0.35670  1.0000 0.1060678679
H   H43       1.0  0.97530  0.35670  0.18190  1.0000 0.1060678679
H   H44       1.0  0.18190  0.48610  0.97530  1.0000 0.1060678679
H   H45       1.0  0.18190  0.35670  0.48610  1.0000 0.1060678679
H   H46       1.0  0.97530  0.48610  0.35670  1.0000 0.1060678679
H   H47       1.0  0.48610  0.97530  0.18190  1.0000 0.1060678679
H   H48       1.0  0.35670  0.18190  0.97530  1.0000 0.1060678679
C   C1        1.0  0.97443  0.19259  0.38131  1.0000 -0.0073517681
C   C2        1.0  0.19259  0.97443  0.45167  1.0000 -0.0073517681
C   C3        1.0  0.38131  0.45167  0.97443  1.0000 -0.0073517681
C   C4        1.0  0.45167  0.38131  0.19259  1.0000 -0.0073517681
C   C5        1.0  0.38131  0.97443  0.19259  1.0000 -0.0073517681
C   C6        1.0  0.45167  0.19259  0.97443  1.0000 -0.0073517681
C   C7        1.0  0.97443  0.38131  0.45167  1.0000 -0.0073517681
C   C8        1.0  0.19259  0.45167  0.38131  1.0000 -0.0073517681
C   C9        1.0  0.19259  0.38131  0.97443  1.0000 -0.0073517681
C   C10       1.0  0.97443  0.45167  0.19259  1.0000 -0.0073517681
C   C11       1.0  0.45167  0.97443  0.38131  1.0000 -0.0073517681
C   C12       1.0  0.38131  0.19259  0.45167  1.0000 -0.0073517681
C   C13       1.0  0.02557  0.80741  0.54833  1.0000 -0.0073517681
C   C14       1.0  0.80741  0.02557  0.61869  1.0000 -0.0073517681
C   C15       1.0  0.61869  0.54833  0.80741  1.0000 -0.0073517681
C   C16       1.0  0.54833  0.61869  0.02557  1.0000 -0.0073517681
C   C17       1.0  0.61869  0.02557  0.54833  1.0000 -0.0073517681
C   C18       1.0  0.54833  0.80741  0.61869  1.0000 -0.0073517681
C   C19       1.0  0.02557  0.61869  0.80741  1.0000 -0.0073517681
C   C20       1.0  0.80741  0.54833  0.02557  1.0000 -0.0073517681
C   C21       1.0  0.80741  0.61869  0.54833  1.0000 -0.0073517681
C   C22       1.0  0.02557  0.54833  0.61869  1.0000 -0.0073517681
C   C23       1.0  0.54833  0.02557  0.80741  1.0000 -0.0073517681
C   C24       1.0  0.61869  0.80741  0.02557  1.0000 -0.0073517681
C   C25       1.0  0.02557  0.80741  0.61869  1.0000 -0.0073517681
C   C26       1.0  0.80741  0.02557  0.54833  1.0000 -0.0073517681
C   C27       1.0  0.61869  0.54833  0.02557  1.0000 -0.0073517681
C   C28       1.0  0.54833  0.61869  0.80741  1.0000 -0.0073517681
C   C29       1.0  0.61869  0.02557  0.80741  1.0000 -0.0073517681
C   C30       1.0  0.54833  0.80741  0.02557  1.0000 -0.0073517681
C   C31       1.0  0.02557  0.61869  0.54833  1.0000 -0.0073517681
C   C32       1.0  0.80741  0.54833  0.61869  1.0000 -0.0073517681
C   C33       1.0  0.80741  0.61869  0.02557  1.0000 -0.0073517681
C   C34       1.0  0.02557  0.54833  0.80741  1.0000 -0.0073517681
C   C35       1.0  0.54833  0.02557  0.61869  1.0000 -0.0073517681
C   C36       1.0  0.61869  0.80741  0.54833  1.0000 -0.0073517681
C   C37       1.0  0.97443  0.19259  0.45167  1.0000 -0.0073517681
C   C38       1.0  0.19259  0.97443  0.38131  1.0000 -0.0073517681
C   C39       1.0  0.38131  0.45167  0.19259  1.0000 -0.0073517681
C   C40       1.0  0.45167  0.38131  0.97443  1.0000 -0.0073517681
C   C41       1.0  0.38131  0.97443  0.45167  1.0000 -0.0073517681
C   C42       1.0  0.45167  0.19259  0.38131  1.0000 -0.0073517681
C   C43       1.0  0.97443  0.38131  0.19259  1.0000 -0.0073517681
C   C44       1.0  0.19259  0.45167  0.97443  1.0000 -0.0073517681
C   C45       1.0  0.19259  0.38131  0.45167  1.0000 -0.0073517681
C   C46       1.0  0.97443  0.45167  0.38131  1.0000 -0.0046310644
C   C47       1.0  0.45167  0.97443  0.19259  1.0000 -0.0073517681
C   C48       1.0  0.38131  0.19259  0.97443  1.0000 -0.0073517681
C   C49       1.0  0.97782  0.15898  0.43160  1.0000 -0.1461116469
C   C50       1.0  0.15898  0.97782  0.43160  1.0000 -0.1461116469
C   C51       1.0  0.43160  0.43160  0.97782  1.0000 -0.1461116469
C   C52       1.0  0.43160  0.43160  0.15898  1.0000 -0.1461116469
C   C53       1.0  0.43160  0.97782  0.15898  1.0000 -0.1461116469
C   C54       1.0  0.43160  0.15898  0.97782  1.0000 -0.1461116469
C   C55       1.0  0.97782  0.43160  0.43160  1.0000 -0.1461116469
C   C56       1.0  0.15898  0.43160  0.43160  1.0000 -0.1461116469
C   C57       1.0  0.15898  0.43160  0.97782  1.0000 -0.1461116469
C   C58       1.0  0.97782  0.43160  0.15898  1.0000 -0.1461116469
C   C59       1.0  0.43160  0.97782  0.43160  1.0000 -0.1461116469
C   C60       1.0  0.43160  0.15898  0.43160  1.0000 -0.1461116469
C   C61       1.0  0.02218  0.84102  0.56840  1.0000 -0.1461116469
C   C62       1.0  0.84102  0.02218  0.56840  1.0000 -0.1461116469
C   C63       1.0  0.56840  0.56840  0.84102  1.0000 -0.1461116469
C   C64       1.0  0.56840  0.56840  0.02218  1.0000 -0.1461116469
C   C65       1.0  0.56840  0.02218  0.56840  1.0000 -0.1461116469
C   C66       1.0  0.56840  0.84102  0.56840  1.0000 -0.1461116469
C   C67       1.0  0.02218  0.56840  0.84102  1.0000 -0.1461116469
C   C68       1.0  0.84102  0.56840  0.02218  1.0000 -0.1461116469
C   C69       1.0  0.84102  0.56840  0.56840  1.0000 -0.1461116469
C   C70       1.0  0.02218  0.56840  0.56840  1.0000 -0.1461116469
C   C71       1.0  0.56840  0.02218  0.84102  1.0000 -0.1461116469
C   C72       1.0  0.56840  0.84102  0.02218  1.0000 -0.1461116469
C   C73       1.0  0.98412  0.10188  0.45700  1.0000 0.5897170632
C   C74       1.0  0.10188  0.98412  0.45700  1.0000 0.5897170632
C   C75       1.0  0.45700  0.45700  0.98412  1.0000 0.5897170632
C   C76       1.0  0.45700  0.45700  0.10188  1.0000 0.5897170632
C   C77       1.0  0.45700  0.98412  0.10188  1.0000 0.5897170632
C   C78       1.0  0.45700  0.10188  0.98412  1.0000 0.5897170632
C   C79       1.0  0.98412  0.45700  0.45700  1.0000 0.5897170632
C   C80       1.0  0.10188  0.45700  0.45700  1.0000 0.5897170632
C   C81       1.0  0.10188  0.45700  0.98412  1.0000 0.5897170632
C   C82       1.0  0.98412  0.45700  0.10188  1.0000 0.5897170632
C   C83       1.0  0.45700  0.98412  0.45700  1.0000 0.5897170632
C   C84       1.0  0.45700  0.10188  0.45700  1.0000 0.5897170632
C   C85       1.0  0.01588  0.89812  0.54300  1.0000 0.5897170632
C   C86       1.0  0.89812  0.01588  0.54300  1.0000 0.5897170632
C   C87       1.0  0.54300  0.54300  0.89812  1.0000 0.5897170632
C   C88       1.0  0.54300  0.54300  0.01588  1.0000 0.5897170632
C   C89       1.0  0.54300  0.01588  0.54300  1.0000 0.5897170632
C   C90       1.0  0.54300  0.89812  0.54300  1.0000 0.5897170632
C   C91       1.0  0.01588  0.54300  0.89812  1.0000 0.5897170632
C   C92       1.0  0.89812  0.54300  0.01588  1.0000 0.5897170632
C   C93       1.0  0.89812  0.54300  0.54300  1.0000 0.5897170632
C   C94       1.0  0.01588  0.54300  0.54300  1.0000 0.5897170632
C   C95       1.0  0.54300  0.01588  0.89812  1.0000 0.5897170632
C   C96       1.0  0.54300  0.89812  0.01588  1.0000 0.5897170632
N   N1        1.0  0.96957  0.24255  0.37177  1.0000 -0.1790260886
N   N2        1.0  0.24255  0.96957  0.41611  1.0000 -0.1790260886
N   N3        1.0  0.37177  0.41611  0.96957  1.0000 -0.1790260886
N   N4        1.0  0.41611  0.37177  0.24255  1.0000 -0.1790260886
N   N5        1.0  0.37177  0.96957  0.24255  1.0000 -0.1790260886
N   N6        1.0  0.41611  0.24255  0.96957  1.0000 -0.1790260886
N   N7        1.0  0.96957  0.37177  0.41611  1.0000 -0.1790260886
N   N8        1.0  0.24255  0.41611  0.37177  1.0000 -0.1790260886
N   N9        1.0  0.24255  0.37177  0.96957  1.0000 -0.1790260886
N   N10       1.0  0.96957  0.41611  0.24255  1.0000 -0.1790260886
N   N11       1.0  0.41611  0.96957  0.37177  1.0000 -0.1790260886
N   N12       1.0  0.37177  0.24255  0.41611  1.0000 -0.1790260886
N   N13       1.0  0.03043  0.75745  0.58389  1.0000 -0.1790260886
N   N14       1.0  0.75745  0.03043  0.62823  1.0000 -0.1790260886
N   N15       1.0  0.62823  0.58389  0.75745  1.0000 -0.1790260886
N   N16       1.0  0.58389  0.62823  0.03043  1.0000 -0.1790260886
N   N17       1.0  0.62823  0.03043  0.58389  1.0000 -0.1790260886
N   N18       1.0  0.58389  0.75745  0.62823  1.0000 -0.1790260886
N   N19       1.0  0.03043  0.62823  0.75745  1.0000 -0.1790260886
N   N20       1.0  0.75745  0.58389  0.03043  1.0000 -0.1790260886
N   N21       1.0  0.75745  0.62823  0.58389  1.0000 -0.1790260886
N   N22       1.0  0.03043  0.58389  0.62823  1.0000 -0.1790260886
N   N23       1.0  0.58389  0.03043  0.75745  1.0000 -0.1790260886
N   N24       1.0  0.62823  0.75745  0.03043  1.0000 -0.1790260886
N   N25       1.0  0.03043  0.75745  0.62823  1.0000 -0.1790260886
N   N26       1.0  0.75745  0.03043  0.58389  1.0000 -0.1790260886
N   N27       1.0  0.62823  0.58389  0.03043  1.0000 -0.1790260886
N   N28       1.0  0.58389  0.62823  0.75745  1.0000 -0.1790260886
N   N29       1.0  0.62823  0.03043  0.75745  1.0000 -0.1790260886
N   N30       1.0  0.58389  0.75745  0.03043  1.0000 -0.1790260886
N   N31       1.0  0.03043  0.62823  0.58389  1.0000 -0.1790260886
N   N32       1.0  0.75745  0.58389  0.62823  1.0000 -0.1790260886
N   N33       1.0  0.75745  0.62823  0.03043  1.0000 -0.1790260886
N   N34       1.0  0.03043  0.58389  0.75745  1.0000 -0.1790260886
N   N35       1.0  0.58389  0.03043  0.62823  1.0000 -0.1790260886
N   N36       1.0  0.62823  0.75745  0.58389  1.0000 -0.1790260886
N   N37       1.0  0.96957  0.24255  0.41611  1.0000 -0.1790260886
N   N38       1.0  0.24255  0.96957  0.37177  1.0000 -0.1790260886
N   N39       1.0  0.37177  0.41611  0.24255  1.0000 -0.1790260886
N   N40       1.0  0.41611  0.37177  0.96957  1.0000 -0.1790260886
N   N41       1.0  0.37177  0.96957  0.41611  1.0000 -0.1790260886
N   N42       1.0  0.41611  0.24255  0.37177  1.0000 -0.1790260886
N   N43       1.0  0.96957  0.37177  0.24255  1.0000 -0.1790260886
N   N44       1.0  0.24255  0.41611  0.96957  1.0000 -0.1790260886
N   N45       1.0  0.24255  0.37177  0.41611  1.0000 -0.1790260886
N   N46       1.0  0.96957  0.41611  0.37177  1.0000 -0.1790260886
N   N47       1.0  0.41611  0.96957  0.24255  1.0000 -0.1790260886
N   N48       1.0  0.37177  0.24255  0.96957  1.0000 -0.1790260886
O   O1        1.0  0.92560  0.28500  0.28500  1.0000 0.0312139506
O   O2        1.0  0.28500  0.92560  0.50440  1.0000 0.0312139506
O   O3        1.0  0.28500  0.50440  0.92560  1.0000 0.0312139506
O   O4        1.0  0.50440  0.28500  0.28500  1.0000 0.0312139506
O   O5        1.0  0.28500  0.92560  0.28500  1.0000 0.0312139506
O   O6        1.0  0.50440  0.28500  0.92560  1.0000 0.0312139506
O   O7        1.0  0.92560  0.28500  0.50440  1.0000 0.0312139506
O   O8        1.0  0.28500  0.50440  0.28500  1.0000 0.0312139506
O   O9        1.0  0.28500  0.28500  0.92560  1.0000 0.0312139506
O   O10       1.0  0.92560  0.50440  0.28500  1.0000 0.0312139506
O   O11       1.0  0.50440  0.92560  0.28500  1.0000 0.0312139506
O   O12       1.0  0.28500  0.28500  0.50440  1.0000 0.0312139506
O   O13       1.0  0.07440  0.71500  0.49560  1.0000 0.0312139506
O   O14       1.0  0.71500  0.07440  0.71500  1.0000 0.0312139506
O   O15       1.0  0.71500  0.49560  0.71500  1.0000 0.0312139506
O   O16       1.0  0.49560  0.71500  0.07440  1.0000 0.0312139506
O   O17       1.0  0.71500  0.07440  0.49560  1.0000 0.0312139506
O   O18       1.0  0.49560  0.71500  0.71500  1.0000 0.0312139506
O   O19       1.0  0.07440  0.71500  0.71500  1.0000 0.0312139506
O   O20       1.0  0.71500  0.49560  0.07440  1.0000 0.0312139506
O   O21       1.0  0.71500  0.71500  0.49560  1.0000 0.0312139506
O   O22       1.0  0.07440  0.49560  0.71500  1.0000 0.0312139506
O   O23       1.0  0.49560  0.07440  0.71500  1.0000 0.0312139506
O   O24       1.0  0.71500  0.71500  0.07440  1.0000 0.0312139506
O   O25       1.0  0.98660  0.33780  0.33780  1.0000 -0.8671309273
O   O26       1.0  0.33780  0.98660  0.33780  1.0000 -0.8671309273
O   O27       1.0  0.33780  0.33780  0.98660  1.0000 -0.8671309273
O   O28       1.0  0.33780  0.33780  0.33780  1.0000 -0.8802419822
O   O29       1.0  0.01340  0.66220  0.66220  1.0000 -0.8802419822
O   O30       1.0  0.66220  0.01340  0.66220  1.0000 -0.8671309273
O   O31       1.0  0.66220  0.66220  0.66220  1.0000 -0.8671309273
O   O32       1.0  0.66220  0.66220  0.01340  1.0000 -0.8671309273
O   O33       1.0  0.98721  0.07865  0.43033  1.0000 -0.5237522166
O   O34       1.0  0.07865  0.98721  0.50381  1.0000 -0.5237522166
O   O35       1.0  0.43033  0.50381  0.98721  1.0000 -0.5237522166
O   O36       1.0  0.50381  0.43033  0.07865  1.0000 -0.5237522166
O   O37       1.0  0.43033  0.98721  0.07865  1.0000 -0.5237522166
O   O38       1.0  0.50381  0.07865  0.98721  1.0000 -0.5255684326
O   O39       1.0  0.98721  0.43033  0.50381  1.0000 -0.5237522166
O   O40       1.0  0.07865  0.50381  0.43033  1.0000 -0.5255684326
O   O41       1.0  0.07865  0.43033  0.98721  1.0000 -0.5237522166
O   O42       1.0  0.98721  0.50381  0.07865  1.0000 -0.5237522166
O   O43       1.0  0.50381  0.98721  0.43033  1.0000 -0.5237522166
O   O44       1.0  0.43033  0.07865  0.50381  1.0000 -0.5237522166
O   O45       1.0  0.01279  0.92135  0.49619  1.0000 -0.5237522166
O   O46       1.0  0.92135  0.01279  0.56967  1.0000 -0.5237522166
O   O47       1.0  0.56967  0.49619  0.92135  1.0000 -0.5237522166
O   O48       1.0  0.49619  0.56967  0.01279  1.0000 -0.5237522166
O   O49       1.0  0.56967  0.01279  0.49619  1.0000 -0.5237522166
O   O50       1.0  0.49619  0.92135  0.56967  1.0000 -0.5237522166
O   O51       1.0  0.01279  0.56967  0.92135  1.0000 -0.5237522166
O   O52       1.0  0.92135  0.49619  0.01279  1.0000 -0.5237522166
O   O53       1.0  0.92135  0.56967  0.49619  1.0000 -0.5237522166
O   O54       1.0  0.01279  0.49619  0.56967  1.0000 -0.5237522166
O   O55       1.0  0.49619  0.01279  0.92135  1.0000 -0.5255684326
O   O56       1.0  0.56967  0.92135  0.01279  1.0000 -0.5237522166
O   O57       1.0  0.01279  0.92135  0.56967  1.0000 -0.5237522166
O   O58       1.0  0.92135  0.01279  0.49619  1.0000 -0.5237522166
O   O59       1.0  0.56967  0.49619  0.01279  1.0000 -0.5237522166
O   O60       1.0  0.49619  0.56967  0.92135  1.0000 -0.5237522166
O   O61       1.0  0.56967  0.01279  0.92135  1.0000 -0.5255684326
O   O62       1.0  0.49619  0.92135  0.01279  1.0000 -0.5237522166
O   O63       1.0  0.01279  0.56967  0.49619  1.0000 -0.5237522166
O   O64       1.0  0.92135  0.49619  0.56967  1.0000 -0.5237522166
O   O65       1.0  0.92135  0.56967  0.01279  1.0000 -0.5237522166
O   O66       1.0  0.01279  0.49619  0.92135  1.0000 -0.5237522166
O   O67       1.0  0.49619  0.01279  0.56967  1.0000 -0.5237522166
O   O68       1.0  0.56967  0.92135  0.49619  1.0000 -0.5237522166
O   O69       1.0  0.98721  0.07865  0.50381  1.0000 -0.5255684326
O   O70       1.0  0.07865  0.98721  0.43033  1.0000 -0.5237522166
O   O71       1.0  0.43033  0.50381  0.07865  1.0000 -0.5237522166
O   O72       1.0  0.50381  0.43033  0.98721  1.0000 -0.5237522166
O   O73       1.0  0.43033  0.98721  0.50381  1.0000 -0.5237522166
O   O74       1.0  0.50381  0.07865  0.43033  1.0000 -0.5237522166
O   O75       1.0  0.98721  0.43033  0.07865  1.0000 -0.5237522166
O   O76       1.0  0.07865  0.50381  0.98721  1.0000 -0.5255684326
O   O77       1.0  0.07865  0.43033  0.50381  1.0000 -0.5255684326
O   O78       1.0  0.98721  0.50381  0.43033  1.0000 -0.5237522166
O   O79       1.0  0.50381  0.98721  0.07865  1.0000 -0.5237522166
O   O80       1.0  0.43033  0.07865  0.98721  1.0000 -0.5255684326
O   O81       1.0  0.97230  0.26710  0.26710  1.0000 -0.0281387426
O   O82       1.0  0.26710  0.97230  0.49350  1.0000 -0.0226026466
O   O83       1.0  0.26710  0.49350  0.97230  1.0000 -0.0226026466
O   O84       1.0  0.49350  0.26710  0.26710  1.0000 -0.0281387426
O   O85       1.0  0.26710  0.97230  0.26710  1.0000 -0.0281387426
O   O86       1.0  0.49350  0.26710  0.97230  1.0000 -0.0226026466
O   O87       1.0  0.97230  0.26710  0.49350  1.0000 -0.0226026466
O   O88       1.0  0.26710  0.49350  0.26710  1.0000 -0.0281387426
O   O89       1.0  0.26710  0.26710  0.97230  1.0000 -0.0226026466
O   O90       1.0  0.97230  0.49350  0.26710  1.0000 -0.0281387426
O   O91       1.0  0.49350  0.97230  0.26710  1.0000 -0.0281387426
O   O92       1.0  0.26710  0.26710  0.49350  1.0000 -0.0226026466
O   O93       1.0  0.02770  0.73290  0.50650  1.0000 -0.0281387426
O   O94       1.0  0.73290  0.02770  0.73290  1.0000 -0.0281387426
O   O95       1.0  0.73290  0.50650  0.73290  1.0000 -0.0226026466
O   O96       1.0  0.50650  0.73290  0.02770  1.0000 -0.0281387426
O   O97       1.0  0.73290  0.02770  0.50650  1.0000 -0.0281387426
O   O98       1.0  0.50650  0.73290  0.73290  1.0000 -0.0281387426
O   O99       1.0  0.02770  0.73290  0.73290  1.0000 -0.0226026466
O   O100      1.0  0.73290  0.50650  0.02770  1.0000 -0.0281387426
O   O101      1.0  0.73290  0.73290  0.50650  1.0000 -0.0226026466
O   O102      1.0  0.02770  0.50650  0.73290  1.0000 -0.0226026466
O   O103      1.0  0.50650  0.02770  0.73290  1.0000 -0.0281387426
O   O104      1.0  0.73290  0.73290  0.02770  1.0000 -0.0281387426
