# DDEC6 charges by PACMAN v1.1 (https://github.com/mtap-research/PACMAN-charge/)
data_2012[Zn][dia]3[ASR]3
_chemical_formula_sum              "Zn4 H68 C68 N20 O16"
_cell_length_a       12.1748
_cell_length_b       12.1748
_cell_length_c       16.93
_cell_angle_alpha    65.238
_cell_angle_beta     114.762
_cell_angle_gamma    107.886

_symmetry_space_group_name_H-M    "P 1"
_symmetry_Int_Tables_number       1

loop_
  _symmetry_equiv_pos_as_xyz
  'x, y, z'

loop_
  _atom_site_type_symbol
  _atom_site_label
  _atom_site_symmetry_multiplicity
  _atom_site_fract_x
  _atom_site_fract_y
  _atom_site_fract_z
  _atom_site_occupancy
  _atom_site_charge
Zn  Zn1       1.0  0.32439  0.81083  0.63193  1.0000 0.7201461705
Zn  Zn2       1.0  0.81083  0.32439  0.86807  1.0000 0.7201461705
Zn  Zn3       1.0  0.67561  0.18917  0.36807  1.0000 0.7201461705
Zn  Zn4       1.0  0.18917  0.67561  0.13193  1.0000 0.7201461705
H   H1        1.0  0.10400  0.65220  0.91150  1.0000 0.1199619765
H   H2        1.0  0.65220  0.10400  0.58850  1.0000 0.1199619765
H   H3        1.0  0.89600  0.34780  0.08850  1.0000 0.1199619765
H   H4        1.0  0.34780  0.89600  0.41150  1.0000 0.1199619765
H   H5        1.0  0.28180  0.78900  0.92530  1.0000 0.1282432887
H   H6        1.0  0.78900  0.28180  0.57470  1.0000 0.1282432887
H   H7        1.0  0.71820  0.21100  0.07470  1.0000 0.1282432887
H   H8        1.0  0.21100  0.71820  0.42530  1.0000 0.1282432887
H   H9        1.0  0.38080  0.85380  0.82070  1.0000 0.1282432887
H   H10       1.0  0.85380  0.38080  0.67930  1.0000 0.1282432887
H   H11       1.0  0.61920  0.14620  0.17930  1.0000 0.1282432887
H   H12       1.0  0.14620  0.61920  0.32070  1.0000 0.1282432887
H   H13       1.0  0.33580  0.56320  0.61860  1.0000 0.1199619765
H   H14       1.0  0.56320  0.33580  0.88140  1.0000 0.1199619765
H   H15       1.0  0.66420  0.43680  0.38140  1.0000 0.1199619765
H   H16       1.0  0.43680  0.66420  0.11860  1.0000 0.1199619765
H   H17       1.0  0.59940  0.84260  0.63080  1.0000 0.1199619765
H   H18       1.0  0.84260  0.59940  0.86920  1.0000 0.1199619765
H   H19       1.0  0.40060  0.15740  0.36920  1.0000 0.1199619765
H   H20       1.0  0.15740  0.40060  0.13080  1.0000 0.1199619765
H   H21       1.0  0.68000  0.68220  0.63090  1.0000 0.1357376489
H   H22       1.0  0.68220  0.68000  0.86910  1.0000 0.1357376489
H   H23       1.0  0.32000  0.31780  0.36910  1.0000 0.1357376489
H   H24       1.0  0.31780  0.32000  0.13090  1.0000 0.1357376489
H   H25       1.0  0.57560  0.42220  0.68280  1.0000 0.1199619765
H   H26       1.0  0.42220  0.57560  0.81720  1.0000 0.1199619765
H   H27       1.0  0.42440  0.57780  0.31720  1.0000 0.1199619765
H   H28       1.0  0.57780  0.42440  0.18280  1.0000 0.1199619765
H   H29       1.0  0.43450  0.40770  0.62860  1.0000 0.1199619765
H   H30       1.0  0.40770  0.43450  0.87140  1.0000 0.1199619765
H   H31       1.0  0.56550  0.59230  0.37140  1.0000 0.1199619765
H   H32       1.0  0.59230  0.56550  0.12860  1.0000 0.1199619765
H   H33       1.0  0.52710  0.38390  0.54720  1.0000 0.1032066308
H   H34       1.0  0.38390  0.52710  0.95280  1.0000 0.1032066308
H   H35       1.0  0.47290  0.61610  0.45280  1.0000 0.1032066308
H   H36       1.0  0.61610  0.47290  0.04720  1.0000 0.1032066308
H   H37       1.0  0.62150  0.50330  0.55200  1.0000 0.1199619765
H   H38       1.0  0.50330  0.62150  0.94800  1.0000 0.1199619765
H   H39       1.0  0.37850  0.49670  0.44800  1.0000 0.1199619765
H   H40       1.0  0.49670  0.37850  0.05200  1.0000 0.1199619765
H   H41       1.0  0.05810  0.80870  0.48290  1.0000 0.1199619765
H   H42       1.0  0.80870  0.05810  0.01710  1.0000 0.1199619765
H   H43       1.0  0.94190  0.19130  0.51710  1.0000 0.1199619765
H   H44       1.0  0.19130  0.94190  0.98290  1.0000 0.1199619765
H   H45       1.0  0.30000  0.09780  0.50670  1.0000 0.1199619765
H   H46       1.0  0.09780  0.30000  0.99330  1.0000 0.1199619765
H   H47       1.0  0.70000  0.90220  0.49330  1.0000 0.1199619765
H   H48       1.0  0.90220  0.70000  0.00670  1.0000 0.1199619765
H   H49       1.0  0.11800  0.16840  0.37770  1.0000 0.1357376489
H   H50       1.0  0.16840  0.11800  0.12230  1.0000 0.1357376489
H   H51       1.0  0.88200  0.83160  0.62230  1.0000 0.1357376489
H   H52       1.0  0.83160  0.88200  0.87770  1.0000 0.1357376489
H   H53       1.0  0.87260  0.89880  0.36320  1.0000 0.1199619765
H   H54       1.0  0.89880  0.87260  0.13680  1.0000 0.1199619765
H   H55       1.0  0.12740  0.10120  0.63680  1.0000 0.1199619765
H   H56       1.0  0.10120  0.12740  0.86320  1.0000 0.1199619765
H   H57       1.0  0.87690  0.03950  0.33750  1.0000 0.1199619765
H   H58       1.0  0.03950  0.87690  0.16250  1.0000 0.1199619765
H   H59       1.0  0.12310  0.96050  0.66250  1.0000 0.1199619765
H   H60       1.0  0.96050  0.12310  0.83750  1.0000 0.1199619765
H   H61       1.0  0.84150  0.98710  0.20720  1.0000 0.1071658092
H   H62       1.0  0.98710  0.84150  0.29280  1.0000 0.1071658092
H   H63       1.0  0.15850  0.01290  0.79280  1.0000 0.1071658092
H   H64       1.0  0.01290  0.15850  0.70720  1.0000 0.1071658092
H   H65       1.0  0.95640  0.08860  0.22310  1.0000 0.1071658092
H   H66       1.0  0.08860  0.95640  0.27690  1.0000 0.1071658092
H   H67       1.0  0.04360  0.91140  0.77690  1.0000 0.1071658092
H   H68       1.0  0.91140  0.04360  0.72310  1.0000 0.1071658092
C   C1        1.0  0.12280  0.60680  0.66360  1.0000 0.511912069
C   C2        1.0  0.60680  0.12280  0.83640  1.0000 0.511912069
C   C3        1.0  0.87720  0.39320  0.33640  1.0000 0.511912069
C   C4        1.0  0.39320  0.87720  0.16360  1.0000 0.511912069
C   C5        1.0  0.96850  0.54910  0.78270  1.0000 0.5752186092
C   C6        1.0  0.54910  0.96850  0.71730  1.0000 0.5752186092
C   C7        1.0  0.03150  0.45090  0.21730  1.0000 0.5752186092
C   C8        1.0  0.45090  0.03150  0.28270  1.0000 0.5752186092
C   C9        1.0  0.16430  0.66590  0.73710  1.0000 0.1032066308
C   C10       1.0  0.66590  0.16430  0.76290  1.0000 0.1071658092
C   C11       1.0  0.83570  0.33410  0.26290  1.0000 0.1071658092
C   C12       1.0  0.33410  0.83570  0.23710  1.0000 0.1032066308
C   C13       1.0  0.09210  0.62970  0.79690  1.0000 -0.0668812034
C   C14       1.0  0.62970  0.09210  0.70310  1.0000 -0.0668812034
C   C15       1.0  0.90790  0.37030  0.20310  1.0000 -0.0668812034
C   C16       1.0  0.37030  0.90790  0.29690  1.0000 -0.0668812034
C   C17       1.0  0.14280  0.67660  0.86840  1.0000 -0.0875861881
C   C18       1.0  0.67660  0.14280  0.63160  1.0000 -0.0875861881
C   C19       1.0  0.85720  0.32340  0.13160  1.0000 -0.0875861881
C   C20       1.0  0.32340  0.85720  0.36840  1.0000 -0.0875861881
C   C21       1.0  0.24950  0.75850  0.87660  1.0000 -0.1351148126
C   C22       1.0  0.75850  0.24950  0.62340  1.0000 -0.134739199
C   C23       1.0  0.75050  0.24150  0.12340  1.0000 -0.134739199
C   C24       1.0  0.24150  0.75050  0.37660  1.0000 -0.134739199
C   C25       1.0  0.30940  0.79660  0.81510  1.0000 0.0414958795
C   C26       1.0  0.79660  0.30940  0.68490  1.0000 0.0414958795
C   C27       1.0  0.69060  0.20340  0.18490  1.0000 0.0414958795
C   C28       1.0  0.20340  0.69060  0.31510  1.0000 0.0414958795
C   C29       1.0  0.41180  0.61280  0.62250  1.0000 0.0789255749
C   C30       1.0  0.61280  0.41180  0.87750  1.0000 0.0789255749
C   C31       1.0  0.58820  0.38720  0.37750  1.0000 0.0789255749
C   C32       1.0  0.38720  0.58820  0.12250  1.0000 0.0789255749
C   C33       1.0  0.55590  0.76570  0.62850  1.0000 -0.0323439188
C   C34       1.0  0.76570  0.55590  0.87150  1.0000 -0.0323439188
C   C35       1.0  0.44410  0.23430  0.37150  1.0000 -0.0323439188
C   C36       1.0  0.23430  0.44410  0.12850  1.0000 -0.0323439188
C   C37       1.0  0.60150  0.67750  0.62930  1.0000 -0.1099774962
C   C38       1.0  0.67750  0.60150  0.87070  1.0000 -0.1099774962
C   C39       1.0  0.39850  0.32250  0.37070  1.0000 -0.1099774962
C   C40       1.0  0.32250  0.39850  0.12930  1.0000 -0.1099774962
C   C41       1.0  0.51230  0.46010  0.62700  1.0000 -0.1195411918
C   C42       1.0  0.46010  0.51230  0.87300  1.0000 -0.1195411918
C   C43       1.0  0.48770  0.53990  0.37300  1.0000 -0.1195411918
C   C44       1.0  0.53990  0.48770  0.12700  1.0000 -0.1195411918
C   C45       1.0  0.53630  0.46710  0.54490  1.0000 -0.1888882306
C   C46       1.0  0.46710  0.53630  0.95510  1.0000 -0.1888882306
C   C47       1.0  0.46370  0.53290  0.45510  1.0000 -0.1888882306
C   C48       1.0  0.53290  0.46370  0.04490  1.0000 -0.1888882306
C   C49       1.0  0.09620  0.88980  0.47370  1.0000 0.0789255749
C   C50       1.0  0.88980  0.09620  0.02630  1.0000 0.0789255749
C   C51       1.0  0.90380  0.11020  0.52630  1.0000 0.0789255749
C   C52       1.0  0.11020  0.90380  0.97370  1.0000 0.0789255749
C   C53       1.0  0.22800  0.04740  0.48550  1.0000 -0.0323439188
C   C54       1.0  0.04740  0.22800  0.01450  1.0000 -0.0323439188
C   C55       1.0  0.77200  0.95260  0.51450  1.0000 -0.0323439188
C   C56       1.0  0.95260  0.77200  0.98550  1.0000 -0.0323439188
C   C57       1.0  0.12710  0.08770  0.41530  1.0000 -0.1195411918
C   C58       1.0  0.08770  0.12710  0.08470  1.0000 -0.1195411918
C   C59       1.0  0.87290  0.91230  0.58470  1.0000 -0.1195411918
C   C60       1.0  0.91230  0.87290  0.91530  1.0000 -0.1195411918
C   C61       1.0  0.91890  0.97950  0.34270  1.0000 -0.1099774962
C   C62       1.0  0.97950  0.91890  0.15730  1.0000 -0.1099774962
C   C63       1.0  0.08110  0.02050  0.65730  1.0000 -0.1099774962
C   C64       1.0  0.02050  0.08110  0.84270  1.0000 -0.1099774962
C   C65       1.0  0.92410  0.00290  0.24850  1.0000 -0.1888882306
C   C66       1.0  0.00290  0.92410  0.25150  1.0000 -0.1888882306
C   C67       1.0  0.07590  0.99710  0.75150  1.0000 -0.1888882306
C   C68       1.0  0.99710  0.07590  0.74850  1.0000 -0.1888882306
N   N1        1.0  0.26200  0.74860  0.74390  1.0000 -0.2562772718
N   N2        1.0  0.74860  0.26200  0.75610  1.0000 -0.2562772718
N   N3        1.0  0.73800  0.25140  0.25610  1.0000 -0.2562772718
N   N4        1.0  0.25140  0.73800  0.24390  1.0000 -0.2562772718
N   N5        1.0  0.50910  0.57970  0.62720  1.0000 0.0414958795
N   N6        1.0  0.57970  0.50910  0.87280  1.0000 0.0414958795
N   N7        1.0  0.49090  0.42030  0.37280  1.0000 0.0414958795
N   N8        1.0  0.42030  0.49090  0.12720  1.0000 0.0414958795
N   N9        1.0  0.43720  0.72600  0.62390  1.0000 -0.2817531911
N   N10       1.0  0.72600  0.43720  0.87610  1.0000 -0.2817531911
N   N11       1.0  0.56280  0.27400  0.37610  1.0000 -0.2817531911
N   N12       1.0  0.27400  0.56280  0.12390  1.0000 -0.2817531911
N   N13       1.0  0.04200  0.98680  0.41090  1.0000 0.0414958795
N   N14       1.0  0.98680  0.04200  0.08910  1.0000 0.0414958795
N   N15       1.0  0.95800  0.01320  0.58910  1.0000 0.0414958795
N   N16       1.0  0.01320  0.95800  0.91090  1.0000 0.0414958795
N   N17       1.0  0.21010  0.92410  0.52070  1.0000 -0.2742327985
N   N18       1.0  0.92410  0.21010  0.97930  1.0000 -0.2742327985
N   N19       1.0  0.78990  0.07590  0.47930  1.0000 -0.2742327985
N   N20       1.0  0.07590  0.78990  0.02070  1.0000 -0.2742327985
O   O1        1.0  0.18110  0.65990  0.60740  1.0000 -0.577705988
O   O2        1.0  0.65990  0.18110  0.89260  1.0000 -0.577705988
O   O3        1.0  0.81890  0.34010  0.39260  1.0000 -0.577705988
O   O4        1.0  0.34010  0.81890  0.10740  1.0000 -0.577705988
O   O5        1.0  0.04470  0.51690  0.66430  1.0000 -0.5082774696
O   O6        1.0  0.51690  0.04470  0.83570  1.0000 -0.5082774696
O   O7        1.0  0.95530  0.48310  0.33570  1.0000 -0.5082774696
O   O8        1.0  0.48310  0.95530  0.16430  1.0000 -0.5082774696
O   O9        1.0  0.87910  0.59210  0.71420  1.0000 -0.5880548445
O   O10       1.0  0.59210  0.87910  0.78580  1.0000 -0.5880548445
O   O11       1.0  0.12090  0.40790  0.28580  1.0000 -0.5880548445
O   O12       1.0  0.40790  0.12090  0.21420  1.0000 -0.5880548445
O   O13       1.0  0.96270  0.44530  0.84500  1.0000 -0.5628180144
O   O14       1.0  0.44530  0.96270  0.65500  1.0000 -0.5628180144
O   O15       1.0  0.03730  0.55470  0.15500  1.0000 -0.5628180144
O   O16       1.0  0.55470  0.03730  0.34500  1.0000 -0.5628180144
