# DDEC6 charges by PACMAN v1.1 (https://github.com/mtap-research/PACMAN-charge/)
data_2012[Co][pts]3[ASR]1
_chemical_formula_sum              "Co6 H80 C104 O38"
_cell_length_a       13.5196
_cell_length_b       13.5196
_cell_length_c       34.326
_cell_angle_alpha    80.9381
_cell_angle_beta     99.0619
_cell_angle_gamma    132.277

_symmetry_space_group_name_H-M    "P 1"
_symmetry_Int_Tables_number       1

loop_
  _symmetry_equiv_pos_as_xyz
  'x, y, z'

loop_
  _atom_site_type_symbol
  _atom_site_label
  _atom_site_symmetry_multiplicity
  _atom_site_fract_x
  _atom_site_fract_y
  _atom_site_fract_z
  _atom_site_occupancy
  _atom_site_charge
Co  Co1       1.0  0.50000  0.00000  0.50000  1.0000 1.1148456898
Co  Co2       1.0  0.00000  0.50000  0.00000  1.0000 1.1148456898
Co  Co3       1.0  0.85778  0.22420  0.49718  1.0000 0.9718017545
Co  Co4       1.0  0.22420  0.85778  0.00282  1.0000 0.9718017545
Co  Co5       1.0  0.14222  0.77580  0.50282  1.0000 0.9718017545
Co  Co6       1.0  0.77580  0.14222  0.99718  1.0000 0.9718017545
H   H1        1.0  0.59810  0.56970  0.20800  1.0000 0.0988888108
H   H2        1.0  0.56970  0.59810  0.29200  1.0000 0.0988888108
H   H3        1.0  0.40190  0.43030  0.79200  1.0000 0.0988888108
H   H4        1.0  0.43030  0.40190  0.70800  1.0000 0.0988888108
H   H5        1.0  0.65450  0.54270  0.24790  1.0000 0.093476619
H   H6        1.0  0.54270  0.65450  0.25210  1.0000 0.093476619
H   H7        1.0  0.34550  0.45730  0.75210  1.0000 0.093476619
H   H8        1.0  0.45730  0.34550  0.74790  1.0000 0.093476619
H   H9        1.0  0.45680  0.19160  0.24120  1.0000 0.0988888108
H   H10       1.0  0.19160  0.45680  0.25880  1.0000 0.0988888108
H   H11       1.0  0.54320  0.80840  0.75880  1.0000 0.0988888108
H   H12       1.0  0.80840  0.54320  0.74120  1.0000 0.0988888108
H   H13       1.0  0.43510  0.26050  0.26740  1.0000 0.0988888108
H   H14       1.0  0.26050  0.43510  0.23260  1.0000 0.0988888108
H   H15       1.0  0.56490  0.73950  0.73260  1.0000 0.0988888108
H   H16       1.0  0.73950  0.56490  0.76740  1.0000 0.0988888108
H   H17       1.0  0.71150  0.45190  0.20490  1.0000 0.0988888108
H   H18       1.0  0.45190  0.71150  0.29510  1.0000 0.0988888108
H   H19       1.0  0.28850  0.54810  0.79510  1.0000 0.0988888108
H   H20       1.0  0.54810  0.28850  0.70490  1.0000 0.0988888108
H   H21       1.0  0.63780  0.46420  0.16670  1.0000 0.0988888108
H   H22       1.0  0.46420  0.63780  0.33333  1.0000 0.0988888108
H   H23       1.0  0.36220  0.53580  0.83330  1.0000 0.0988888108
H   H24       1.0  0.53580  0.36220  0.66667  1.0000 0.0988888108
H   H25       1.0  0.32040  0.27840  0.20650  1.0000 0.0988888108
H   H26       1.0  0.27840  0.32040  0.29350  1.0000 0.0988888108
H   H27       1.0  0.67960  0.72160  0.79350  1.0000 0.0988888108
H   H28       1.0  0.72160  0.67960  0.70650  1.0000 0.0988888108
H   H29       1.0  0.36110  0.22910  0.17910  1.0000 0.093476619
H   H30       1.0  0.22910  0.36110  0.32090  1.0000 0.093476619
H   H31       1.0  0.63890  0.77090  0.82090  1.0000 0.093476619
H   H32       1.0  0.77090  0.63890  0.67910  1.0000 0.093476619
H   H33       1.0  0.43370  0.12290  0.31340  1.0000 0.1214331597
H   H34       1.0  0.12290  0.43370  0.18660  1.0000 0.1214331597
H   H35       1.0  0.56630  0.87710  0.68660  1.0000 0.1214331597
H   H36       1.0  0.87710  0.56630  0.81340  1.0000 0.1214331597
H   H37       1.0  0.45900  0.05980  0.37840  1.0000 0.1214331597
H   H38       1.0  0.05980  0.45900  0.12160  1.0000 0.1214331597
H   H39       1.0  0.54100  0.94020  0.62160  1.0000 0.1214331597
H   H40       1.0  0.94020  0.54100  0.87840  1.0000 0.1214331597
H   H41       1.0  0.85040  0.37000  0.37960  1.0000 0.1126445573
H   H42       1.0  0.37000  0.85040  0.12040  1.0000 0.1126445573
H   H43       1.0  0.14960  0.63000  0.62040  1.0000 0.1126445573
H   H44       1.0  0.63000  0.14960  0.87960  1.0000 0.1126445573
H   H45       1.0  0.82510  0.43310  0.31600  1.0000 0.1370179744
H   H46       1.0  0.43310  0.82510  0.18400  1.0000 0.1370179744
H   H47       1.0  0.17490  0.56690  0.68400  1.0000 0.1370179744
H   H48       1.0  0.56690  0.17490  0.81600  1.0000 0.1370179744
H   H49       1.0  0.78660  0.47240  0.13900  1.0000 0.1214331597
H   H50       1.0  0.47240  0.78660  0.36100  1.0000 0.1214331597
H   H51       1.0  0.21340  0.52760  0.86100  1.0000 0.1214331597
H   H52       1.0  0.52760  0.21340  0.63900  1.0000 0.1214331597
H   H53       1.0  0.84590  0.44990  0.08350  1.0000 0.1370179744
H   H54       1.0  0.44990  0.84590  0.41650  1.0000 0.1370179744
H   H55       1.0  0.15410  0.55010  0.91650  1.0000 0.1370179744
H   H56       1.0  0.55010  0.15410  0.58350  1.0000 0.1370179744
H   H57       1.0  0.52200  0.05980  0.08820  1.0000 0.1214331597
H   H58       1.0  0.05980  0.52200  0.41180  1.0000 0.1214331597
H   H59       1.0  0.47800  0.94020  0.91180  1.0000 0.1214331597
H   H60       1.0  0.94020  0.47800  0.58820  1.0000 0.1214331597
H   H61       1.0  0.46660  0.08080  0.14460  1.0000 0.129269306
H   H62       1.0  0.08080  0.46660  0.35540  1.0000 0.129269306
H   H63       1.0  0.53340  0.91920  0.85540  1.0000 0.129269306
H   H64       1.0  0.91920  0.53340  0.64460  1.0000 0.129269306
H   H65       1.0  0.42600  0.56180  0.10980  1.0000 0.1370179744
H   H66       1.0  0.56180  0.42600  0.39020  1.0000 0.1370179744
H   H67       1.0  0.57400  0.43820  0.89020  1.0000 0.1370179744
H   H68       1.0  0.43820  0.57400  0.60980  1.0000 0.1370179744
H   H69       1.0  0.27400  0.52400  0.05840  1.0000 0.129269306
H   H70       1.0  0.52400  0.27400  0.44160  1.0000 0.129269306
H   H71       1.0  0.72600  0.47600  0.94160  1.0000 0.129269306
H   H72       1.0  0.47600  0.72600  0.55840  1.0000 0.129269306
H   H73       1.0  0.03150  0.13390  0.08820  1.0000 0.1214331597
H   H74       1.0  0.13390  0.03150  0.41180  1.0000 0.1214331597
H   H75       1.0  0.96850  0.86610  0.91180  1.0000 0.1214331597
H   H76       1.0  0.86610  0.96850  0.58820  1.0000 0.1214331597
H   H77       1.0  0.17800  0.17100  0.14180  1.0000 0.1214331597
H   H78       1.0  0.17100  0.17800  0.35820  1.0000 0.1214331597
H   H79       1.0  0.82200  0.82900  0.85820  1.0000 0.1214331597
H   H80       1.0  0.82900  0.82200  0.64180  1.0000 0.1214331597
C   C1        1.0  0.52241  0.37479  0.21547  1.0000 0.0640630242
C   C2        1.0  0.37479  0.52241  0.28453  1.0000 0.0640630242
C   C3        1.0  0.47759  0.62521  0.78453  1.0000 0.0640630242
C   C4        1.0  0.62521  0.47759  0.71547  1.0000 0.0640630242
C   C5        1.0  0.57524  0.50476  0.23009  1.0000 -0.0883519841
C   C6        1.0  0.50476  0.57524  0.26991  1.0000 -0.0883519841
C   C7        1.0  0.42476  0.49524  0.76991  1.0000 -0.0883519841
C   C8        1.0  0.49524  0.42476  0.73009  1.0000 -0.0883519841
C   C9        1.0  0.49611  0.27649  0.25043  1.0000 -0.0883519841
C   C10       1.0  0.27649  0.49611  0.24957  1.0000 -0.0883519841
C   C11       1.0  0.50389  0.72351  0.74957  1.0000 -0.0883519841
C   C12       1.0  0.72351  0.50389  0.75043  1.0000 -0.0883519841
C   C13       1.0  0.62579  0.40681  0.18989  1.0000 -0.0780197842
C   C14       1.0  0.40681  0.62579  0.31011  1.0000 -0.0883519841
C   C15       1.0  0.37421  0.59319  0.81011  1.0000 -0.0883519841
C   C16       1.0  0.59319  0.37421  0.68989  1.0000 -0.0780197842
C   C17       1.0  0.38971  0.30689  0.19049  1.0000 -0.0955333761
C   C18       1.0  0.30689  0.38971  0.30951  1.0000 -0.0955333761
C   C19       1.0  0.61029  0.69311  0.80951  1.0000 -0.0955333761
C   C20       1.0  0.69311  0.61029  0.69049  1.0000 -0.0955333761
C   C21       1.0  0.62509  0.28611  0.30871  1.0000 0.2455088016
C   C22       1.0  0.28611  0.62509  0.19129  1.0000 0.2455088016
C   C23       1.0  0.37491  0.71389  0.69129  1.0000 0.2455088016
C   C24       1.0  0.71389  0.37491  0.80871  1.0000 0.2455088016
C   C25       1.0  0.51804  0.17436  0.32684  1.0000 -0.2390472773
C   C26       1.0  0.17436  0.51804  0.17316  1.0000 -0.2390472773
C   C27       1.0  0.48196  0.82564  0.67316  1.0000 -0.2390472773
C   C28       1.0  0.82564  0.48196  0.82684  1.0000 -0.2390472773
C   C29       1.0  0.53382  0.13578  0.36586  1.0000 -0.0780197842
C   C30       1.0  0.13578  0.53382  0.13414  1.0000 -0.0780197842
C   C31       1.0  0.46618  0.86422  0.63414  1.0000 -0.0780197842
C   C32       1.0  0.86422  0.46618  0.86586  1.0000 -0.0780197842
C   C33       1.0  0.65761  0.20799  0.38601  1.0000 -0.0533536809
C   C34       1.0  0.20799  0.65761  0.11399  1.0000 -0.0533536809
C   C35       1.0  0.34239  0.79201  0.61399  1.0000 -0.0533536809
C   C36       1.0  0.79201  0.34239  0.88601  1.0000 -0.0533536809
C   C37       1.0  0.76530  0.31950  0.36665  1.0000 -0.0883519841
C   C38       1.0  0.31950  0.76530  0.13335  1.0000 -0.0883519841
C   C39       1.0  0.23470  0.68050  0.63335  1.0000 -0.0780197842
C   C40       1.0  0.68050  0.23470  0.86665  1.0000 -0.0883519841
C   C41       1.0  0.75010  0.35770  0.32867  1.0000 -0.2183908506
C   C42       1.0  0.35770  0.75010  0.17133  1.0000 -0.2183908506
C   C43       1.0  0.24990  0.64230  0.67133  1.0000 -0.2183908506
C   C44       1.0  0.64230  0.24990  0.82867  1.0000 -0.2183908506
C   C45       1.0  0.67301  0.16899  0.42820  1.0000 0.6000126418
C   C46       1.0  0.16899  0.67301  0.07180  1.0000 0.6000126418
C   C47       1.0  0.32699  0.83101  0.57180  1.0000 0.6000126418
C   C48       1.0  0.83101  0.32699  0.92820  1.0000 0.6000126418
C   C49       1.0  0.61968  0.27972  0.14601  1.0000 0.2401696373
C   C50       1.0  0.27972  0.61968  0.35399  1.0000 0.2401696373
C   C51       1.0  0.38032  0.72028  0.85399  1.0000 0.2401696373
C   C52       1.0  0.72028  0.38032  0.64601  1.0000 0.2401696373
C   C53       1.0  0.73340  0.38920  0.12872  1.0000 -0.2343677167
C   C54       1.0  0.38920  0.73340  0.37128  1.0000 -0.2343677167
C   C55       1.0  0.26660  0.61080  0.87128  1.0000 -0.2343677167
C   C56       1.0  0.61080  0.26660  0.62872  1.0000 -0.2343677167
C   C57       1.0  0.76916  0.37524  0.09564  1.0000 -0.0693926705
C   C58       1.0  0.37524  0.76916  0.40436  1.0000 -0.0693926705
C   C59       1.0  0.23084  0.62476  0.90436  1.0000 -0.0693926705
C   C60       1.0  0.62476  0.23084  0.59564  1.0000 -0.0693926705
C   C61       1.0  0.69128  0.25072  0.08054  1.0000 -0.0428316617
C   C62       1.0  0.25072  0.69128  0.41946  1.0000 -0.0428316617
C   C63       1.0  0.30872  0.74928  0.91946  1.0000 -0.0428316617
C   C64       1.0  0.74928  0.30872  0.58054  1.0000 -0.0428316617
C   C65       1.0  0.57701  0.14299  0.09861  1.0000 -0.0883519841
C   C66       1.0  0.14299  0.57701  0.40139  1.0000 -0.0883519841
C   C67       1.0  0.42299  0.85701  0.90139  1.0000 -0.0883519841
C   C68       1.0  0.85701  0.42299  0.59861  1.0000 -0.0883519841
C   C69       1.0  0.54190  0.15550  0.13188  1.0000 -0.2183908506
C   C70       1.0  0.15550  0.54190  0.36812  1.0000 -0.2183908506
C   C71       1.0  0.45810  0.84450  0.86812  1.0000 -0.2183908506
C   C72       1.0  0.84450  0.45810  0.63188  1.0000 -0.2183908506
C   C73       1.0  0.73011  0.23369  0.04558  1.0000 0.5844209757
C   C74       1.0  0.23369  0.73011  0.45442  1.0000 0.5844209757
C   C75       1.0  0.26989  0.76631  0.95442  1.0000 0.5844209757
C   C76       1.0  0.76631  0.26989  0.54558  1.0000 0.5844209757
C   C77       1.0  0.31694  0.37046  0.13076  1.0000 0.2401696373
C   C78       1.0  0.37046  0.31694  0.36924  1.0000 0.2401696373
C   C79       1.0  0.68306  0.62954  0.86924  1.0000 0.2401696373
C   C80       1.0  0.62954  0.68306  0.63076  1.0000 0.2401696373
C   C81       1.0  0.34560  0.47500  0.10588  1.0000 -0.2183908506
C   C82       1.0  0.47500  0.34560  0.39412  1.0000 -0.2183908506
C   C83       1.0  0.65440  0.52500  0.89412  1.0000 -0.2183908506
C   C84       1.0  0.52500  0.65440  0.60588  1.0000 -0.2183908506
C   C85       1.0  0.25497  0.45203  0.07479  1.0000 -0.0780197842
C   C86       1.0  0.45203  0.25497  0.42521  1.0000 -0.0780197842
C   C87       1.0  0.74503  0.54797  0.92521  1.0000 -0.0780197842
C   C88       1.0  0.54797  0.74503  0.57479  1.0000 -0.0780197842
C   C89       1.0  0.13821  0.32499  0.06788  1.0000 -0.0533536809
C   C90       1.0  0.32499  0.13821  0.43212  1.0000 -0.0533536809
C   C91       1.0  0.86179  0.67501  0.93212  1.0000 -0.0533536809
C   C92       1.0  0.67501  0.86179  0.56788  1.0000 -0.0533536809
C   C93       1.0  0.11071  0.22089  0.09276  1.0000 -0.0693926705
C   C94       1.0  0.22089  0.11071  0.40724  1.0000 -0.0693926705
C   C95       1.0  0.88929  0.77911  0.90724  1.0000 -0.0693926705
C   C96       1.0  0.77911  0.88929  0.59276  1.0000 -0.0693926705
C   C97       1.0  0.19890  0.24250  0.12472  1.0000 -0.2468183223
C   C98       1.0  0.24250  0.19890  0.37528  1.0000 -0.2468183223
C   C99       1.0  0.80110  0.75750  0.87528  1.0000 -0.2468183223
C   C100      1.0  0.75750  0.80110  0.62472  1.0000 -0.2468183223
C   C101      1.0  0.04167  0.30453  0.03420  1.0000 0.6126376506
C   C102      1.0  0.30453  0.04167  0.46580  1.0000 0.6126376506
C   C103      1.0  0.95833  0.69547  0.96580  1.0000 0.6126376506
C   C104      1.0  0.69547  0.95833  0.53420  1.0000 0.6126376506
O   O1        1.0  0.47120  0.47120  0.25000  1.0000 -0.1886765195
O   O2        1.0  0.52880  0.52880  0.75000  1.0000 -0.1886765195
O   O3        1.0  0.62313  0.33687  0.27137  1.0000 -0.181316733
O   O4        1.0  0.33687  0.62313  0.22863  1.0000 -0.181316733
O   O5        1.0  0.37687  0.66313  0.72863  1.0000 -0.181316733
O   O6        1.0  0.66313  0.37687  0.77137  1.0000 -0.181316733
O   O7        1.0  0.57415  0.28225  0.17868  1.0000 -0.1988901306
O   O8        1.0  0.28225  0.57415  0.32132  1.0000 -0.1988901306
O   O9        1.0  0.42585  0.71775  0.82132  1.0000 -0.1988901306
O   O10       1.0  0.71775  0.42585  0.67868  1.0000 -0.1988901306
O   O11       1.0  0.41535  0.40625  0.15974  1.0000 -0.1886765195
O   O12       1.0  0.40625  0.41535  0.34026  1.0000 -0.1886765195
O   O13       1.0  0.58465  0.59375  0.84026  1.0000 -0.1886765195
O   O14       1.0  0.59375  0.58465  0.65974  1.0000 -0.1886765195
O   O15       1.0  0.56912  0.07408  0.44471  1.0000 -0.560475621
O   O16       1.0  0.07408  0.56912  0.05529  1.0000 -0.560475621
O   O17       1.0  0.43088  0.92592  0.55529  1.0000 -0.560475621
O   O18       1.0  0.92592  0.43088  0.94471  1.0000 -0.560475621
O   O19       1.0  0.79198  0.23622  0.44387  1.0000 -0.578836653
O   O20       1.0  0.23622  0.79198  0.05613  1.0000 -0.578836653
O   O21       1.0  0.20802  0.76378  0.55613  1.0000 -0.578836653
O   O22       1.0  0.76378  0.20802  0.94387  1.0000 -0.578836653
O   O23       1.0  0.66576  0.11524  0.03685  1.0000 -0.5402650867
O   O24       1.0  0.11524  0.66576  0.46315  1.0000 -0.5402650867
O   O25       1.0  0.33424  0.88476  0.96315  1.0000 -0.5402650867
O   O26       1.0  0.88476  0.33424  0.53685  1.0000 -0.5402650867
O   O27       1.0  0.82202  0.33098  0.02594  1.0000 -0.5681897584
O   O28       1.0  0.33098  0.82202  0.47406  1.0000 -0.5681897584
O   O29       1.0  0.17798  0.66902  0.97406  1.0000 -0.5681897584
O   O30       1.0  0.66902  0.17798  0.52594  1.0000 -0.5681897584
O   O31       1.0  0.07555  0.40565  0.01250  1.0000 -0.578836653
O   O32       1.0  0.40565  0.07555  0.48750  1.0000 -0.578836653
O   O33       1.0  0.92445  0.59435  0.98750  1.0000 -0.578836653
O   O34       1.0  0.59435  0.92445  0.51250  1.0000 -0.578836653
O   O35       1.0  0.93298  0.18642  0.02945  1.0000 -0.5681897584
O   O36       1.0  0.18642  0.93298  0.47055  1.0000 -0.5681897584
O   O37       1.0  0.06702  0.81358  0.97055  1.0000 -0.5681897584
O   O38       1.0  0.81358  0.06702  0.52945  1.0000 -0.5681897584
