# DDEC6 charges by PACMAN v1.1 (https://github.com/mtap-research/PACMAN-charge/)
data_2012[Tb][nan]3[ASR]2
_chemical_formula_sum              "Tb2 H40 C52 O19"
_cell_length_a       16.7109
_cell_length_b       16.7109
_cell_length_c       14.5262
_cell_angle_alpha    75.9343
_cell_angle_beta     104.066
_cell_angle_gamma    155.587

_symmetry_space_group_name_H-M    "P 1"
_symmetry_Int_Tables_number       1

loop_
  _symmetry_equiv_pos_as_xyz
  'x, y, z'

loop_
  _atom_site_type_symbol
  _atom_site_label
  _atom_site_symmetry_multiplicity
  _atom_site_fract_x
  _atom_site_fract_y
  _atom_site_fract_z
  _atom_site_occupancy
  _atom_site_charge
Tb  Tb1       1.0  0.99496  0.49228  0.96952  1.0000 2.0330085619
Tb  Tb2       1.0  0.49228  0.99496  0.03048  1.0000 2.0330085619
H   H1        1.0  0.80890  0.70790  0.52700  1.0000 0.1003095068
H   H2        1.0  0.70790  0.80890  0.47300  1.0000 0.1003095068
H   H3        1.0  0.71810  0.68490  0.43390  1.0000 0.0923655084
H   H4        1.0  0.68490  0.71810  0.56610  1.0000 0.0923655084
H   H5        1.0  0.22180  0.10860  0.49570  1.0000 0.1003095068
H   H6        1.0  0.10860  0.22180  0.50430  1.0000 0.1003095068
H   H7        1.0  0.26130  0.08550  0.42900  1.0000 0.1003095068
H   H8        1.0  0.08550  0.26130  0.57100  1.0000 0.1003095068
H   H9        1.0  0.75210  0.61850  0.34600  1.0000 0.1003095068
H   H10       1.0  0.61850  0.75210  0.65400  1.0000 0.1003095068
H   H11       1.0  0.84470  0.63750  0.43390  1.0000 0.1003095068
H   H12       1.0  0.63750  0.84470  0.56610  1.0000 0.1003095068
H   H13       1.0  0.11180  0.04040  0.28670  1.0000 0.1003095068
H   H14       1.0  0.04040  0.11180  0.71330  1.0000 0.1003095068
H   H15       1.0  0.11560  0.10600  0.35250  1.0000 0.1003095068
H   H16       1.0  0.10600  0.11560  0.64750  1.0000 0.1003095068
H   H17       1.0  0.65740  0.40480  0.34120  1.0000 0.113520415
H   H18       1.0  0.40480  0.65740  0.65880  1.0000 0.113520415
H   H19       1.0  0.54180  0.20260  0.26110  1.0000 0.1187225687
H   H20       1.0  0.20260  0.54180  0.73890  1.0000 0.1187225687
H   H21       1.0  0.03380  0.66300  0.12540  1.0000 0.1297530545
H   H22       1.0  0.66300  0.03380  0.87460  1.0000 0.1297530545
H   H23       1.0  0.15010  0.86390  0.20580  1.0000 0.1398486732
H   H24       1.0  0.86390  0.15010  0.79420  1.0000 0.1297530545
H   H25       1.0  0.59720  0.73060  0.20870  1.0000 0.1297530545
H   H26       1.0  0.73060  0.59720  0.79130  1.0000 0.1297530545
H   H27       1.0  0.60690  0.87430  0.11670  1.0000 0.1297530545
H   H28       1.0  0.87430  0.60690  0.88330  1.0000 0.1297530545
H   H29       1.0  0.18480  0.38500  0.12780  1.0000 0.1187225687
H   H30       1.0  0.38500  0.18480  0.87220  1.0000 0.1187225687
H   H31       1.0  0.17540  0.24320  0.21980  1.0000 0.1187225687
H   H32       1.0  0.24320  0.17540  0.78020  1.0000 0.1187225687
H   H33       1.0  0.49040  0.28700  0.56330  1.0000 0.1187225687
H   H34       1.0  0.28700  0.49040  0.43670  1.0000 0.1187225687
H   H35       1.0  0.71950  0.43810  0.68420  1.0000 0.1187225687
H   H36       1.0  0.43810  0.71950  0.31580  1.0000 0.1187225687
H   H37       1.0  0.34900  0.92080  0.78830  1.0000 0.1187225687
H   H38       1.0  0.92080  0.34900  0.21170  1.0000 0.1187225687
H   H39       1.0  0.11170  0.76970  0.67550  1.0000 0.1452659382
H   H40       1.0  0.76970  0.11170  0.32450  1.0000 0.1398486732
C   C1        1.0  0.97917  0.87243  0.41300  1.0000 0.0690329349
C   C2        1.0  0.87243  0.97917  0.58700  1.0000 0.0690329349
C   C3        1.0  0.83820  0.77740  0.47140  1.0000 -0.1002282859
C   C4        1.0  0.77740  0.83820  0.52860  1.0000 -0.1002282859
C   C5        1.0  0.16790  0.01550  0.46980  1.0000 -0.0940071108
C   C6        1.0  0.01550  0.16790  0.53020  1.0000 -0.0940071108
C   C7        1.0  0.87360  0.70800  0.37950  1.0000 -0.1002282859
C   C8        1.0  0.70800  0.87360  0.62050  1.0000 -0.1002282859
C   C9        1.0  0.03640  0.99420  0.32930  1.0000 -0.0812688787
C   C10       1.0  0.99420  0.03640  0.67070  1.0000 -0.0812688787
C   C11       1.0  0.91240  0.65420  0.27680  1.0000 0.2566638453
C   C12       1.0  0.65420  0.91240  0.72320  1.0000 0.2566638453
C   C13       1.0  0.73160  0.45640  0.29700  1.0000 -0.2578227358
C   C14       1.0  0.45640  0.73160  0.70300  1.0000 -0.2578227358
C   C15       1.0  0.66360  0.33600  0.24850  1.0000 -0.0690528429
C   C16       1.0  0.33600  0.66360  0.75150  1.0000 -0.0812688787
C   C17       1.0  0.76960  0.40720  0.18360  1.0000 -0.0690528429
C   C18       1.0  0.40720  0.76960  0.81640  1.0000 -0.0690528429
C   C19       1.0  0.95690  0.61010  0.16780  1.0000 -0.0581280986
C   C20       1.0  0.61010  0.95690  0.83220  1.0000 -0.0581280986
C   C21       1.0  0.02550  0.73010  0.21550  1.0000 -0.2207434239
C   C22       1.0  0.73010  0.02550  0.78450  1.0000 -0.2207434239
C   C23       1.0  0.88660  0.97520  0.22380  1.0000 0.250806169
C   C24       1.0  0.97520  0.88660  0.77620  1.0000 0.250806169
C   C25       1.0  0.71570  0.86290  0.19280  1.0000 -0.23161058
C   C26       1.0  0.86290  0.71570  0.80720  1.0000 -0.23161058
C   C27       1.0  0.72150  0.94890  0.13750  1.0000 -0.0690528429
C   C28       1.0  0.94890  0.72150  0.86250  1.0000 -0.0690528429
C   C29       1.0  0.89940  0.14700  0.11370  1.0000 -0.0518208822
C   C30       1.0  0.14700  0.89940  0.88630  1.0000 -0.0518208822
C   C31       1.0  0.06570  0.25290  0.14440  1.0000 -0.0812688787
C   C32       1.0  0.25290  0.06570  0.85560  1.0000 -0.0812688787
C   C33       1.0  0.06080  0.16860  0.19950  1.0000 -0.2405197458
C   C34       1.0  0.16860  0.06080  0.80050  1.0000 -0.2405197458
C   C35       1.0  0.91540  0.24900  0.05950  1.0000 0.6002371175
C   C36       1.0  0.24900  0.91540  0.94050  1.0000 0.6002371175
C   C37       1.0  0.27650  0.01390  0.60860  1.0000 0.250806169
C   C38       1.0  0.01390  0.27650  0.39140  1.0000 0.250806169
C   C39       1.0  0.45930  0.21250  0.61020  1.0000 -0.265001847
C   C40       1.0  0.21250  0.45930  0.38980  1.0000 -0.265001847
C   C41       1.0  0.59890  0.30390  0.68110  1.0000 -0.0812688787
C   C42       1.0  0.30390  0.59890  0.31890  1.0000 -0.0812688787
C   C43       1.0  0.55600  0.19300  0.74700  1.0000 -0.0518208822
C   C44       1.0  0.19300  0.55600  0.25300  1.0000 -0.0518208822
C   C45       1.0  0.37620  0.99440  0.74460  1.0000 -0.0690528429
C   C46       1.0  0.99440  0.37620  0.25540  1.0000 -0.0690528429
C   C47       1.0  0.23480  0.90420  0.67610  1.0000 -0.2134104507
C   C48       1.0  0.90420  0.23480  0.32390  1.0000 -0.2134104507
C   C49       1.0  0.70400  0.29180  0.82360  1.0000 0.6131631596
C   C50       1.0  0.29180  0.70400  0.17640  1.0000 0.6131631596
C   C51       1.0  0.68750  0.27150  0.13420  1.0000 0.6207741363
C   C52       1.0  0.27150  0.68750  0.86580  1.0000 0.6207741363
O   O1        1.0  0.76761  0.16139  0.04090  1.0000 -0.7021342652
O   O2        1.0  0.16139  0.76761  0.95910  1.0000 -0.7021342652
O   O3        1.0  0.07410  0.42070  0.03450  1.0000 -0.5538793342
O   O4        1.0  0.42070  0.07410  0.96550  1.0000 -0.5538793342
O   O5        1.0  0.52629  0.09271  0.15670  1.0000 -0.6012405293
O   O6        1.0  0.09271  0.52629  0.84330  1.0000 -0.6012405293
O   O7        1.0  0.77618  0.33462  0.06650  1.0000 -0.7535673814
O   O8        1.0  0.33462  0.77618  0.93350  1.0000 -0.7535673814
O   O9        1.0  0.66583  0.19357  0.88940  1.0000 -0.7353326218
O   O10       1.0  0.19357  0.66583  0.11060  1.0000 -0.7353326218
O   O11       1.0  0.86995  0.47265  0.82470  1.0000 -0.5878523426
O   O12       1.0  0.47265  0.86995  0.17530  1.0000 -0.5878523426
O   O13       1.0  0.99139  0.78381  0.31790  1.0000 -0.1803288868
O   O14       1.0  0.78381  0.99139  0.68210  1.0000 -0.1803288868
O   O15       1.0  0.12813  0.90987  0.54450  1.0000 -0.1803288868
O   O16       1.0  0.90987  0.12813  0.45550  1.0000 -0.1803288868
O   O17       1.0  0.86734  0.87966  0.28000  1.0000 -0.1803288868
O   O18       1.0  0.87966  0.86734  0.72000  1.0000 -0.1803288868
O   O19       1.0  0.91990  0.91990  0.50000  1.0000 -0.1900716411
