# DDEC6 charges by PACMAN v1.1 (https://github.com/mtap-research/PACMAN-charge/)
data_2012[Co][scu]3[ASR]1
_chemical_formula_sum              "Co8 H48 C74 O44"
_cell_length_a       20.078
_cell_length_b       20.078
_cell_length_c       11.252
_cell_angle_alpha    90
_cell_angle_beta     90
_cell_angle_gamma    90

_symmetry_space_group_name_H-M    "P 1"
_symmetry_Int_Tables_number       1

loop_
  _symmetry_equiv_pos_as_xyz
  'x, y, z'

loop_
  _atom_site_type_symbol
  _atom_site_label
  _atom_site_symmetry_multiplicity
  _atom_site_fract_x
  _atom_site_fract_y
  _atom_site_fract_z
  _atom_site_occupancy
  _atom_site_charge
Co  Co1       1.0  0.24464  0.74464  0.46357  1.0000 1.0672413676
Co  Co2       1.0  0.25536  0.24464  0.53643  1.0000 1.0672413676
Co  Co3       1.0  0.75536  0.25536  0.46357  1.0000 1.0672413676
Co  Co4       1.0  0.74464  0.75536  0.53643  1.0000 1.0672413676
Co  Co5       1.0  0.12774  0.62774  0.58011  1.0000 1.0620447366
Co  Co6       1.0  0.37226  0.12774  0.41989  1.0000 1.0620447366
Co  Co7       1.0  0.87226  0.37226  0.58011  1.0000 1.0620447366
Co  Co8       1.0  0.62774  0.87226  0.41989  1.0000 1.0620447366
H   H1        1.0  0.22910  0.68070  0.65520  1.0000 0.3735293417
H   H2        1.0  0.31930  0.22910  0.34480  1.0000 0.3735293417
H   H3        1.0  0.77090  0.31930  0.65520  1.0000 0.3735293417
H   H4        1.0  0.68070  0.77090  0.34480  1.0000 0.3735293417
H   H5        1.0  0.27090  0.18070  0.34480  1.0000 0.3735293417
H   H6        1.0  0.72910  0.81930  0.34480  1.0000 0.3735293417
H   H7        1.0  0.81930  0.27090  0.65520  1.0000 0.3735293417
H   H8        1.0  0.18070  0.72910  0.65520  1.0000 0.3735293417
H   H9        1.0  0.09960  0.83700  0.25210  1.0000 0.1388650804
H   H10       1.0  0.16300  0.09960  0.74790  1.0000 0.1388650804
H   H11       1.0  0.90040  0.16300  0.25210  1.0000 0.1388650804
H   H12       1.0  0.83700  0.90040  0.74790  1.0000 0.1388650804
H   H13       1.0  0.40040  0.33700  0.74790  1.0000 0.1388650804
H   H14       1.0  0.59960  0.66300  0.74790  1.0000 0.1388650804
H   H15       1.0  0.66300  0.40040  0.25210  1.0000 0.1388650804
H   H16       1.0  0.33700  0.59960  0.25210  1.0000 0.1388650804
H   H17       1.0  0.90500  0.87760  0.21100  1.0000 0.1158863201
H   H18       1.0  0.12240  0.90500  0.78900  1.0000 0.1158863201
H   H19       1.0  0.09500  0.12240  0.21100  1.0000 0.1158863201
H   H20       1.0  0.87760  0.09500  0.78900  1.0000 0.1158863201
H   H21       1.0  0.59500  0.37760  0.78900  1.0000 0.1158863201
H   H22       1.0  0.40500  0.62240  0.78900  1.0000 0.1158863201
H   H23       1.0  0.62240  0.59500  0.21100  1.0000 0.1158863201
H   H24       1.0  0.37760  0.40500  0.21100  1.0000 0.1158863201
H   H25       1.0  0.96340  0.73600  0.44260  1.0000 0.1301554466
H   H26       1.0  0.26400  0.96340  0.55740  1.0000 0.1301554466
H   H27       1.0  0.03660  0.26400  0.44260  1.0000 0.1301554466
H   H28       1.0  0.73600  0.03660  0.55740  1.0000 0.1301554466
H   H29       1.0  0.53660  0.23600  0.55740  1.0000 0.1301554466
H   H30       1.0  0.46340  0.76400  0.55740  1.0000 0.1301554466
H   H31       1.0  0.76400  0.53660  0.44260  1.0000 0.1301554466
H   H32       1.0  0.23600  0.46340  0.44260  1.0000 0.1301554466
H   H33       1.0  0.94530  0.91280  0.02990  1.0000 0.1023979282
H   H34       1.0  0.08720  0.94530  0.97010  1.0000 0.1023979282
H   H35       1.0  0.05470  0.08720  0.02990  1.0000 0.1023979282
H   H36       1.0  0.91280  0.05470  0.97010  1.0000 0.1023979282
H   H37       1.0  0.55470  0.41280  0.97010  1.0000 0.1023979282
H   H38       1.0  0.44530  0.58720  0.97010  1.0000 0.1023979282
H   H39       1.0  0.58720  0.55470  0.02990  1.0000 0.1023979282
H   H40       1.0  0.41280  0.44530  0.02990  1.0000 0.1023979282
H   H41       1.0  0.93800  0.96560  0.13640  1.0000 0.1023979282
H   H42       1.0  0.03440  0.93800  0.86360  1.0000 0.1023979282
H   H43       1.0  0.06200  0.03440  0.13640  1.0000 0.1023979282
H   H44       1.0  0.96560  0.06200  0.86360  1.0000 0.1023979282
H   H45       1.0  0.56200  0.46560  0.86360  1.0000 0.1023979282
H   H46       1.0  0.43800  0.53440  0.86360  1.0000 0.1023979282
H   H47       1.0  0.53440  0.56200  0.13640  1.0000 0.1023979282
H   H48       1.0  0.46560  0.43800  0.13640  1.0000 0.1023979282
C   C1        1.0  0.09630  0.74080  0.40580  1.0000 0.6075467437
C   C2        1.0  0.25920  0.09630  0.59420  1.0000 0.6075467437
C   C3        1.0  0.90370  0.25920  0.40580  1.0000 0.6075467437
C   C4        1.0  0.74080  0.90370  0.59420  1.0000 0.6075467437
C   C5        1.0  0.40370  0.24080  0.59420  1.0000 0.6075467437
C   C6        1.0  0.59630  0.75920  0.59420  1.0000 0.6075467437
C   C7        1.0  0.75920  0.40370  0.40580  1.0000 0.6075467437
C   C8        1.0  0.24080  0.59630  0.40580  1.0000 0.6075467437
C   C9        1.0  0.04050  0.78010  0.35310  1.0000 -0.0073554675
C   C10       1.0  0.21990  0.04050  0.64690  1.0000 -0.0073554675
C   C11       1.0  0.95950  0.21990  0.35310  1.0000 -0.0073554675
C   C12       1.0  0.78010  0.95950  0.64690  1.0000 -0.0073554675
C   C13       1.0  0.45950  0.28010  0.64690  1.0000 -0.0073554675
C   C14       1.0  0.54050  0.71990  0.64690  1.0000 -0.0073554675
C   C15       1.0  0.71990  0.45950  0.35310  1.0000 -0.0073554675
C   C16       1.0  0.28010  0.54050  0.35310  1.0000 -0.0073554675
C   C17       1.0  0.05440  0.82860  0.27250  1.0000 -0.2025806133
C   C18       1.0  0.17140  0.05440  0.72750  1.0000 -0.2025806133
C   C19       1.0  0.94560  0.17140  0.27250  1.0000 -0.2025806133
C   C20       1.0  0.82860  0.94560  0.72750  1.0000 -0.2025806133
C   C21       1.0  0.44560  0.32860  0.72750  1.0000 -0.2025806133
C   C22       1.0  0.55440  0.67140  0.72750  1.0000 -0.2025806133
C   C23       1.0  0.67140  0.44560  0.27250  1.0000 -0.2025806133
C   C24       1.0  0.32860  0.55440  0.27250  1.0000 -0.2025806133
C   C25       1.0  0.00260  0.86760  0.21700  1.0000 0.2504273622
C   C26       1.0  0.13240  0.00260  0.78300  1.0000 0.2504273622
C   C27       1.0  0.99740  0.13240  0.21700  1.0000 0.2504273622
C   C28       1.0  0.86760  0.99740  0.78300  1.0000 0.2504273622
C   C29       1.0  0.49740  0.36760  0.78300  1.0000 0.2504273622
C   C30       1.0  0.50260  0.63240  0.78300  1.0000 0.2504273622
C   C31       1.0  0.63240  0.49740  0.21700  1.0000 0.2504273622
C   C32       1.0  0.36760  0.50260  0.21700  1.0000 0.2504273622
C   C33       1.0  0.94030  0.85460  0.24920  1.0000 -0.2454700799
C   C34       1.0  0.14540  0.94030  0.75080  1.0000 -0.2454700799
C   C35       1.0  0.05970  0.14540  0.24920  1.0000 -0.2454700799
C   C36       1.0  0.85460  0.05970  0.75080  1.0000 -0.2454700799
C   C37       1.0  0.55970  0.35460  0.75080  1.0000 -0.2454700799
C   C38       1.0  0.44030  0.64540  0.75080  1.0000 -0.2454700799
C   C39       1.0  0.64540  0.55970  0.24920  1.0000 -0.2454700799
C   C40       1.0  0.35460  0.44030  0.24920  1.0000 -0.2454700799
C   C41       1.0  0.92520  0.80800  0.33770  1.0000 0.0083005328
C   C42       1.0  0.19200  0.92520  0.66230  1.0000 0.0083005328
C   C43       1.0  0.07480  0.19200  0.33770  1.0000 0.0083005328
C   C44       1.0  0.80800  0.07480  0.66230  1.0000 0.0083005328
C   C45       1.0  0.57480  0.30800  0.66230  1.0000 0.0083005328
C   C46       1.0  0.42520  0.69200  0.66230  1.0000 0.0083005328
C   C47       1.0  0.69200  0.57480  0.33770  1.0000 0.0083005328
C   C48       1.0  0.30800  0.42520  0.33770  1.0000 0.0083005328
C   C49       1.0  0.97420  0.76960  0.38640  1.0000 -0.1153452651
C   C50       1.0  0.23040  0.97420  0.61360  1.0000 -0.1153452651
C   C51       1.0  0.02580  0.23040  0.38640  1.0000 -0.1153452651
C   C52       1.0  0.76960  0.02580  0.61360  1.0000 -0.1153452651
C   C53       1.0  0.52580  0.26960  0.61360  1.0000 -0.1153452651
C   C54       1.0  0.47420  0.73040  0.61360  1.0000 -0.1153452651
C   C55       1.0  0.73040  0.52580  0.38640  1.0000 -0.1153452651
C   C56       1.0  0.26960  0.47420  0.38640  1.0000 -0.1153452651
C   C57       1.0  0.85180  0.79890  0.37220  1.0000 0.5798471539
C   C58       1.0  0.20110  0.85180  0.62780  1.0000 0.5798471539
C   C59       1.0  0.14820  0.20110  0.37220  1.0000 0.5798471539
C   C60       1.0  0.79890  0.14820  0.62780  1.0000 0.5798471539
C   C61       1.0  0.64820  0.29890  0.62780  1.0000 0.5798471539
C   C62       1.0  0.35180  0.70110  0.62780  1.0000 0.5798471539
C   C63       1.0  0.70110  0.64820  0.37220  1.0000 0.5798471539
C   C64       1.0  0.29890  0.35180  0.37220  1.0000 0.5798471539
C   C65       1.0  0.96960  0.94560  0.07910  1.0000 -0.0853519768
C   C66       1.0  0.05440  0.96960  0.92090  1.0000 -0.0853519768
C   C67       1.0  0.03040  0.05440  0.07910  1.0000 -0.0853519768
C   C68       1.0  0.94560  0.03040  0.92090  1.0000 -0.0847998739
C   C69       1.0  0.53040  0.44560  0.92090  1.0000 -0.0853519768
C   C70       1.0  0.46960  0.55440  0.92090  1.0000 -0.0853519768
C   C71       1.0  0.55440  0.53040  0.07910  1.0000 -0.0853519768
C   C72       1.0  0.44560  0.46960  0.07910  1.0000 -0.0853519768
C   C73       1.0  0.00000  0.00000  0.00000  1.0000 0.0582169263
C   C74       1.0  0.50000  0.50000  0.00000  1.0000 0.0582169263
O   O1        1.0  0.15360  0.75989  0.38520  1.0000 -0.5487924547
O   O2        1.0  0.24011  0.15360  0.61480  1.0000 -0.5487924547
O   O3        1.0  0.84640  0.24011  0.38520  1.0000 -0.5487924547
O   O4        1.0  0.75989  0.84640  0.61480  1.0000 -0.5487924547
O   O5        1.0  0.34640  0.25989  0.61480  1.0000 -0.5487924547
O   O6        1.0  0.65360  0.74011  0.61480  1.0000 -0.5487924547
O   O7        1.0  0.74011  0.34640  0.38520  1.0000 -0.5487924547
O   O8        1.0  0.25989  0.65360  0.38520  1.0000 -0.5487924547
O   O9        1.0  0.07946  0.69140  0.46960  1.0000 -0.6006246836
O   O10       1.0  0.30860  0.07946  0.53040  1.0000 -0.6006246836
O   O11       1.0  0.92054  0.30860  0.46960  1.0000 -0.6006246836
O   O12       1.0  0.69140  0.92054  0.53040  1.0000 -0.6006246836
O   O13       1.0  0.42054  0.19140  0.53040  1.0000 -0.6006246836
O   O14       1.0  0.57946  0.80860  0.53040  1.0000 -0.6006246836
O   O15       1.0  0.80860  0.42054  0.46960  1.0000 -0.6006246836
O   O16       1.0  0.19140  0.57946  0.46960  1.0000 -0.6006246836
O   O17       1.0  0.83833  0.76332  0.45990  1.0000 -0.5557749302
O   O18       1.0  0.23668  0.83833  0.54010  1.0000 -0.5557749302
O   O19       1.0  0.16167  0.23668  0.45990  1.0000 -0.5557749302
O   O20       1.0  0.76332  0.16167  0.54010  1.0000 -0.5557749302
O   O21       1.0  0.66167  0.26332  0.54010  1.0000 -0.5557749302
O   O22       1.0  0.33833  0.73668  0.54010  1.0000 -0.5557749302
O   O23       1.0  0.73668  0.66167  0.45990  1.0000 -0.5557749302
O   O24       1.0  0.26332  0.33833  0.45990  1.0000 -0.5557749302
O   O25       1.0  0.81010  0.82980  0.30930  1.0000 -0.5393580825
O   O26       1.0  0.17020  0.81010  0.69070  1.0000 -0.5393580825
O   O27       1.0  0.18990  0.17020  0.30930  1.0000 -0.5393580825
O   O28       1.0  0.82980  0.18990  0.69070  1.0000 -0.5393580825
O   O29       1.0  0.68990  0.32980  0.69070  1.0000 -0.5393580825
O   O30       1.0  0.31010  0.67020  0.69070  1.0000 -0.5393580825
O   O31       1.0  0.67020  0.68990  0.30930  1.0000 -0.5393580825
O   O32       1.0  0.32980  0.31010  0.30930  1.0000 -0.5393580825
O   O33       1.0  0.02202  0.91430  0.13990  1.0000 -0.1938656674
O   O34       1.0  0.08570  0.02202  0.86010  1.0000 -0.1938656674
O   O35       1.0  0.97798  0.08570  0.13990  1.0000 -0.1938656674
O   O36       1.0  0.91430  0.97798  0.86010  1.0000 -0.1938656674
O   O37       1.0  0.47798  0.41430  0.86010  1.0000 -0.1938656674
O   O38       1.0  0.52202  0.58570  0.86010  1.0000 -0.1938656674
O   O39       1.0  0.58570  0.47798  0.13990  1.0000 -0.1938656674
O   O40       1.0  0.41430  0.52202  0.13990  1.0000 -0.1938656674
O   O41       1.0  0.19711  0.69711  0.61520  1.0000 -0.7882018269
O   O42       1.0  0.30289  0.19711  0.38480  1.0000 -0.7882018269
O   O43       1.0  0.80289  0.30289  0.61520  1.0000 -0.7882018269
O   O44       1.0  0.69711  0.80289  0.38480  1.0000 -0.7882018269
