# DDEC6 charges by PACMAN v1.1 (https://github.com/mtap-research/PACMAN-charge/)
data_2012[Nd][nan]3[ASR]4
_chemical_formula_sum              "Nd2 H24 C42 O12"
_cell_length_a       14.5497
_cell_length_b       14.5497
_cell_length_c       14.2422
_cell_angle_alpha    66.4874
_cell_angle_beta     113.513
_cell_angle_gamma    145.36

_symmetry_space_group_name_H-M    "P 1"
_symmetry_Int_Tables_number       1

loop_
  _symmetry_equiv_pos_as_xyz
  'x, y, z'

loop_
  _atom_site_type_symbol
  _atom_site_label
  _atom_site_symmetry_multiplicity
  _atom_site_fract_x
  _atom_site_fract_y
  _atom_site_fract_z
  _atom_site_occupancy
  _atom_site_charge
Nd  Nd1       1.0  0.43167  0.88451  0.00502  1.0000 2.1482560903
Nd  Nd2       1.0  0.88451  0.43167  0.99498  1.0000 2.1482560903
H   H1        1.0  0.37670  0.88970  0.29280  1.0000 0.1095396889
H   H2        1.0  0.88970  0.37670  0.70720  1.0000 0.1095396889
H   H3        1.0  0.37810  0.90490  0.44910  1.0000 0.1095396889
H   H4        1.0  0.90490  0.37810  0.55090  1.0000 0.1095396889
H   H5        1.0  0.69650  0.38310  0.36550  1.0000 0.1095396889
H   H6        1.0  0.38310  0.69650  0.63450  1.0000 0.1095396889
H   H7        1.0  0.70450  0.37170  0.21210  1.0000 0.1190948959
H   H8        1.0  0.37170  0.70450  0.78790  1.0000 0.1190948959
H   H9        1.0  0.49370  0.97230  0.60960  1.0000 0.1095396889
H   H10       1.0  0.97230  0.49370  0.39040  1.0000 0.1095396889
H   H11       1.0  0.52630  0.00470  0.77020  1.0000 0.1190948959
H   H12       1.0  0.00470  0.52630  0.22980  1.0000 0.1190948959
H   H13       1.0  0.62670  0.37710  0.64200  1.0000 0.1190948959
H   H14       1.0  0.37710  0.62670  0.35800  1.0000 0.1190948959
H   H15       1.0  0.59110  0.34410  0.47980  1.0000 0.1095396889
H   H16       1.0  0.34410  0.59110  0.52020  1.0000 0.1095396889
H   H17       1.0  0.87180  0.64740  0.71290  1.0000 0.129689303
H   H18       1.0  0.64740  0.87180  0.28710  1.0000 0.129689303
H   H19       1.0  0.79920  0.72340  0.55720  1.0000 0.1095396889
H   H20       1.0  0.72340  0.79920  0.44280  1.0000 0.1095396889
H   H21       1.0  0.24730  0.18990  0.57530  1.0000 0.1095396889
H   H22       1.0  0.18990  0.24730  0.42470  1.0000 0.1095396889
H   H23       1.0  0.31930  0.11390  0.73090  1.0000 0.1190948959
H   H24       1.0  0.11390  0.31930  0.26910  1.0000 0.1190948959
C   C1        1.0  0.55034  0.12246  0.13850  1.0000 0.6501588195
C   C2        1.0  0.12246  0.55034  0.86150  1.0000 0.6501588195
C   C3        1.0  0.54382  0.13018  0.23740  1.0000 -0.0371497112
C   C4        1.0  0.13018  0.54382  0.76260  1.0000 -0.0371497112
C   C5        1.0  0.44360  0.98960  0.30820  1.0000 -0.0916474839
C   C6        1.0  0.98960  0.44360  0.69180  1.0000 -0.0916474839
C   C7        1.0  0.44350  0.99890  0.40180  1.0000 -0.1537270725
C   C8        1.0  0.99890  0.44350  0.59820  1.0000 -0.1537270725
C   C9        1.0  0.54013  0.14687  0.42580  1.0000 0.0712794185
C   C10       1.0  0.14687  0.54013  0.57420  1.0000 0.0712794185
C   C11       1.0  0.63450  0.28430  0.35220  1.0000 -0.1597752839
C   C12       1.0  0.28430  0.63450  0.64780  1.0000 -0.1597752839
C   C13       1.0  0.63852  0.27768  0.25930  1.0000 -0.1052439988
C   C14       1.0  0.27768  0.63852  0.74070  1.0000 -0.1052439988
C   C15       1.0  0.54660  0.15980  0.52740  1.0000 0.0712794185
C   C16       1.0  0.15980  0.54660  0.47260  1.0000 0.0712794185
C   C17       1.0  0.52300  0.05560  0.61590  1.0000 -0.1430891782
C   C18       1.0  0.05560  0.52300  0.38410  1.0000 -0.1430891782
C   C19       1.0  0.54270  0.07510  0.71240  1.0000 -0.1006205782
C   C20       1.0  0.07510  0.54270  0.28760  1.0000 -0.1006205782
C   C21       1.0  0.58658  0.19842  0.72360  1.0000 -0.0204647446
C   C22       1.0  0.19842  0.58658  0.27640  1.0000 -0.0204647446
C   C23       1.0  0.60209  0.29711  0.63550  1.0000 -0.1006205782
C   C24       1.0  0.29711  0.60209  0.36450  1.0000 -0.1006205782
C   C25       1.0  0.58160  0.27800  0.53790  1.0000 -0.1597752839
C   C26       1.0  0.27800  0.58160  0.46210  1.0000 -0.1597752839
C   C27       1.0  0.63478  0.23902  0.82820  1.0000 0.5991876096
C   C28       1.0  0.23902  0.63478  0.17180  1.0000 0.5991876096
C   C29       1.0  0.14695  0.82165  0.83880  1.0000 0.6501588195
C   C30       1.0  0.82165  0.14695  0.16120  1.0000 0.6501588195
C   C31       1.0  0.10260  0.87360  0.73850  1.0000 -0.0371497112
C   C32       1.0  0.87360  0.10260  0.26150  1.0000 -0.0371497112
C   C33       1.0  0.94750  0.75710  0.68600  1.0000 -0.0916474839
C   C34       1.0  0.75710  0.94750  0.31400  1.0000 -0.0916474839
C   C35       1.0  0.90390  0.80350  0.59230  1.0000 -0.1537270725
C   C36       1.0  0.80350  0.90390  0.40770  1.0000 -0.1597752839
C   C37       1.0  0.01290  0.96630  0.55050  1.0000 0.0712794185
C   C38       1.0  0.96630  0.01290  0.44950  1.0000 0.0712794185
C   C39       1.0  0.16970  0.08030  0.60300  1.0000 -0.1537270725
C   C40       1.0  0.08030  0.16970  0.39700  1.0000 -0.1537270725
C   C41       1.0  0.21370  0.03450  0.69660  1.0000 -0.0916474839
C   C42       1.0  0.03450  0.21370  0.30340  1.0000 -0.0916474839
O   O1        1.0  0.43565  0.98615  0.10810  1.0000 -0.62985048
O   O2        1.0  0.98615  0.43565  0.89190  1.0000 -0.62985048
O   O3        1.0  0.67235  0.25445  0.09320  1.0000 -0.7069607109
O   O4        1.0  0.25445  0.67235  0.90680  1.0000 -0.7069607109
O   O5        1.0  0.63724  0.15816  0.90910  1.0000 -0.7588544816
O   O6        1.0  0.15816  0.63724  0.09090  1.0000 -0.7588544816
O   O7        1.0  0.68615  0.35905  0.83530  1.0000 -0.5970918268
O   O8        1.0  0.35905  0.68615  0.16470  1.0000 -0.5970918268
O   O9        1.0  0.29518  0.92582  0.87790  1.0000 -0.6497606963
O   O10       1.0  0.92582  0.29518  0.12210  1.0000 -0.6497606963
O   O11       1.0  0.03313  0.67527  0.87760  1.0000 -0.6888912648
O   O12       1.0  0.67527  0.03313  0.12240  1.0000 -0.6888912648
