# DDEC6 charges by PACMAN v1.1 (https://github.com/mtap-research/PACMAN-charge/)
data_2012[Cu][lvt]3[ASR]1
_chemical_formula_sum              "Cu8 H72 C112 N8 O32"
_cell_length_a       22.835
_cell_length_b       18.734
_cell_length_c       17.5916
_cell_angle_alpha    77.8266
_cell_angle_beta     53.3175
_cell_angle_gamma    48.8559

_symmetry_space_group_name_H-M    "P 1"
_symmetry_Int_Tables_number       1

loop_
  _symmetry_equiv_pos_as_xyz
  'x, y, z'

loop_
  _atom_site_type_symbol
  _atom_site_label
  _atom_site_symmetry_multiplicity
  _atom_site_fract_x
  _atom_site_fract_y
  _atom_site_fract_z
  _atom_site_occupancy
  _atom_site_charge
Cu  Cu1       1.0  0.57200  0.62580  0.61488  1.0000 0.8483251022
Cu  Cu2       1.0  0.62580  0.57200  0.18732  1.0000 0.8483251022
Cu  Cu3       1.0  0.61488  0.18732  0.57200  1.0000 0.8483251022
Cu  Cu4       1.0  0.18732  0.61488  0.62580  1.0000 0.8483251022
Cu  Cu5       1.0  0.67800  0.62420  0.63512  1.0000 0.8483251022
Cu  Cu6       1.0  0.62420  0.67800  0.06268  1.0000 0.8483251022
Cu  Cu7       1.0  0.63512  0.06268  0.67800  1.0000 0.8483251022
Cu  Cu8       1.0  0.06268  0.63512  0.62420  1.0000 0.8483251022
H   H1        1.0  0.32850  0.71610  0.92490  1.0000 0.1239701182
H   H2        1.0  0.71610  0.32850  0.03050  1.0000 0.1239701182
H   H3        1.0  0.92490  0.03050  0.32850  1.0000 0.1239701182
H   H4        1.0  0.03050  0.92490  0.71610  1.0000 0.1239701182
H   H5        1.0  0.92150  0.53390  0.32510  1.0000 0.1239701182
H   H6        1.0  0.53390  0.92150  0.21950  1.0000 0.1239701182
H   H7        1.0  0.32510  0.21950  0.92150  1.0000 0.1239701182
H   H8        1.0  0.21950  0.32510  0.53390  1.0000 0.1239701182
H   H9        1.0  0.21400  0.76580  0.09400  1.0000 0.1270325909
H   H10       1.0  0.76580  0.21400  0.92620  1.0000 0.1270325909
H   H11       1.0  0.09400  0.92620  0.21400  1.0000 0.1270325909
H   H12       1.0  0.92620  0.09400  0.76580  1.0000 0.1270325909
H   H13       1.0  0.03600  0.48420  0.15600  1.0000 0.1270325909
H   H14       1.0  0.48420  0.03600  0.32380  1.0000 0.1270325909
H   H15       1.0  0.15600  0.32380  0.03600  1.0000 0.1270325909
H   H16       1.0  0.32380  0.15600  0.48420  1.0000 0.1270325909
H   H17       1.0  0.39390  0.72810  0.12210  1.0000 0.1270325909
H   H18       1.0  0.72810  0.39390  0.75590  1.0000 0.1270325909
H   H19       1.0  0.12210  0.75590  0.39390  1.0000 0.1270325909
H   H20       1.0  0.75590  0.12210  0.72810  1.0000 0.1270325909
H   H21       1.0  0.85610  0.52190  0.12790  1.0000 0.1270325909
H   H22       1.0  0.52190  0.85610  0.49410  1.0000 0.1270325909
H   H23       1.0  0.12790  0.49410  0.85610  1.0000 0.1270325909
H   H24       1.0  0.49410  0.12790  0.52190  1.0000 0.1270325909
H   H25       1.0  0.50690  0.68210  0.95310  1.0000 0.1270325909
H   H26       1.0  0.68210  0.50690  0.85790  1.0000 0.1239701182
H   H27       1.0  0.95310  0.85790  0.50690  1.0000 0.1270325909
H   H28       1.0  0.85790  0.95310  0.68210  1.0000 0.1270325909
H   H29       1.0  0.74310  0.56790  0.29690  1.0000 0.1270325909
H   H30       1.0  0.56790  0.74310  0.39210  1.0000 0.1270325909
H   H31       1.0  0.29690  0.39210  0.74310  1.0000 0.1270325909
H   H32       1.0  0.39210  0.29690  0.56790  1.0000 0.1270325909
H   H33       1.0  0.51840  0.94520  0.68560  1.0000 0.1239701182
H   H34       1.0  0.94520  0.51840  0.85080  1.0000 0.1239701182
H   H35       1.0  0.68560  0.85080  0.51840  1.0000 0.1239701182
H   H36       1.0  0.85080  0.68560  0.94520  1.0000 0.1239701182
H   H37       1.0  0.73160  0.30480  0.56440  1.0000 0.1239701182
H   H38       1.0  0.30480  0.73160  0.39920  1.0000 0.1239701182
H   H39       1.0  0.56440  0.39920  0.73160  1.0000 0.1239701182
H   H40       1.0  0.39920  0.56440  0.30480  1.0000 0.1239701182
H   H41       1.0  0.40290  0.11570  0.72910  1.0000 0.1270325909
H   H42       1.0  0.11570  0.40290  0.75230  1.0000 0.1270325909
H   H43       1.0  0.72910  0.75230  0.40290  1.0000 0.1270325909
H   H44       1.0  0.75230  0.72910  0.11570  1.0000 0.1270325909
H   H45       1.0  0.84710  0.13430  0.52090  1.0000 0.1270325909
H   H46       1.0  0.13430  0.84710  0.49770  1.0000 0.1270325909
H   H47       1.0  0.52090  0.49770  0.84710  1.0000 0.1270325909
H   H48       1.0  0.49770  0.52090  0.13430  1.0000 0.1270325909
H   H49       1.0  0.22070  0.10750  0.75510  1.0000 0.1270325909
H   H50       1.0  0.10750  0.22070  0.91670  1.0000 0.1270325909
H   H51       1.0  0.75510  0.91670  0.22070  1.0000 0.1270325909
H   H52       1.0  0.91670  0.75510  0.10750  1.0000 0.1270325909
H   H53       1.0  0.02930  0.14250  0.49490  1.0000 0.1270325909
H   H54       1.0  0.14250  0.02930  0.33333  1.0000 0.1270325909
H   H55       1.0  0.49490  0.33333  0.02930  1.0000 0.1270325909
H   H56       1.0  0.33333  0.49490  0.14250  1.0000 0.1270325909
H   H57       1.0  0.33800  0.93720  0.70660  1.0000 0.1270325909
H   H58       1.0  0.93720  0.33800  0.01820  1.0000 0.1270325909
H   H59       1.0  0.70660  0.01820  0.33800  1.0000 0.1270325909
H   H60       1.0  0.01820  0.70660  0.93720  1.0000 0.1270325909
H   H61       1.0  0.91200  0.31280  0.54340  1.0000 0.1270325909
H   H62       1.0  0.31280  0.91200  0.23180  1.0000 0.1270325909
H   H63       1.0  0.54340  0.23180  0.91200  1.0000 0.1239701182
H   H64       1.0  0.23180  0.54340  0.31280  1.0000 0.1270325909
H   H65       1.0  0.25690  0.74310  0.25690  1.0000 0.2784501562
H   H66       1.0  0.74310  0.25690  0.74310  1.0000 0.2784501562
H   H67       1.0  0.99310  0.50690  0.99310  1.0000 0.2784501562
H   H68       1.0  0.50690  0.99310  0.50690  1.0000 0.2784501562
H   H69       1.0  0.25930  0.25930  0.74070  1.0000 0.2784501562
H   H70       1.0  0.74070  0.74070  0.25930  1.0000 0.2784501562
H   H71       1.0  0.99070  0.99070  0.50930  1.0000 0.2784501562
H   H72       1.0  0.50930  0.50930  0.99070  1.0000 0.2784501562
C   C1        1.0  0.43000  0.69496  0.91984  1.0000 -0.0555384731
C   C2        1.0  0.69496  0.43000  0.95520  1.0000 -0.0555384731
C   C3        1.0  0.91984  0.95520  0.43000  1.0000 -0.0555384731
C   C4        1.0  0.95520  0.91984  0.69496  1.0000 -0.0555384731
C   C5        1.0  0.82000  0.55504  0.33016  1.0000 -0.0555384731
C   C6        1.0  0.55504  0.82000  0.29480  1.0000 -0.0555384731
C   C7        1.0  0.33016  0.29480  0.82000  1.0000 -0.0508848868
C   C8        1.0  0.29480  0.33016  0.55504  1.0000 -0.0555384731
C   C9        1.0  0.34140  0.71936  0.96464  1.0000 -0.0896906187
C   C10       1.0  0.71936  0.34140  0.97460  1.0000 -0.0896906187
C   C11       1.0  0.96464  0.97460  0.34140  1.0000 -0.0896906187
C   C12       1.0  0.97460  0.96464  0.71936  1.0000 -0.0896906187
C   C13       1.0  0.90860  0.53064  0.28536  1.0000 -0.0896906187
C   C14       1.0  0.53064  0.90860  0.27540  1.0000 -0.0896906187
C   C15       1.0  0.28536  0.27540  0.90860  1.0000 -0.0896906187
C   C16       1.0  0.27540  0.28536  0.53064  1.0000 -0.0896906187
C   C17       1.0  0.27349  0.74777  0.06563  1.0000 -0.2011890927
C   C18       1.0  0.74777  0.27349  0.91311  1.0000 -0.2011890927
C   C19       1.0  0.06563  0.91311  0.27349  1.0000 -0.2011890927
C   C20       1.0  0.91311  0.06563  0.74777  1.0000 -0.2011890927
C   C21       1.0  0.97651  0.50223  0.18437  1.0000 -0.2011890927
C   C22       1.0  0.50223  0.97651  0.33689  1.0000 -0.2011890927
C   C23       1.0  0.18437  0.33689  0.97651  1.0000 -0.2011890927
C   C24       1.0  0.33689  0.18437  0.50223  1.0000 -0.2011890927
C   C25       1.0  0.29253  0.75019  0.12661  1.0000 0.2276777388
C   C26       1.0  0.75019  0.29253  0.83067  1.0000 0.2276777388
C   C27       1.0  0.12661  0.83067  0.29253  1.0000 0.2276777388
C   C28       1.0  0.83067  0.12661  0.75019  1.0000 0.2276777388
C   C29       1.0  0.95747  0.49981  0.12339  1.0000 0.2276777388
C   C30       1.0  0.49981  0.95747  0.41933  1.0000 0.2276777388
C   C31       1.0  0.12339  0.41933  0.95747  1.0000 0.2276777388
C   C32       1.0  0.41933  0.12339  0.49981  1.0000 0.2276777388
C   C33       1.0  0.38066  0.72580  0.08240  1.0000 -0.2105375383
C   C34       1.0  0.72580  0.38066  0.81114  1.0000 -0.2105375383
C   C35       1.0  0.08240  0.81114  0.38066  1.0000 -0.2105375383
C   C36       1.0  0.81114  0.08240  0.72580  1.0000 -0.2105375383
C   C37       1.0  0.86934  0.52420  0.16760  1.0000 -0.2105375383
C   C38       1.0  0.52420  0.86934  0.43886  1.0000 -0.2105375383
C   C39       1.0  0.16760  0.43886  0.86934  1.0000 -0.2105375383
C   C40       1.0  0.43886  0.16760  0.52420  1.0000 -0.2105375383
C   C41       1.0  0.44832  0.69846  0.98114  1.0000 -0.0896906187
C   C42       1.0  0.69846  0.44832  0.87208  1.0000 -0.0896906187
C   C43       1.0  0.98114  0.87208  0.44832  1.0000 -0.0896906187
C   C44       1.0  0.87208  0.98114  0.69846  1.0000 -0.0896906187
C   C45       1.0  0.80168  0.55154  0.26886  1.0000 -0.0896906187
C   C46       1.0  0.55154  0.80168  0.37792  1.0000 -0.0896906187
C   C47       1.0  0.26886  0.37792  0.80168  1.0000 -0.0896906187
C   C48       1.0  0.37792  0.26886  0.55154  1.0000 -0.0896906187
C   C49       1.0  0.50351  0.66409  0.81011  1.0000 0.5630444946
C   C50       1.0  0.66409  0.50351  0.02229  1.0000 0.5630444946
C   C51       1.0  0.81011  0.02229  0.50351  1.0000 0.5630444946
C   C52       1.0  0.02229  0.81011  0.66409  1.0000 0.5630444946
C   C53       1.0  0.74649  0.58591  0.43989  1.0000 0.5630444946
C   C54       1.0  0.58591  0.74649  0.22771  1.0000 0.5630444946
C   C55       1.0  0.43989  0.22771  0.74649  1.0000 0.5630444946
C   C56       1.0  0.22771  0.43989  0.58591  1.0000 0.5630444946
C   C57       1.0  0.51562  0.81158  0.66042  1.0000 0.5659620823
C   C58       1.0  0.81158  0.51562  0.01238  1.0000 0.5659620823
C   C59       1.0  0.66042  0.01238  0.51562  1.0000 0.5659620823
C   C60       1.0  0.01238  0.66042  0.81158  1.0000 0.5659620823
C   C61       1.0  0.73438  0.43842  0.58958  1.0000 0.5659620823
C   C62       1.0  0.43842  0.73438  0.23762  1.0000 0.5659620823
C   C63       1.0  0.58958  0.23762  0.73438  1.0000 0.5659620823
C   C64       1.0  0.23762  0.58958  0.43842  1.0000 0.5659620823
C   C65       1.0  0.44042  0.92296  0.69124  1.0000 -0.0508848868
C   C66       1.0  0.92296  0.44042  0.94538  1.0000 -0.0508848868
C   C67       1.0  0.69124  0.94538  0.44042  1.0000 -0.0508848868
C   C68       1.0  0.94538  0.69124  0.92296  1.0000 -0.0508848868
C   C69       1.0  0.80958  0.32704  0.55876  1.0000 -0.0508848868
C   C70       1.0  0.32704  0.80958  0.30462  1.0000 -0.0508848868
C   C71       1.0  0.55876  0.30462  0.80958  1.0000 -0.0508848868
C   C72       1.0  0.30462  0.55876  0.32704  1.0000 -0.0508848868
C   C73       1.0  0.45892  0.97776  0.69864  1.0000 -0.0896906187
C   C74       1.0  0.97776  0.45892  0.86468  1.0000 -0.0896906187
C   C75       1.0  0.69864  0.86468  0.45892  1.0000 -0.0896906187
C   C76       1.0  0.86468  0.69864  0.97776  1.0000 -0.0896906187
C   C77       1.0  0.79108  0.27224  0.55136  1.0000 -0.0896906187
C   C78       1.0  0.27224  0.79108  0.38532  1.0000 -0.0896906187
C   C79       1.0  0.55136  0.38532  0.79108  1.0000 -0.0896906187
C   C80       1.0  0.38532  0.55136  0.27224  1.0000 -0.0896906187
C   C81       1.0  0.38946  0.08004  0.72496  1.0000 -0.2105375383
C   C82       1.0  0.08004  0.38946  0.80554  1.0000 -0.2105375383
C   C83       1.0  0.72496  0.80554  0.38946  1.0000 -0.2105375383
C   C84       1.0  0.80554  0.72496  0.08004  1.0000 -0.2105375383
C   C85       1.0  0.86054  0.16996  0.52504  1.0000 -0.2105375383
C   C86       1.0  0.16996  0.86054  0.44446  1.0000 -0.2105375383
C   C87       1.0  0.52504  0.44446  0.86054  1.0000 -0.2105375383
C   C88       1.0  0.44446  0.52504  0.16996  1.0000 -0.2105375383
C   C89       1.0  0.29933  0.13121  0.74559  1.0000 0.2276777388
C   C90       1.0  0.13121  0.29933  0.82387  1.0000 0.2276777388
C   C91       1.0  0.74559  0.82387  0.29933  1.0000 0.2276777388
C   C92       1.0  0.82387  0.74559  0.13121  1.0000 0.2276777388
C   C93       1.0  0.95067  0.11879  0.50441  1.0000 0.2276777388
C   C94       1.0  0.11879  0.95067  0.42613  1.0000 0.2276777388
C   C95       1.0  0.50441  0.42613  0.95067  1.0000 0.2276777388
C   C96       1.0  0.42613  0.50441  0.11879  1.0000 0.2276777388
C   C97       1.0  0.28097  0.07521  0.73979  1.0000 -0.2011890927
C   C98       1.0  0.07521  0.28097  0.90403  1.0000 -0.2011890927
C   C99       1.0  0.73979  0.90403  0.28097  1.0000 -0.2011890927
C   C100      1.0  0.90403  0.73979  0.07521  1.0000 -0.2011890927
C   C101      1.0  0.96903  0.17479  0.51021  1.0000 -0.2011890927
C   C102      1.0  0.17479  0.96903  0.34597  1.0000 -0.2011890927
C   C103      1.0  0.51021  0.34597  0.96903  1.0000 -0.2011890927
C   C104      1.0  0.34597  0.51021  0.17479  1.0000 -0.2011890927
C   C105      1.0  0.35094  0.97310  0.71180  1.0000 -0.0896906187
C   C106      1.0  0.97310  0.35094  0.96416  1.0000 -0.0896906187
C   C107      1.0  0.71180  0.96416  0.35094  1.0000 -0.0896906187
C   C108      1.0  0.96416  0.71180  0.97310  1.0000 -0.0896906187
C   C109      1.0  0.89906  0.27690  0.53820  1.0000 -0.0896906187
C   C110      1.0  0.27690  0.89906  0.28584  1.0000 -0.0896906187
C   C111      1.0  0.53820  0.28584  0.89906  1.0000 -0.0896906187
C   C112      1.0  0.28584  0.53820  0.27690  1.0000 -0.0896906187
N   N1        1.0  0.22918  0.77082  0.22918  1.0000 -0.353215517
N   N2        1.0  0.77082  0.22918  0.77082  1.0000 -0.3592180822
N   N3        1.0  0.02082  0.47918  0.02082  1.0000 -0.353215517
N   N4        1.0  0.47918  0.02082  0.47918  1.0000 -0.3592180822
N   N5        1.0  0.23368  0.23368  0.76632  1.0000 -0.3592180822
N   N6        1.0  0.76632  0.76632  0.23368  1.0000 -0.3592180822
N   N7        1.0  0.01632  0.01632  0.48368  1.0000 -0.3592180822
N   N8        1.0  0.48368  0.48368  0.01632  1.0000 -0.3592180822
O   O1        1.0  0.49847  0.76841  0.64179  1.0000 -0.5286278925
O   O2        1.0  0.76841  0.49847  0.09133  1.0000 -0.5286278925
O   O3        1.0  0.64179  0.09133  0.49847  1.0000 -0.5286278925
O   O4        1.0  0.09133  0.64179  0.76841  1.0000 -0.5286278925
O   O5        1.0  0.75153  0.48159  0.60821  1.0000 -0.5286278925
O   O6        1.0  0.48159  0.75153  0.15867  1.0000 -0.5286278925
O   O7        1.0  0.60821  0.15867  0.75153  1.0000 -0.5286278925
O   O8        1.0  0.15867  0.60821  0.48159  1.0000 -0.5286278925
O   O9        1.0  0.48776  0.65152  0.75868  1.0000 -0.508738426
O   O10       1.0  0.65152  0.48776  0.10204  1.0000 -0.508738426
O   O11       1.0  0.75868  0.10204  0.48776  1.0000 -0.508738426
O   O12       1.0  0.10204  0.75868  0.65152  1.0000 -0.508738426
O   O13       1.0  0.76224  0.59848  0.49132  1.0000 -0.508738426
O   O14       1.0  0.59848  0.76224  0.14796  1.0000 -0.508738426
O   O15       1.0  0.49132  0.14796  0.76224  1.0000 -0.508738426
O   O16       1.0  0.14796  0.49132  0.59848  1.0000 -0.508738426
O   O17       1.0  0.57742  0.65160  0.77540  1.0000 -0.5286278925
O   O18       1.0  0.65160  0.57742  0.99558  1.0000 -0.5286278925
O   O19       1.0  0.77540  0.99558  0.57742  1.0000 -0.5286278925
O   O20       1.0  0.99558  0.77540  0.65160  1.0000 -0.5286278925
O   O21       1.0  0.67258  0.59840  0.47460  1.0000 -0.5286278925
O   O22       1.0  0.59840  0.67258  0.25442  1.0000 -0.5286278925
O   O23       1.0  0.47460  0.25442  0.67258  1.0000 -0.5286278925
O   O24       1.0  0.25442  0.47460  0.59840  1.0000 -0.5286278925
O   O25       1.0  0.58996  0.76838  0.65562  1.0000 -0.508738426
O   O26       1.0  0.76838  0.58996  0.98604  1.0000 -0.508738426
O   O27       1.0  0.65562  0.98604  0.58996  1.0000 -0.508738426
O   O28       1.0  0.98604  0.65562  0.76838  1.0000 -0.508738426
O   O29       1.0  0.66004  0.48162  0.59438  1.0000 -0.508738426
O   O30       1.0  0.48162  0.66004  0.26396  1.0000 -0.508738426
O   O31       1.0  0.59438  0.26396  0.66004  1.0000 -0.508738426
O   O32       1.0  0.26396  0.59438  0.48162  1.0000 -0.508738426
