# DDEC6 charges by PACMAN v1.1 (https://github.com/mtap-research/PACMAN-charge/)
data_2012[In][sqc]3[ASR]2
_chemical_formula_sum              "In8 H56 C96 O40"
_cell_length_a       21.893
_cell_length_b       21.893
_cell_length_c       7.1812
_cell_angle_alpha    90
_cell_angle_beta     90
_cell_angle_gamma    90

_symmetry_space_group_name_H-M    "P 1"
_symmetry_Int_Tables_number       1

loop_
  _symmetry_equiv_pos_as_xyz
  'x, y, z'

loop_
  _atom_site_type_symbol
  _atom_site_label
  _atom_site_symmetry_multiplicity
  _atom_site_fract_x
  _atom_site_fract_y
  _atom_site_fract_z
  _atom_site_occupancy
  _atom_site_charge
In  In1       1.0  0.75000  0.25000  0.00000  1.0000 1.5396143986
In  In2       1.0  0.25000  0.75000  0.00000  1.0000 1.5396143986
In  In3       1.0  0.25000  0.25000  0.00000  1.0000 1.5396143986
In  In4       1.0  0.75000  0.75000  0.00000  1.0000 1.5396143986
In  In5       1.0  0.75000  0.25000  0.50000  1.0000 1.5078984392
In  In6       1.0  0.25000  0.75000  0.50000  1.0000 1.5078984392
In  In7       1.0  0.25000  0.25000  0.50000  1.0000 1.5078984392
In  In8       1.0  0.75000  0.75000  0.50000  1.0000 1.5078984392
H   H1        1.0  0.73360  0.05330  0.51150  1.0000 0.1258600695
H   H2        1.0  0.83550  0.10480  0.95880  1.0000 0.1093571506
H   H3        1.0  0.86730  0.05270  0.69440  1.0000 0.1093571506
H   H4        1.0  0.81650  0.68350  0.25450  1.0000 0.4099526895
H   H5        1.0  0.26640  0.94670  0.51150  1.0000 0.1258600695
H   H6        1.0  0.16450  0.89520  0.95880  1.0000 0.1093571506
H   H7        1.0  0.13270  0.94730  0.69440  1.0000 0.1093571506
H   H8        1.0  0.44670  0.23360  0.51150  1.0000 0.1258600695
H   H9        1.0  0.39520  0.33550  0.95880  1.0000 0.1093571506
H   H10       1.0  0.44730  0.36730  0.69440  1.0000 0.1093571506
H   H11       1.0  0.81650  0.31650  0.25450  1.0000 0.4099526895
H   H12       1.0  0.55330  0.76640  0.51150  1.0000 0.1258600695
H   H13       1.0  0.60480  0.66450  0.95880  1.0000 0.1093571506
H   H14       1.0  0.55270  0.63270  0.69440  1.0000 0.1093571506
H   H15       1.0  0.18350  0.68350  0.25450  1.0000 0.4099526895
H   H16       1.0  0.76640  0.55330  0.48850  1.0000 0.1258600695
H   H17       1.0  0.66450  0.60480  0.04120  1.0000 0.1093571506
H   H18       1.0  0.63270  0.55270  0.30560  1.0000 0.1093571506
H   H19       1.0  0.23360  0.44670  0.48850  1.0000 0.1258600695
H   H20       1.0  0.33550  0.39520  0.04120  1.0000 0.1093571506
H   H21       1.0  0.36730  0.44730  0.30560  1.0000 0.1093571506
H   H22       1.0  0.05330  0.73360  0.48850  1.0000 0.1258600695
H   H23       1.0  0.10480  0.83550  0.04120  1.0000 0.1093571506
H   H24       1.0  0.05270  0.86730  0.30560  1.0000 0.1093571506
H   H25       1.0  0.68350  0.81650  0.74550  1.0000 0.4099526895
H   H26       1.0  0.94670  0.26640  0.48850  1.0000 0.1258600695
H   H27       1.0  0.89520  0.16450  0.04120  1.0000 0.1093571506
H   H28       1.0  0.94730  0.13270  0.30560  1.0000 0.1093571506
H   H29       1.0  0.31650  0.18350  0.74550  1.0000 0.4099526895
H   H30       1.0  0.76640  0.44670  0.48850  1.0000 0.1258600695
H   H31       1.0  0.66450  0.39520  0.04120  1.0000 0.1093571506
H   H32       1.0  0.63270  0.44730  0.30560  1.0000 0.1093571506
H   H33       1.0  0.23360  0.55330  0.48850  1.0000 0.1258600695
H   H34       1.0  0.33550  0.60480  0.04120  1.0000 0.1093571506
H   H35       1.0  0.36730  0.55270  0.30560  1.0000 0.1093571506
H   H36       1.0  0.05330  0.26640  0.48850  1.0000 0.1258600695
H   H37       1.0  0.10480  0.16450  0.04120  1.0000 0.1093571506
H   H38       1.0  0.05270  0.13270  0.30560  1.0000 0.1093571506
H   H39       1.0  0.68350  0.18350  0.74550  1.0000 0.4099526895
H   H40       1.0  0.94670  0.73360  0.48850  1.0000 0.1258600695
H   H41       1.0  0.89520  0.83550  0.04120  1.0000 0.1093571506
H   H42       1.0  0.94730  0.86730  0.30560  1.0000 0.1093571506
H   H43       1.0  0.31650  0.81650  0.74550  1.0000 0.4099526895
H   H44       1.0  0.73360  0.94670  0.51150  1.0000 0.1258600695
H   H45       1.0  0.83550  0.89520  0.95880  1.0000 0.1093571506
H   H46       1.0  0.86730  0.94730  0.69440  1.0000 0.1093571506
H   H47       1.0  0.26640  0.05330  0.51150  1.0000 0.1258600695
H   H48       1.0  0.16450  0.10480  0.95880  1.0000 0.1093571506
H   H49       1.0  0.13270  0.05270  0.69440  1.0000 0.1093571506
H   H50       1.0  0.44670  0.76640  0.51150  1.0000 0.1258600695
H   H51       1.0  0.39520  0.66450  0.95880  1.0000 0.1093571506
H   H52       1.0  0.44730  0.63270  0.69440  1.0000 0.1093571506
H   H53       1.0  0.55330  0.23360  0.51150  1.0000 0.1258600695
H   H54       1.0  0.60480  0.33550  0.95880  1.0000 0.1093571506
H   H55       1.0  0.55270  0.36730  0.69440  1.0000 0.1093571506
H   H56       1.0  0.18350  0.31650  0.25450  1.0000 0.4099526895
C   C1        1.0  0.76240  0.13170  0.26060  1.0000 0.5958968294
C   C2        1.0  0.77140  0.06430  0.25550  1.0000 -0.0743330228
C   C3        1.0  0.74870  0.03210  0.40910  1.0000 -0.1122847231
C   C4        1.0  0.79880  0.03350  0.10380  1.0000 0.0619607163
C   C5        1.0  0.82990  0.06270  0.95320  1.0000 -0.1391839045
C   C6        1.0  0.85250  0.03120  0.79670  1.0000 -0.0974837765
C   C7        1.0  0.23760  0.86830  0.26060  1.0000 0.5958968294
C   C8        1.0  0.22860  0.93570  0.25550  1.0000 -0.0743330228
C   C9        1.0  0.25130  0.96790  0.40910  1.0000 -0.1122847231
C   C10       1.0  0.20120  0.96650  0.10380  1.0000 0.0619607163
C   C11       1.0  0.17010  0.93730  0.95320  1.0000 -0.1391839045
C   C12       1.0  0.14750  0.96880  0.79670  1.0000 -0.0974837765
C   C13       1.0  0.36830  0.26240  0.26060  1.0000 0.5958968294
C   C14       1.0  0.43570  0.27140  0.25550  1.0000 -0.0743330228
C   C15       1.0  0.46790  0.24870  0.40910  1.0000 -0.1122847231
C   C16       1.0  0.46650  0.29880  0.10380  1.0000 0.0619607163
C   C17       1.0  0.43730  0.32990  0.95320  1.0000 -0.1391839045
C   C18       1.0  0.46880  0.35250  0.79670  1.0000 -0.0974837765
C   C19       1.0  0.63170  0.73760  0.26060  1.0000 0.5958968294
C   C20       1.0  0.56430  0.72860  0.25550  1.0000 -0.0743330228
C   C21       1.0  0.53210  0.75130  0.40910  1.0000 -0.1122847231
C   C22       1.0  0.53350  0.70120  0.10380  1.0000 0.0619607163
C   C23       1.0  0.56270  0.67010  0.95320  1.0000 -0.1391839045
C   C24       1.0  0.53120  0.64750  0.79670  1.0000 -0.0974837765
C   C25       1.0  0.73760  0.63170  0.73940  1.0000 0.5958968294
C   C26       1.0  0.72860  0.56430  0.74450  1.0000 -0.0743330228
C   C27       1.0  0.75130  0.53210  0.59090  1.0000 -0.1122847231
C   C28       1.0  0.70120  0.53350  0.89620  1.0000 0.0619607163
C   C29       1.0  0.67010  0.56270  0.04680  1.0000 -0.1391839045
C   C30       1.0  0.64750  0.53120  0.20330  1.0000 -0.0974837765
C   C31       1.0  0.26240  0.36830  0.73940  1.0000 0.5958968294
C   C32       1.0  0.27140  0.43570  0.74450  1.0000 -0.0743330228
C   C33       1.0  0.24870  0.46790  0.59090  1.0000 -0.1122847231
C   C34       1.0  0.29880  0.46650  0.89620  1.0000 0.0619607163
C   C35       1.0  0.32990  0.43730  0.04680  1.0000 -0.1391839045
C   C36       1.0  0.35250  0.46880  0.20330  1.0000 -0.0974837765
C   C37       1.0  0.13170  0.76240  0.73940  1.0000 0.5958968294
C   C38       1.0  0.06430  0.77140  0.74450  1.0000 -0.0743330228
C   C39       1.0  0.03210  0.74870  0.59090  1.0000 -0.1122847231
C   C40       1.0  0.03350  0.79880  0.89620  1.0000 0.0619607163
C   C41       1.0  0.06270  0.82990  0.04680  1.0000 -0.1391839045
C   C42       1.0  0.03120  0.85250  0.20330  1.0000 -0.0974837765
C   C43       1.0  0.86830  0.23760  0.73940  1.0000 0.5958968294
C   C44       1.0  0.93570  0.22860  0.74450  1.0000 -0.0743330228
C   C45       1.0  0.96790  0.25130  0.59090  1.0000 -0.1122847231
C   C46       1.0  0.96650  0.20120  0.89620  1.0000 0.0619607163
C   C47       1.0  0.93730  0.17010  0.04680  1.0000 -0.1391839045
C   C48       1.0  0.96880  0.14750  0.20330  1.0000 -0.0974837765
C   C49       1.0  0.73760  0.36830  0.73940  1.0000 0.5958968294
C   C50       1.0  0.72860  0.43570  0.74450  1.0000 -0.0743330228
C   C51       1.0  0.75130  0.46790  0.59090  1.0000 -0.1122847231
C   C52       1.0  0.70120  0.46650  0.89620  1.0000 0.0619607163
C   C53       1.0  0.67010  0.43730  0.04680  1.0000 -0.1391839045
C   C54       1.0  0.64750  0.46880  0.20330  1.0000 -0.0974837765
C   C55       1.0  0.26240  0.63170  0.73940  1.0000 0.5958968294
C   C56       1.0  0.27140  0.56430  0.74450  1.0000 -0.0743330228
C   C57       1.0  0.24870  0.53210  0.59090  1.0000 -0.1122847231
C   C58       1.0  0.29880  0.53350  0.89620  1.0000 0.0619607163
C   C59       1.0  0.32990  0.56270  0.04680  1.0000 -0.1391839045
C   C60       1.0  0.35250  0.53120  0.20330  1.0000 -0.0974837765
C   C61       1.0  0.13170  0.23760  0.73940  1.0000 0.5958968294
C   C62       1.0  0.06430  0.22860  0.74450  1.0000 -0.0743330228
C   C63       1.0  0.03210  0.25130  0.59090  1.0000 -0.1122847231
C   C64       1.0  0.03350  0.20120  0.89620  1.0000 0.0619607163
C   C65       1.0  0.06270  0.17010  0.04680  1.0000 -0.1391839045
C   C66       1.0  0.03120  0.14750  0.20330  1.0000 -0.0974837765
C   C67       1.0  0.86830  0.76240  0.73940  1.0000 0.5958968294
C   C68       1.0  0.93570  0.77140  0.74450  1.0000 -0.0743330228
C   C69       1.0  0.96790  0.74870  0.59090  1.0000 -0.1122847231
C   C70       1.0  0.96650  0.79880  0.89620  1.0000 0.0619607163
C   C71       1.0  0.93730  0.82990  0.04680  1.0000 -0.1391839045
C   C72       1.0  0.96880  0.85250  0.20330  1.0000 -0.0974837765
C   C73       1.0  0.76240  0.86830  0.26060  1.0000 0.5958968294
C   C74       1.0  0.77140  0.93570  0.25550  1.0000 -0.0743330228
C   C75       1.0  0.74870  0.96790  0.40910  1.0000 -0.1122847231
C   C76       1.0  0.79880  0.96650  0.10380  1.0000 0.0619607163
C   C77       1.0  0.82990  0.93730  0.95320  1.0000 -0.1391839045
C   C78       1.0  0.85250  0.96880  0.79670  1.0000 -0.0974837765
C   C79       1.0  0.23760  0.13170  0.26060  1.0000 0.5958968294
C   C80       1.0  0.22860  0.06430  0.25550  1.0000 -0.0743330228
C   C81       1.0  0.25130  0.03210  0.40910  1.0000 -0.1122847231
C   C82       1.0  0.20120  0.03350  0.10380  1.0000 0.0619607163
C   C83       1.0  0.17010  0.06270  0.95320  1.0000 -0.1391839045
C   C84       1.0  0.14750  0.03120  0.79670  1.0000 -0.0974837765
C   C85       1.0  0.36830  0.73760  0.26060  1.0000 0.5958968294
C   C86       1.0  0.43570  0.72860  0.25550  1.0000 -0.0743330228
C   C87       1.0  0.46790  0.75130  0.40910  1.0000 -0.1122847231
C   C88       1.0  0.46650  0.70120  0.10380  1.0000 0.0619607163
C   C89       1.0  0.43730  0.67010  0.95320  1.0000 -0.1391839045
C   C90       1.0  0.46880  0.64750  0.79670  1.0000 -0.0974837765
C   C91       1.0  0.63170  0.26240  0.26060  1.0000 0.5958968294
C   C92       1.0  0.56430  0.27140  0.25550  1.0000 -0.0743330228
C   C93       1.0  0.53210  0.24870  0.40910  1.0000 -0.1122847231
C   C94       1.0  0.53350  0.29880  0.10380  1.0000 0.0619607163
C   C95       1.0  0.56270  0.32990  0.95320  1.0000 -0.1391839045
C   C96       1.0  0.53120  0.35250  0.79670  1.0000 -0.0974837765
O   O1        1.0  0.75770  0.15740  0.40540  1.0000 -0.5206177639
O   O2        1.0  0.75950  0.15740  0.10340  1.0000 -0.5730182635
O   O3        1.0  0.24230  0.84260  0.40540  1.0000 -0.5206177639
O   O4        1.0  0.24050  0.84260  0.10340  1.0000 -0.5730182635
O   O5        1.0  0.34260  0.25770  0.40540  1.0000 -0.5206177639
O   O6        1.0  0.34260  0.25950  0.10340  1.0000 -0.5730182635
O   O7        1.0  0.65740  0.74230  0.40540  1.0000 -0.5206177639
O   O8        1.0  0.65740  0.74050  0.10340  1.0000 -0.5730182635
O   O9        1.0  0.74230  0.65740  0.59460  1.0000 -0.5206177639
O   O10       1.0  0.74050  0.65740  0.89660  1.0000 -0.5730182635
O   O11       1.0  0.25770  0.34260  0.59460  1.0000 -0.5206177639
O   O12       1.0  0.25950  0.34260  0.89660  1.0000 -0.5730182635
O   O13       1.0  0.15740  0.75770  0.59460  1.0000 -0.5206177639
O   O14       1.0  0.15740  0.75950  0.89660  1.0000 -0.5730182635
O   O15       1.0  0.84260  0.24230  0.59460  1.0000 -0.5206177639
O   O16       1.0  0.84260  0.24050  0.89660  1.0000 -0.5730182635
O   O17       1.0  0.74230  0.34260  0.59460  1.0000 -0.5206177639
O   O18       1.0  0.74050  0.34260  0.89660  1.0000 -0.5730182635
O   O19       1.0  0.25770  0.65740  0.59460  1.0000 -0.5206177639
O   O20       1.0  0.25950  0.65740  0.89660  1.0000 -0.5730182635
O   O21       1.0  0.15740  0.24230  0.59460  1.0000 -0.5206177639
O   O22       1.0  0.15740  0.24050  0.89660  1.0000 -0.5730182635
O   O23       1.0  0.84260  0.75770  0.59460  1.0000 -0.5206177639
O   O24       1.0  0.84260  0.75950  0.89660  1.0000 -0.5730182635
O   O25       1.0  0.75770  0.84260  0.40540  1.0000 -0.5206177639
O   O26       1.0  0.75950  0.84260  0.10340  1.0000 -0.5730182635
O   O27       1.0  0.24230  0.15740  0.40540  1.0000 -0.5206177639
O   O28       1.0  0.24050  0.15740  0.10340  1.0000 -0.5730182635
O   O29       1.0  0.34260  0.74230  0.40540  1.0000 -0.5206177639
O   O30       1.0  0.34260  0.74050  0.10340  1.0000 -0.5730182635
O   O31       1.0  0.65740  0.25770  0.40540  1.0000 -0.5206177639
O   O32       1.0  0.65740  0.25950  0.10340  1.0000 -0.5730182635
O   O33       1.0  0.78420  0.28420  0.25450  1.0000 -0.9050063001
O   O34       1.0  0.21580  0.71580  0.25450  1.0000 -0.9050063001
O   O35       1.0  0.21580  0.28420  0.25450  1.0000 -0.9042695867
O   O36       1.0  0.78420  0.71580  0.25450  1.0000 -0.9050063001
O   O37       1.0  0.71580  0.78420  0.74550  1.0000 -0.9050063001
O   O38       1.0  0.28420  0.21580  0.74550  1.0000 -0.9042695867
O   O39       1.0  0.28420  0.78420  0.74550  1.0000 -0.9042695867
O   O40       1.0  0.71580  0.21580  0.74550  1.0000 -0.9050063001
