# DDEC6 charges by PACMAN v1.1 (https://github.com/mtap-research/PACMAN-charge/)
data_2012[Cd][rob]3[ASR]1
_chemical_formula_sum              "Cd4 H20 C40 N12 O16"
_cell_length_a       12.4199
_cell_length_b       12.4199
_cell_length_c       13.5326
_cell_angle_alpha    80.9011
_cell_angle_beta     99.0989
_cell_angle_gamma    128.594

_symmetry_space_group_name_H-M    "P 1"
_symmetry_Int_Tables_number       1

loop_
  _symmetry_equiv_pos_as_xyz
  'x, y, z'

loop_
  _atom_site_type_symbol
  _atom_site_label
  _atom_site_symmetry_multiplicity
  _atom_site_fract_x
  _atom_site_fract_y
  _atom_site_fract_z
  _atom_site_occupancy
  _atom_site_charge
Cd  Cd1       1.0  0.47093  0.06483  0.85865  1.0000 0.849219954
Cd  Cd2       1.0  0.06483  0.47093  0.64135  1.0000 0.849219954
Cd  Cd3       1.0  0.52907  0.93517  0.14135  1.0000 0.849219954
Cd  Cd4       1.0  0.93517  0.52907  0.35865  1.0000 0.849219954
H   H1        1.0  0.30860  0.19520  0.83730  1.0000 0.1293873753
H   H2        1.0  0.19520  0.30860  0.66270  1.0000 0.1293873753
H   H3        1.0  0.69140  0.80480  0.16270  1.0000 0.1293873753
H   H4        1.0  0.80480  0.69140  0.33730  1.0000 0.1293873753
H   H5        1.0  0.32070  0.36650  0.89370  1.0000 0.1551417172
H   H6        1.0  0.36650  0.32070  0.60630  1.0000 0.1551417172
H   H7        1.0  0.67930  0.63350  0.10630  1.0000 0.1551417172
H   H8        1.0  0.63350  0.67930  0.39370  1.0000 0.1551417172
H   H9        1.0  0.64990  0.31310  0.98700  1.0000 0.1194924734
H   H10       1.0  0.31310  0.64990  0.51300  1.0000 0.1194924734
H   H11       1.0  0.35010  0.68690  0.01300  1.0000 0.1194924734
H   H12       1.0  0.68690  0.35010  0.48700  1.0000 0.1194924734
H   H13       1.0  0.66520  0.48000  0.05280  1.0000 0.1526558012
H   H14       1.0  0.48000  0.66520  0.44720  1.0000 0.1526558012
H   H15       1.0  0.33480  0.52000  0.94720  1.0000 0.1526558012
H   H16       1.0  0.52000  0.33480  0.55280  1.0000 0.1526558012
H   H17       1.0  0.27670  0.70410  0.83210  1.0000 0.1120907649
H   H18       1.0  0.70410  0.27670  0.66790  1.0000 0.1120907649
H   H19       1.0  0.72330  0.29590  0.16790  1.0000 0.1120907649
H   H20       1.0  0.29590  0.72330  0.33210  1.0000 0.1120907649
C   C1        1.0  0.38260  0.25340  0.88190  1.0000 0.0982257336
C   C2        1.0  0.25340  0.38260  0.61810  1.0000 0.0982257336
C   C3        1.0  0.61740  0.74660  0.11810  1.0000 0.0982257336
C   C4        1.0  0.74660  0.61740  0.38190  1.0000 0.0982257336
C   C5        1.0  0.38950  0.35710  0.91550  1.0000 -0.1684035898
C   C6        1.0  0.35710  0.38950  0.58450  1.0000 -0.1684035898
C   C7        1.0  0.61050  0.64290  0.08450  1.0000 -0.1684035898
C   C8        1.0  0.64290  0.61050  0.41550  1.0000 -0.1684035898
C   C9        1.0  0.57950  0.32090  0.96940  1.0000 0.0787390083
C   C10       1.0  0.32090  0.57950  0.53060  1.0000 0.0787390083
C   C11       1.0  0.42050  0.67910  0.03060  1.0000 0.0787390083
C   C12       1.0  0.67910  0.42050  0.46940  1.0000 0.0787390083
C   C13       1.0  0.59100  0.42400  0.00750  1.0000 -0.1598851622
C   C14       1.0  0.42400  0.59100  0.49250  1.0000 -0.1598851622
C   C15       1.0  0.40900  0.57600  0.99250  1.0000 -0.1598851622
C   C16       1.0  0.57600  0.40900  0.50750  1.0000 -0.1598851622
C   C17       1.0  0.49480  0.44460  0.97960  1.0000 0.1293873753
C   C18       1.0  0.44460  0.49480  0.52040  1.0000 0.1293873753
C   C19       1.0  0.50520  0.55540  0.02040  1.0000 0.1293873753
C   C20       1.0  0.55540  0.50520  0.47960  1.0000 0.1293873753
C   C21       1.0  0.26920  0.75020  0.77360  1.0000 0.1944875032
C   C22       1.0  0.75020  0.26920  0.72640  1.0000 0.1944875032
C   C23       1.0  0.73080  0.24980  0.22640  1.0000 0.1944875032
C   C24       1.0  0.24980  0.73080  0.27360  1.0000 0.1944875032
C   C25       1.0  0.20930  0.78870  0.62470  1.0000 0.0288979228
C   C26       1.0  0.78870  0.20930  0.87530  1.0000 0.0288979228
C   C27       1.0  0.79070  0.21130  0.37530  1.0000 0.0288979228
C   C28       1.0  0.21130  0.79070  0.12470  1.0000 0.0288979228
C   C29       1.0  0.13880  0.75540  0.52300  1.0000 0.5642037451
C   C30       1.0  0.75540  0.13880  0.97700  1.0000 0.5642037451
C   C31       1.0  0.86120  0.24460  0.47700  1.0000 0.5642037451
C   C32       1.0  0.24460  0.86120  0.02300  1.0000 0.5642037451
C   C33       1.0  0.29310  0.91130  0.66990  1.0000 0.0071230401
C   C34       1.0  0.91130  0.29310  0.83010  1.0000 0.0071230401
C   C35       1.0  0.70690  0.08870  0.33010  1.0000 0.0071230401
C   C36       1.0  0.08870  0.70690  0.16990  1.0000 0.0071230401
C   C37       1.0  0.34150  0.05110  0.63530  1.0000 0.5412418007
C   C38       1.0  0.05110  0.34150  0.86470  1.0000 0.5412418007
C   C39       1.0  0.65850  0.94890  0.36470  1.0000 0.5412418007
C   C40       1.0  0.94890  0.65850  0.13530  1.0000 0.5412418007
N   N1        1.0  0.47430  0.23270  0.90950  1.0000 -0.1904490717
N   N2        1.0  0.23270  0.47430  0.59050  1.0000 -0.1904490717
N   N3        1.0  0.52570  0.76730  0.09050  1.0000 -0.1904490717
N   N4        1.0  0.76730  0.52570  0.40950  1.0000 -0.1904490717
N   N5        1.0  0.33210  0.88550  0.76520  1.0000 -0.307643646
N   N6        1.0  0.88550  0.33210  0.73480  1.0000 -0.307643646
N   N7        1.0  0.66790  0.11450  0.23480  1.0000 -0.307643646
N   N8        1.0  0.11450  0.66790  0.26520  1.0000 -0.307643646
N   N9        1.0  0.19450  0.68730  0.69090  1.0000 -0.3208045006
N   N10       1.0  0.68730  0.19450  0.80910  1.0000 -0.3208045006
N   N11       1.0  0.80550  0.31270  0.30910  1.0000 -0.3208045006
N   N12       1.0  0.31270  0.80550  0.19090  1.0000 -0.3208045006
O   O1        1.0  0.41670  0.14530  0.69180  1.0000 -0.563659975
O   O2        1.0  0.14530  0.41670  0.80820  1.0000 -0.563659975
O   O3        1.0  0.58330  0.85470  0.30820  1.0000 -0.563659975
O   O4        1.0  0.85470  0.58330  0.19180  1.0000 -0.563659975
O   O5        1.0  0.29880  0.06940  0.54660  1.0000 -0.4550440252
O   O6        1.0  0.06940  0.29880  0.95340  1.0000 -0.4538159013
O   O7        1.0  0.70120  0.93060  0.45340  1.0000 -0.4550440252
O   O8        1.0  0.93060  0.70120  0.04660  1.0000 -0.4550440252
O   O9        1.0  0.14510  0.84710  0.46550  1.0000 -0.4420705751
O   O10       1.0  0.84710  0.14510  0.03450  1.0000 -0.4420705751
O   O11       1.0  0.85490  0.15290  0.53450  1.0000 -0.4420705751
O   O12       1.0  0.15290  0.85490  0.96550  1.0000 -0.4420705751
O   O13       1.0  0.07150  0.63210  0.50330  1.0000 -0.5526407003
O   O14       1.0  0.63210  0.07150  0.99670  1.0000 -0.5526407003
O   O15       1.0  0.92850  0.36790  0.49670  1.0000 -0.5526407003
O   O16       1.0  0.36790  0.92850  0.00330  1.0000 -0.5526407003
