# DDEC6 charges by PACMAN v1.1 (https://github.com/mtap-research/PACMAN-charge/)
data_2012[Cu][bpq]3[ASR]1
_chemical_formula_sum              "Cu8 H80 C132 N4 O40"
_cell_length_a       18.3307
_cell_length_b       18.3307
_cell_length_c       20.831
_cell_angle_alpha    61.3246
_cell_angle_beta     118.675
_cell_angle_gamma    128.529

_symmetry_space_group_name_H-M    "P 1"
_symmetry_Int_Tables_number       1

loop_
  _symmetry_equiv_pos_as_xyz
  'x, y, z'

loop_
  _atom_site_type_symbol
  _atom_site_label
  _atom_site_symmetry_multiplicity
  _atom_site_fract_x
  _atom_site_fract_y
  _atom_site_fract_z
  _atom_site_occupancy
  _atom_site_charge
Cu  Cu1       1.0  0.05615  0.46185  0.54151  1.0000 0.7721246807
Cu  Cu2       1.0  0.46185  0.05615  0.95849  1.0000 0.7721246807
Cu  Cu3       1.0  0.94385  0.53815  0.45849  1.0000 0.7721246807
Cu  Cu4       1.0  0.53815  0.94385  0.04151  1.0000 0.7721246807
Cu  Cu5       1.0  0.51233  0.49343  0.44525  1.0000 0.8541443972
Cu  Cu6       1.0  0.49343  0.51233  0.05475  1.0000 0.8541443972
Cu  Cu7       1.0  0.48767  0.50657  0.55475  1.0000 0.8541443972
Cu  Cu8       1.0  0.50657  0.48767  0.94525  1.0000 0.8541443972
H   H1        1.0  0.62670  0.21190  0.24930  1.0000 0.1296267854
H   H2        1.0  0.21190  0.62670  0.25070  1.0000 0.1296267854
H   H3        1.0  0.37330  0.78810  0.75070  1.0000 0.1296267854
H   H4        1.0  0.78810  0.37330  0.74930  1.0000 0.1296267854
H   H5        1.0  0.42040  0.80960  0.36730  1.0000 0.1296267854
H   H6        1.0  0.80960  0.42040  0.13270  1.0000 0.1296267854
H   H7        1.0  0.57960  0.19040  0.63270  1.0000 0.1296267854
H   H8        1.0  0.19040  0.57960  0.86730  1.0000 0.1296267854
H   H9        1.0  0.72880  0.34160  0.30220  1.0000 0.1196869588
H   H10       1.0  0.34160  0.72880  0.19780  1.0000 0.1196869588
H   H11       1.0  0.27120  0.65840  0.69780  1.0000 0.1196869588
H   H12       1.0  0.65840  0.27120  0.80220  1.0000 0.1196869588
H   H13       1.0  0.24740  0.92400  0.25100  1.0000 0.1296267854
H   H14       1.0  0.92400  0.24740  0.24900  1.0000 0.1296267854
H   H15       1.0  0.75260  0.07600  0.74900  1.0000 0.1296267854
H   H16       1.0  0.07600  0.75260  0.75100  1.0000 0.1296267854
H   H17       1.0  0.41630  0.22170  0.21580  1.0000 0.1196869588
H   H18       1.0  0.22170  0.41630  0.28420  1.0000 0.1196869588
H   H19       1.0  0.58370  0.77830  0.78420  1.0000 0.1196869588
H   H20       1.0  0.77830  0.58370  0.71580  1.0000 0.1196869588
H   H21       1.0  0.12470  0.78190  0.31450  1.0000 0.1103433883
H   H22       1.0  0.78190  0.12470  0.18550  1.0000 0.1103433883
H   H23       1.0  0.87530  0.21810  0.68550  1.0000 0.1103433883
H   H24       1.0  0.21810  0.87530  0.81450  1.0000 0.1103433883
H   H25       1.0  0.60790  0.81350  0.48220  1.0000 0.1196869588
H   H26       1.0  0.81350  0.60790  0.01780  1.0000 0.1196869588
H   H27       1.0  0.39210  0.18650  0.51780  1.0000 0.1196869588
H   H28       1.0  0.18650  0.39210  0.98220  1.0000 0.1196869588
H   H29       1.0  0.64550  0.97430  0.42500  1.0000 0.1296267854
H   H30       1.0  0.97430  0.64550  0.07500  1.0000 0.1296267854
H   H31       1.0  0.35450  0.02570  0.57500  1.0000 0.1296267854
H   H32       1.0  0.02570  0.35450  0.92500  1.0000 0.1296267854
H   H33       1.0  0.46850  0.19670  0.06060  1.0000 0.1196869588
H   H34       1.0  0.19670  0.46850  0.43940  1.0000 0.1196869588
H   H35       1.0  0.53150  0.80330  0.93940  1.0000 0.1196869588
H   H36       1.0  0.80330  0.53150  0.56060  1.0000 0.1196869588
H   H37       1.0  0.90690  0.23690  0.43890  1.0000 0.1196869588
H   H38       1.0  0.23690  0.90690  0.06110  1.0000 0.1196869588
H   H39       1.0  0.09310  0.76310  0.56110  1.0000 0.1196869588
H   H40       1.0  0.76310  0.09310  0.93890  1.0000 0.1196869588
H   H41       1.0  0.45610  0.05030  0.13750  1.0000 0.141618729
H   H42       1.0  0.05030  0.45610  0.36250  1.0000 0.141618729
H   H43       1.0  0.54390  0.94970  0.86250  1.0000 0.141618729
H   H44       1.0  0.94970  0.54390  0.63750  1.0000 0.141618729
H   H45       1.0  0.60520  0.94760  0.22750  1.0000 0.141618729
H   H46       1.0  0.94760  0.60520  0.27250  1.0000 0.141618729
H   H47       1.0  0.39480  0.05240  0.77250  1.0000 0.141618729
H   H48       1.0  0.05240  0.39480  0.72750  1.0000 0.141618729
H   H49       1.0  0.39260  0.06660  0.29020  1.0000 0.1296267854
H   H50       1.0  0.06660  0.39260  0.20980  1.0000 0.1296267854
H   H51       1.0  0.60740  0.93340  0.70980  1.0000 0.1296267854
H   H52       1.0  0.93340  0.60740  0.79020  1.0000 0.1296267854
H   H53       1.0  0.56270  0.78370  0.28430  1.0000 0.1196869588
H   H54       1.0  0.78370  0.56270  0.21570  1.0000 0.1196869588
H   H55       1.0  0.43730  0.21630  0.71570  1.0000 0.1196869588
H   H56       1.0  0.21630  0.43730  0.78430  1.0000 0.1196869588
H   H57       1.0  0.08070  0.16730  0.73210  1.0000 0.141618729
H   H58       1.0  0.16730  0.08070  0.76790  1.0000 0.141618729
H   H59       1.0  0.91930  0.83270  0.26790  1.0000 0.141618729
H   H60       1.0  0.83270  0.91930  0.23210  1.0000 0.141618729
H   H61       1.0  0.29720  0.66840  0.42790  1.0000 0.1296267854
H   H62       1.0  0.66840  0.29720  0.07210  1.0000 0.1296267854
H   H63       1.0  0.70280  0.33160  0.57210  1.0000 0.1296267854
H   H64       1.0  0.33160  0.70280  0.92790  1.0000 0.1296267854
H   H65       1.0  0.81070  0.11050  0.38330  1.0000 0.1296267854
H   H66       1.0  0.11050  0.81070  0.11670  1.0000 0.1296267854
H   H67       1.0  0.18930  0.88950  0.61670  1.0000 0.1296267854
H   H68       1.0  0.88950  0.18930  0.88330  1.0000 0.1296267854
H   H69       1.0  0.01620  0.26360  0.65810  1.0000 0.1196869588
H   H70       1.0  0.26360  0.01620  0.84190  1.0000 0.1196869588
H   H71       1.0  0.98380  0.73640  0.34190  1.0000 0.1196869588
H   H72       1.0  0.73640  0.98380  0.15810  1.0000 0.1196869588
H   H73       1.0  0.24590  0.46450  0.58260  1.0000 0.1196869588
H   H74       1.0  0.46450  0.24590  0.91740  1.0000 0.1196869588
H   H75       1.0  0.75410  0.53550  0.41740  1.0000 0.1196869588
H   H76       1.0  0.53550  0.75410  0.08260  1.0000 0.1196869588
H   H77       1.0  0.32630  0.37990  0.67410  1.0000 0.148212771
H   H78       1.0  0.37990  0.32630  0.82590  1.0000 0.148212771
H   H79       1.0  0.67370  0.62010  0.32590  1.0000 0.148212771
H   H80       1.0  0.62010  0.67370  0.17410  1.0000 0.148212771
C   C1        1.0  0.12670  0.62610  0.42220  1.0000 0.5733895628
C   C2        1.0  0.62610  0.12670  0.07780  1.0000 0.5733895628
C   C3        1.0  0.87330  0.37390  0.57780  1.0000 0.5733895628
C   C4        1.0  0.37390  0.87330  0.92220  1.0000 0.5733895628
C   C5        1.0  0.89100  0.38140  0.41590  1.0000 0.5733895628
C   C6        1.0  0.38140  0.89100  0.08410  1.0000 0.5733895628
C   C7        1.0  0.10900  0.61860  0.58410  1.0000 0.5733895628
C   C8        1.0  0.61860  0.10900  0.91590  1.0000 0.5733895628
C   C9        1.0  0.82780  0.30200  0.37700  1.0000 -0.0405053214
C   C10       1.0  0.30200  0.82780  0.12300  1.0000 -0.0405053214
C   C11       1.0  0.17220  0.69800  0.62300  1.0000 -0.0405053214
C   C12       1.0  0.69800  0.17220  0.87700  1.0000 -0.0405053214
C   C13       1.0  0.55650  0.67810  0.42720  1.0000 0.5775725944
C   C14       1.0  0.67810  0.55650  0.07280  1.0000 0.5775725944
C   C15       1.0  0.44350  0.32190  0.57280  1.0000 0.5775725944
C   C16       1.0  0.32190  0.44350  0.92720  1.0000 0.5775725944
C   C17       1.0  0.68200  0.21540  0.28790  1.0000 -0.2091923887
C   C18       1.0  0.21540  0.68200  0.21210  1.0000 -0.2091923887
C   C19       1.0  0.31800  0.78460  0.71210  1.0000 -0.2091923887
C   C20       1.0  0.78460  0.31800  0.78790  1.0000 -0.2091923887
C   C21       1.0  0.36210  0.80450  0.35650  1.0000 -0.1979809276
C   C22       1.0  0.80450  0.36210  0.14350  1.0000 -0.1979809276
C   C23       1.0  0.63790  0.19550  0.64350  1.0000 -0.1979809276
C   C24       1.0  0.19550  0.63790  0.85650  1.0000 -0.1979809276
C   C25       1.0  0.44540  0.22680  0.12900  1.0000 -0.0405053214
C   C26       1.0  0.22680  0.44540  0.37100  1.0000 -0.0405053214
C   C27       1.0  0.55460  0.77320  0.87100  1.0000 -0.0405053214
C   C28       1.0  0.77320  0.55460  0.62900  1.0000 -0.0405053214
C   C29       1.0  0.74380  0.29420  0.31960  1.0000 -0.0680380436
C   C30       1.0  0.29420  0.74380  0.18040  1.0000 -0.0680380436
C   C31       1.0  0.25620  0.70580  0.68040  1.0000 -0.0680380436
C   C32       1.0  0.70580  0.25620  0.81960  1.0000 -0.0680380436
C   C33       1.0  0.21570  0.26670  0.72160  1.0000 0.1023614807
C   C34       1.0  0.26670  0.21570  0.77840  1.0000 0.1023614807
C   C35       1.0  0.78430  0.73330  0.27840  1.0000 0.1023614807
C   C36       1.0  0.73330  0.78430  0.22160  1.0000 0.1023614807
C   C37       1.0  0.46240  0.32620  0.08280  1.0000 0.5775725944
C   C38       1.0  0.32620  0.46240  0.41720  1.0000 0.5775725944
C   C39       1.0  0.53760  0.67380  0.91720  1.0000 0.5775725944
C   C40       1.0  0.67380  0.53760  0.58280  1.0000 0.5775725944
C   C41       1.0  0.25790  0.87370  0.28650  1.0000 -0.2403238444
C   C42       1.0  0.87370  0.25790  0.21350  1.0000 -0.2403238444
C   C43       1.0  0.74210  0.12630  0.71350  1.0000 -0.2403238444
C   C44       1.0  0.12630  0.74210  0.78650  1.0000 -0.2403238444
C   C45       1.0  0.42220  0.18680  0.19950  1.0000 -0.0796815902
C   C46       1.0  0.18680  0.42220  0.30050  1.0000 -0.0850414904
C   C47       1.0  0.57780  0.81320  0.80050  1.0000 -0.0850414904
C   C48       1.0  0.81320  0.57780  0.69950  1.0000 -0.0850414904
C   C49       1.0  0.18340  0.78780  0.32500  1.0000 -0.0680380436
C   C50       1.0  0.78780  0.18340  0.17500  1.0000 -0.0680380436
C   C51       1.0  0.81660  0.21220  0.67500  1.0000 -0.0680380436
C   C52       1.0  0.21220  0.81660  0.82500  1.0000 -0.0680380436
C   C53       1.0  0.60770  0.84030  0.43130  1.0000 -0.0796815902
C   C54       1.0  0.84030  0.60770  0.06870  1.0000 -0.0796815902
C   C55       1.0  0.39230  0.15970  0.56870  1.0000 -0.0796815902
C   C56       1.0  0.15970  0.39230  0.93130  1.0000 -0.0796815902
C   C57       1.0  0.62610  0.97650  0.31780  1.0000 0.2688077244
C   C58       1.0  0.97650  0.62610  0.18220  1.0000 0.2688077244
C   C59       1.0  0.37390  0.02350  0.68220  1.0000 0.2688077244
C   C60       1.0  0.02350  0.37390  0.81780  1.0000 0.2688077244
C   C61       1.0  0.70100  0.14300  0.31230  1.0000 0.2688077244
C   C62       1.0  0.14300  0.70100  0.18770  1.0000 0.2688077244
C   C63       1.0  0.29900  0.85700  0.68770  1.0000 0.2688077244
C   C64       1.0  0.85700  0.29900  0.81230  1.0000 0.2688077244
C   C65       1.0  0.41750  0.03970  0.22050  1.0000 0.276182863
C   C66       1.0  0.03970  0.41750  0.27950  1.0000 0.276182863
C   C67       1.0  0.58250  0.96030  0.77950  1.0000 0.276182863
C   C68       1.0  0.96030  0.58250  0.72050  1.0000 0.276182863
C   C69       1.0  0.62940  0.93700  0.39690  1.0000 -0.2403238444
C   C70       1.0  0.93700  0.62940  0.10310  1.0000 -0.2403238444
C   C71       1.0  0.37060  0.06300  0.60310  1.0000 -0.2403238444
C   C72       1.0  0.06300  0.37060  0.89690  1.0000 -0.2403238444
C   C73       1.0  0.45510  0.17190  0.10680  1.0000 -0.0796815902
C   C74       1.0  0.17190  0.45510  0.39320  1.0000 -0.0796815902
C   C75       1.0  0.54490  0.82810  0.89320  1.0000 -0.0796815902
C   C76       1.0  0.82810  0.54490  0.60680  1.0000 -0.0796815902
C   C77       1.0  0.58580  0.78380  0.39040  1.0000 -0.0405053214
C   C78       1.0  0.78380  0.58580  0.10960  1.0000 -0.0405053214
C   C79       1.0  0.41420  0.21620  0.60960  1.0000 -0.0405053214
C   C80       1.0  0.21620  0.41420  0.89040  1.0000 -0.0405053214
C   C81       1.0  0.85080  0.23180  0.40070  1.0000 -0.0796815902
C   C82       1.0  0.23180  0.85080  0.09930  1.0000 -0.0796815902
C   C83       1.0  0.14920  0.76820  0.59930  1.0000 -0.0796815902
C   C84       1.0  0.76820  0.14920  0.90070  1.0000 -0.0796815902
C   C85       1.0  0.44500  0.08260  0.15190  1.0000 -0.1979809276
C   C86       1.0  0.08260  0.44500  0.34810  1.0000 -0.1979809276
C   C87       1.0  0.55500  0.91740  0.84810  1.0000 -0.1979809276
C   C88       1.0  0.91740  0.55500  0.65190  1.0000 -0.1979809276
C   C89       1.0  0.20460  0.71400  0.37910  1.0000 -0.0300103994
C   C90       1.0  0.71400  0.20460  0.12090  1.0000 -0.0300103994
C   C91       1.0  0.79540  0.28600  0.62090  1.0000 -0.0300103994
C   C92       1.0  0.28600  0.79540  0.87910  1.0000 -0.0300103994
C   C93       1.0  0.60460  0.92060  0.27820  1.0000 -0.2206424707
C   C94       1.0  0.92060  0.60460  0.22180  1.0000 -0.2206424707
C   C95       1.0  0.39540  0.07940  0.72180  1.0000 -0.2206424707
C   C96       1.0  0.07940  0.39540  0.77820  1.0000 -0.2206424707
C   C97       1.0  0.40810  0.09290  0.24460  1.0000 -0.2520717653
C   C98       1.0  0.09290  0.40810  0.25540  1.0000 -0.2520717653
C   C99       1.0  0.59190  0.90710  0.75540  1.0000 -0.2520717653
C   C100      1.0  0.90710  0.59190  0.74460  1.0000 -0.2520717653
C   C101      1.0  0.34290  0.87970  0.30300  1.0000 0.2688077244
C   C102      1.0  0.87970  0.34290  0.19700  1.0000 0.2688077244
C   C103      1.0  0.65710  0.12030  0.69700  1.0000 0.2688077244
C   C104      1.0  0.12030  0.65710  0.80300  1.0000 0.2688077244
C   C105      1.0  0.58090  0.82170  0.31270  1.0000 -0.0796815902
C   C106      1.0  0.82170  0.58090  0.18730  1.0000 -0.0796815902
C   C107      1.0  0.41910  0.17830  0.68730  1.0000 -0.0796815902
C   C108      1.0  0.17830  0.41910  0.81270  1.0000 -0.0796815902
C   C109      1.0  0.11900  0.23080  0.70760  1.0000 -0.1866925834
C   C110      1.0  0.23080  0.11900  0.79240  1.0000 -0.1866925834
C   C111      1.0  0.88100  0.76920  0.29240  1.0000 -0.1866925834
C   C112      1.0  0.76920  0.88100  0.20760  1.0000 -0.1866925834
C   C113      1.0  0.28760  0.71960  0.39360  1.0000 -0.0796815902
C   C114      1.0  0.71960  0.28760  0.10640  1.0000 -0.0796815902
C   C115      1.0  0.71240  0.28040  0.60640  1.0000 -0.0796815902
C   C116      1.0  0.28040  0.71240  0.89360  1.0000 -0.0796815902
C   C117      1.0  0.79220  0.15440  0.36890  1.0000 -0.2206424707
C   C118      1.0  0.15440  0.79220  0.13110  1.0000 -0.2206424707
C   C119      1.0  0.20780  0.84560  0.63110  1.0000 -0.2206424707
C   C120      1.0  0.84560  0.20780  0.86890  1.0000 -0.2206424707
C   C121      1.0  0.07800  0.28620  0.65860  1.0000 0.0771549037
C   C122      1.0  0.28620  0.07800  0.84140  1.0000 0.0771549037
C   C123      1.0  0.92200  0.71380  0.34140  1.0000 0.0771549037
C   C124      1.0  0.71380  0.92200  0.15860  1.0000 0.0771549037
C   C125      1.0  0.21350  0.40630  0.61570  1.0000 0.1296267854
C   C126      1.0  0.40630  0.21350  0.88430  1.0000 0.1296267854
C   C127      1.0  0.78650  0.59370  0.38430  1.0000 0.1296267854
C   C128      1.0  0.59370  0.78650  0.11570  1.0000 0.1296267854
C   C129      1.0  0.26270  0.35470  0.67140  1.0000 -0.1866925834
C   C130      1.0  0.35470  0.26270  0.82860  1.0000 -0.1866925834
C   C131      1.0  0.73730  0.64530  0.32860  1.0000 -0.1866925834
C   C132      1.0  0.64530  0.73730  0.17140  1.0000 -0.1866925834
N   N1        1.0  0.12380  0.37360  0.61020  1.0000 -0.2346839057
N   N2        1.0  0.37360  0.12380  0.88980  1.0000 -0.2346839057
N   N3        1.0  0.87620  0.62640  0.38980  1.0000 -0.2346839057
N   N4        1.0  0.62640  0.87620  0.11020  1.0000 -0.2346839057
O   O1        1.0  0.14660  0.56280  0.47350  1.0000 -0.511292574
O   O2        1.0  0.56280  0.14660  0.02650  1.0000 -0.511292574
O   O3        1.0  0.85340  0.43720  0.52650  1.0000 -0.511292574
O   O4        1.0  0.43720  0.85340  0.97350  1.0000 -0.511292574
O   O5        1.0  0.04720  0.62480  0.40230  1.0000 -0.5612411396
O   O6        1.0  0.62480  0.04720  0.09770  1.0000 -0.5612411396
O   O7        1.0  0.95280  0.37520  0.59770  1.0000 -0.5612411396
O   O8        1.0  0.37520  0.95280  0.90230  1.0000 -0.5612411396
O   O9        1.0  0.96650  0.38170  0.46790  1.0000 -0.5417723032
O   O10       1.0  0.38170  0.96650  0.03210  1.0000 -0.5417723032
O   O11       1.0  0.03350  0.61830  0.53210  1.0000 -0.5417723032
O   O12       1.0  0.61830  0.03350  0.96790  1.0000 -0.5417723032
O   O13       1.0  0.86610  0.44270  0.39630  1.0000 -0.5199680375
O   O14       1.0  0.44270  0.86610  0.10370  1.0000 -0.5199680375
O   O15       1.0  0.13390  0.55730  0.60370  1.0000 -0.5199680375
O   O16       1.0  0.55730  0.13390  0.89630  1.0000 -0.5199680375
O   O17       1.0  0.55580  0.63240  0.39800  1.0000 -0.5199680375
O   O18       1.0  0.63240  0.55580  0.10200  1.0000 -0.5199680375
O   O19       1.0  0.44420  0.36760  0.60200  1.0000 -0.5199680375
O   O20       1.0  0.36760  0.44420  0.89800  1.0000 -0.5199680375
O   O21       1.0  0.46240  0.37640  0.10710  1.0000 -0.5042443248
O   O22       1.0  0.37640  0.46240  0.39290  1.0000 -0.5042443248
O   O23       1.0  0.53760  0.62360  0.89290  1.0000 -0.5042443248
O   O24       1.0  0.62360  0.53760  0.60710  1.0000 -0.5042443248
O   O25       1.0  0.47520  0.35540  0.01450  1.0000 -0.5843976112
O   O26       1.0  0.35540  0.47520  0.48550  1.0000 -0.5843976112
O   O27       1.0  0.52480  0.64460  0.98550  1.0000 -0.5843976112
O   O28       1.0  0.64460  0.52480  0.51450  1.0000 -0.5843976112
O   O29       1.0  0.63960  0.06640  0.27930  1.0000 -0.1979809276
O   O30       1.0  0.06640  0.63960  0.22070  1.0000 -0.1979809276
O   O31       1.0  0.36040  0.93360  0.72070  1.0000 -0.1979809276
O   O32       1.0  0.93360  0.36040  0.77930  1.0000 -0.1979809276
O   O33       1.0  0.53850  0.64350  0.49250  1.0000 -0.5612411396
O   O34       1.0  0.64350  0.53850  0.00750  1.0000 -0.5612411396
O   O35       1.0  0.46150  0.35650  0.50750  1.0000 -0.5612411396
O   O36       1.0  0.35650  0.46150  0.99250  1.0000 -0.5612411396
O   O37       1.0  0.41380  0.95260  0.26470  1.0000 -0.2091923887
O   O38       1.0  0.95260  0.41380  0.23530  1.0000 -0.2091923887
O   O39       1.0  0.58620  0.04740  0.73530  1.0000 -0.2091923887
O   O40       1.0  0.04740  0.58620  0.76470  1.0000 -0.2091923887
