# DDEC6 charges by PACMAN v1.1 (https://github.com/mtap-research/PACMAN-charge/)
data_2012[Tb][nan]3[ASR]4
_chemical_formula_sum              "Tb8 P8 H96 C168 O56"
_cell_length_a       12.1
_cell_length_b       20.605
_cell_length_c       27.185
_cell_angle_alpha    90
_cell_angle_beta     90
_cell_angle_gamma    90

_symmetry_space_group_name_H-M    "P 1"
_symmetry_Int_Tables_number       1

loop_
  _symmetry_equiv_pos_as_xyz
  'x, y, z'

loop_
  _atom_site_type_symbol
  _atom_site_label
  _atom_site_symmetry_multiplicity
  _atom_site_fract_x
  _atom_site_fract_y
  _atom_site_fract_z
  _atom_site_occupancy
  _atom_site_charge
Tb  Tb1       1.0  0.11089  0.97775  0.57143  1.0000 2.0775562801
Tb  Tb2       1.0  0.38911  0.97775  0.92857  1.0000 2.0775562801
Tb  Tb3       1.0  0.61089  0.52225  0.42857  1.0000 2.0775562801
Tb  Tb4       1.0  0.88911  0.52225  0.07143  1.0000 2.0775562801
Tb  Tb5       1.0  0.88911  0.02225  0.42857  1.0000 2.0775562801
Tb  Tb6       1.0  0.61089  0.02225  0.07143  1.0000 2.0775562801
Tb  Tb7       1.0  0.38911  0.47775  0.57143  1.0000 2.0775562801
Tb  Tb8       1.0  0.11089  0.47775  0.92857  1.0000 2.0775562801
P   P1        1.0  0.12180  0.90405  0.89206  1.0000 0.9128379577
P   P2        1.0  0.37820  0.90405  0.60794  1.0000 0.9128379577
P   P3        1.0  0.62180  0.59595  0.10794  1.0000 0.9128379577
P   P4        1.0  0.87820  0.59595  0.39206  1.0000 0.9128379577
P   P5        1.0  0.87820  0.09595  0.10794  1.0000 0.9128379577
P   P6        1.0  0.62180  0.09595  0.39206  1.0000 0.9128379577
P   P7        1.0  0.37820  0.40405  0.89206  1.0000 0.9128379577
P   P8        1.0  0.12180  0.40405  0.60794  1.0000 0.9128379577
H   H1        1.0  0.92050  0.92860  0.83960  1.0000 0.1046302073
H   H2        1.0  0.57950  0.92860  0.66040  1.0000 0.1046302073
H   H3        1.0  0.42050  0.57140  0.16040  1.0000 0.1046302073
H   H4        1.0  0.07950  0.57140  0.33960  1.0000 0.1046302073
H   H5        1.0  0.07950  0.07140  0.16040  1.0000 0.1046302073
H   H6        1.0  0.42050  0.07140  0.33960  1.0000 0.1046302073
H   H7        1.0  0.57950  0.42860  0.83960  1.0000 0.1046302073
H   H8        1.0  0.92050  0.42860  0.66040  1.0000 0.1046302073
H   H9        1.0  0.73700  0.94950  0.86380  1.0000 0.1353070863
H   H10       1.0  0.76300  0.94950  0.63620  1.0000 0.1353070863
H   H11       1.0  0.23700  0.55050  0.13620  1.0000 0.1353070863
H   H12       1.0  0.26300  0.55050  0.36380  1.0000 0.1353070863
H   H13       1.0  0.26300  0.05050  0.13620  1.0000 0.1353070863
H   H14       1.0  0.23700  0.05050  0.36380  1.0000 0.1353070863
H   H15       1.0  0.76300  0.44950  0.86380  1.0000 0.1353070863
H   H16       1.0  0.73700  0.44950  0.63620  1.0000 0.1353070863
H   H17       1.0  0.83490  0.96290  0.00440  1.0000 0.128848428
H   H18       1.0  0.66510  0.96290  0.49560  1.0000 0.128848428
H   H19       1.0  0.33490  0.53710  0.99560  1.0000 0.128848428
H   H20       1.0  0.16510  0.53710  0.50440  1.0000 0.128848428
H   H21       1.0  0.16510  0.03710  0.99560  1.0000 0.128848428
H   H22       1.0  0.33490  0.03710  0.50440  1.0000 0.128848428
H   H23       1.0  0.66510  0.46290  0.00440  1.0000 0.128848428
H   H24       1.0  0.83490  0.46290  0.49560  1.0000 0.128848428
H   H25       1.0  0.01410  0.94140  0.98070  1.0000 0.1230631262
H   H26       1.0  0.48590  0.94140  0.51930  1.0000 0.1230631262
H   H27       1.0  0.51410  0.55860  0.01930  1.0000 0.1230631262
H   H28       1.0  0.98590  0.55860  0.48070  1.0000 0.1230631262
H   H29       1.0  0.98590  0.05860  0.01930  1.0000 0.1230631262
H   H30       1.0  0.51410  0.05860  0.48070  1.0000 0.1230631262
H   H31       1.0  0.48590  0.44140  0.98070  1.0000 0.1230631262
H   H32       1.0  0.01410  0.44140  0.51930  1.0000 0.1230631262
H   H33       1.0  0.95770  0.80700  0.91030  1.0000 0.1095127562
H   H34       1.0  0.54230  0.80700  0.58970  1.0000 0.1095127562
H   H35       1.0  0.45770  0.69300  0.08970  1.0000 0.1095127562
H   H36       1.0  0.04230  0.69300  0.41030  1.0000 0.1095127562
H   H37       1.0  0.04230  0.19300  0.08970  1.0000 0.1095127562
H   H38       1.0  0.45770  0.19300  0.41030  1.0000 0.1095127562
H   H39       1.0  0.54230  0.30700  0.91030  1.0000 0.1095127562
H   H40       1.0  0.95770  0.30700  0.58970  1.0000 0.1095127562
H   H41       1.0  0.96140  0.69430  0.92100  1.0000 0.128848428
H   H42       1.0  0.53860  0.69430  0.57900  1.0000 0.128848428
H   H43       1.0  0.46140  0.80570  0.07900  1.0000 0.128848428
H   H44       1.0  0.03860  0.80570  0.42100  1.0000 0.128848428
H   H45       1.0  0.03860  0.30570  0.07900  1.0000 0.128848428
H   H46       1.0  0.46140  0.30570  0.42100  1.0000 0.128848428
H   H47       1.0  0.53860  0.19430  0.92100  1.0000 0.128848428
H   H48       1.0  0.96140  0.19430  0.57900  1.0000 0.128848428
H   H49       1.0  0.29540  0.69770  0.91680  1.0000 0.1230631262
H   H50       1.0  0.20460  0.69770  0.58320  1.0000 0.1230631262
H   H51       1.0  0.79540  0.80230  0.08320  1.0000 0.1230631262
H   H52       1.0  0.70460  0.80230  0.41680  1.0000 0.1230631262
H   H53       1.0  0.70460  0.30230  0.08320  1.0000 0.1230631262
H   H54       1.0  0.79540  0.30230  0.41680  1.0000 0.1230631262
H   H55       1.0  0.20460  0.19770  0.91680  1.0000 0.1230631262
H   H56       1.0  0.29540  0.19770  0.58320  1.0000 0.1230631262
H   H57       1.0  0.28830  0.81140  0.90840  1.0000 0.128848428
H   H58       1.0  0.21170  0.81140  0.59160  1.0000 0.128848428
H   H59       1.0  0.78830  0.68860  0.09160  1.0000 0.128848428
H   H60       1.0  0.71170  0.68860  0.40840  1.0000 0.128848428
H   H61       1.0  0.71170  0.18860  0.09160  1.0000 0.128848428
H   H62       1.0  0.78830  0.18860  0.40840  1.0000 0.128848428
H   H63       1.0  0.21170  0.31140  0.90840  1.0000 0.128848428
H   H64       1.0  0.28830  0.31140  0.59160  1.0000 0.128848428
H   H65       1.0  0.11710  0.81920  0.80480  1.0000 0.1095127562
H   H66       1.0  0.38290  0.81920  0.69520  1.0000 0.1095127562
H   H67       1.0  0.61710  0.68080  0.19520  1.0000 0.1095127562
H   H68       1.0  0.88290  0.68080  0.30480  1.0000 0.1095127562
H   H69       1.0  0.88290  0.18080  0.19520  1.0000 0.1095127562
H   H70       1.0  0.61710  0.18080  0.30480  1.0000 0.1095127562
H   H71       1.0  0.38290  0.31920  0.80480  1.0000 0.1095127562
H   H72       1.0  0.11710  0.31920  0.69520  1.0000 0.1095127562
H   H73       1.0  0.10730  0.83820  0.72050  1.0000 0.1230631262
H   H74       1.0  0.39270  0.83820  0.77950  1.0000 0.1230631262
H   H75       1.0  0.60730  0.66180  0.27950  1.0000 0.1230631262
H   H76       1.0  0.89270  0.66180  0.22050  1.0000 0.1230631262
H   H77       1.0  0.89270  0.16180  0.27950  1.0000 0.1230631262
H   H78       1.0  0.60730  0.16180  0.22050  1.0000 0.1230631262
H   H79       1.0  0.39270  0.33820  0.72050  1.0000 0.1230631262
H   H80       1.0  0.10730  0.33820  0.77950  1.0000 0.1230631262
H   H81       1.0  0.11250  0.03190  0.74700  1.0000 0.128848428
H   H82       1.0  0.38750  0.03190  0.75300  1.0000 0.128848428
H   H83       1.0  0.61250  0.46810  0.25300  1.0000 0.128848428
H   H84       1.0  0.88750  0.46810  0.24700  1.0000 0.128848428
H   H85       1.0  0.88750  0.96810  0.25300  1.0000 0.128848428
H   H86       1.0  0.61250  0.96810  0.24700  1.0000 0.128848428
H   H87       1.0  0.38750  0.53190  0.74700  1.0000 0.128848428
H   H88       1.0  0.11250  0.53190  0.75300  1.0000 0.128848428
H   H89       1.0  0.13290  0.01200  0.83150  1.0000 0.128848428
H   H90       1.0  0.36710  0.01200  0.66850  1.0000 0.128848428
H   H91       1.0  0.63290  0.48800  0.16850  1.0000 0.128848428
H   H92       1.0  0.86710  0.48800  0.33150  1.0000 0.128848428
H   H93       1.0  0.86710  0.98800  0.16850  1.0000 0.128848428
H   H94       1.0  0.63290  0.98800  0.33150  1.0000 0.128848428
H   H95       1.0  0.36710  0.51200  0.83150  1.0000 0.128848428
H   H96       1.0  0.13290  0.51200  0.66850  1.0000 0.128848428
C   C1        1.0  0.98440  0.92910  0.90850  1.0000 -0.139641302
C   C2        1.0  0.51560  0.92910  0.59150  1.0000 -0.139641302
C   C3        1.0  0.48440  0.57090  0.09150  1.0000 -0.139641302
C   C4        1.0  0.01560  0.57090  0.40850  1.0000 -0.139641302
C   C5        1.0  0.01560  0.07090  0.09150  1.0000 -0.139641302
C   C6        1.0  0.48440  0.07090  0.40850  1.0000 -0.139641302
C   C7        1.0  0.51560  0.42910  0.90850  1.0000 -0.139641302
C   C8        1.0  0.98440  0.42910  0.59150  1.0000 -0.139641302
C   C9        1.0  0.90310  0.93430  0.87340  1.0000 -0.0998069254
C   C10       1.0  0.59690  0.93430  0.62660  1.0000 -0.0998069254
C   C11       1.0  0.40310  0.56570  0.12660  1.0000 -0.0998069254
C   C12       1.0  0.09690  0.56570  0.37340  1.0000 -0.0998069254
C   C13       1.0  0.09690  0.06570  0.12660  1.0000 -0.0998069254
C   C14       1.0  0.40310  0.06570  0.37340  1.0000 -0.0998069254
C   C15       1.0  0.59690  0.43430  0.87340  1.0000 -0.0998069254
C   C16       1.0  0.90310  0.43430  0.62660  1.0000 -0.0998069254
C   C17       1.0  0.79410  0.94810  0.88770  1.0000 -0.0892123564
C   C18       1.0  0.70590  0.94810  0.61230  1.0000 -0.0892123564
C   C19       1.0  0.29410  0.55190  0.11230  1.0000 -0.0892123564
C   C20       1.0  0.20590  0.55190  0.38770  1.0000 -0.0892123564
C   C21       1.0  0.20590  0.05190  0.11230  1.0000 -0.0892123564
C   C22       1.0  0.29410  0.05190  0.38770  1.0000 -0.0892123564
C   C23       1.0  0.70590  0.44810  0.88770  1.0000 -0.0892123564
C   C24       1.0  0.79410  0.44810  0.61230  1.0000 -0.0892123564
C   C25       1.0  0.77020  0.95920  0.93500  1.0000 -0.0117661132
C   C26       1.0  0.72980  0.95920  0.56500  1.0000 -0.0117661132
C   C27       1.0  0.27020  0.54080  0.06500  1.0000 -0.0117661132
C   C28       1.0  0.22980  0.54080  0.43500  1.0000 -0.0117661132
C   C29       1.0  0.22980  0.04080  0.06500  1.0000 -0.0117661132
C   C30       1.0  0.27020  0.04080  0.43500  1.0000 -0.0117661132
C   C31       1.0  0.72980  0.45920  0.93500  1.0000 -0.0117661132
C   C32       1.0  0.77020  0.45920  0.56500  1.0000 -0.0117661132
C   C33       1.0  0.85200  0.95580  0.97080  1.0000 -0.0892123564
C   C34       1.0  0.64800  0.95580  0.52920  1.0000 -0.0892123564
C   C35       1.0  0.35200  0.54420  0.02920  1.0000 -0.0892123564
C   C36       1.0  0.14800  0.54420  0.47080  1.0000 -0.0892123564
C   C37       1.0  0.14800  0.04420  0.02920  1.0000 -0.0892123564
C   C38       1.0  0.35200  0.04420  0.47080  1.0000 -0.0892123564
C   C39       1.0  0.64800  0.45580  0.97080  1.0000 -0.0892123564
C   C40       1.0  0.85200  0.45580  0.52920  1.0000 -0.0892123564
C   C41       1.0  0.95740  0.94200  0.95650  1.0000 -0.0892123564
C   C42       1.0  0.54260  0.94200  0.54350  1.0000 -0.0892123564
C   C43       1.0  0.45740  0.55800  0.04350  1.0000 -0.0892123564
C   C44       1.0  0.04260  0.55800  0.45650  1.0000 -0.0892123564
C   C45       1.0  0.04260  0.05800  0.04350  1.0000 -0.0892123564
C   C46       1.0  0.45740  0.05800  0.45650  1.0000 -0.0892123564
C   C47       1.0  0.54260  0.44200  0.95650  1.0000 -0.0892123564
C   C48       1.0  0.95740  0.44200  0.54350  1.0000 -0.0892123564
C   C49       1.0  0.65290  0.97460  0.94920  1.0000 0.6557200231
C   C50       1.0  0.84710  0.97460  0.55080  1.0000 0.6557200231
C   C51       1.0  0.15290  0.52540  0.05080  1.0000 0.6557200231
C   C52       1.0  0.34710  0.52540  0.44920  1.0000 0.6557200231
C   C53       1.0  0.34710  0.02540  0.05080  1.0000 0.6557200231
C   C54       1.0  0.15290  0.02540  0.44920  1.0000 0.6557200231
C   C55       1.0  0.84710  0.47460  0.94920  1.0000 0.6557200231
C   C56       1.0  0.65290  0.47460  0.55080  1.0000 0.6557200231
C   C57       1.0  0.12520  0.81800  0.90390  1.0000 -0.139641302
C   C58       1.0  0.37480  0.81800  0.59610  1.0000 -0.139641302
C   C59       1.0  0.62520  0.68200  0.09610  1.0000 -0.139641302
C   C60       1.0  0.87480  0.68200  0.40390  1.0000 -0.139641302
C   C61       1.0  0.87480  0.18200  0.09610  1.0000 -0.139641302
C   C62       1.0  0.62520  0.18200  0.40390  1.0000 -0.139641302
C   C63       1.0  0.37480  0.31800  0.90390  1.0000 -0.139641302
C   C64       1.0  0.12520  0.31800  0.59610  1.0000 -0.139641302
C   C65       1.0  0.02620  0.78440  0.91050  1.0000 -0.0998069254
C   C66       1.0  0.47380  0.78440  0.58950  1.0000 -0.0998069254
C   C67       1.0  0.52620  0.71560  0.08950  1.0000 -0.0998069254
C   C68       1.0  0.97380  0.71560  0.41050  1.0000 -0.0998069254
C   C69       1.0  0.97380  0.21560  0.08950  1.0000 -0.0998069254
C   C70       1.0  0.52620  0.21560  0.41050  1.0000 -0.0998069254
C   C71       1.0  0.47380  0.28440  0.91050  1.0000 -0.0998069254
C   C72       1.0  0.02620  0.28440  0.58950  1.0000 -0.0998069254
C   C73       1.0  0.02870  0.71760  0.91730  1.0000 -0.0830373076
C   C74       1.0  0.47130  0.71760  0.58270  1.0000 -0.0830373076
C   C75       1.0  0.52870  0.78240  0.08270  1.0000 -0.0830373076
C   C76       1.0  0.97130  0.78240  0.41730  1.0000 -0.0830373076
C   C77       1.0  0.97130  0.28240  0.08270  1.0000 -0.0830373076
C   C78       1.0  0.52870  0.28240  0.41730  1.0000 -0.0830373076
C   C79       1.0  0.47130  0.21760  0.91730  1.0000 -0.0830373076
C   C80       1.0  0.02870  0.21760  0.58270  1.0000 -0.0830373076
C   C81       1.0  0.12930  0.68450  0.91890  1.0000 -0.0152412685
C   C82       1.0  0.37070  0.68450  0.58110  1.0000 -0.0152412685
C   C83       1.0  0.62930  0.81550  0.08110  1.0000 -0.0152412685
C   C84       1.0  0.87070  0.81550  0.41890  1.0000 -0.0152412685
C   C85       1.0  0.87070  0.31550  0.08110  1.0000 -0.0152412685
C   C86       1.0  0.62930  0.31550  0.41890  1.0000 -0.0152412685
C   C87       1.0  0.37070  0.18450  0.91890  1.0000 -0.0152412685
C   C88       1.0  0.12930  0.18450  0.58110  1.0000 -0.0152412685
C   C89       1.0  0.22610  0.71930  0.91520  1.0000 -0.0892123564
C   C90       1.0  0.27390  0.71930  0.58480  1.0000 -0.0892123564
C   C91       1.0  0.72610  0.78070  0.08480  1.0000 -0.0892123564
C   C92       1.0  0.77390  0.78070  0.41520  1.0000 -0.0892123564
C   C93       1.0  0.77390  0.28070  0.08480  1.0000 -0.0892123564
C   C94       1.0  0.72610  0.28070  0.41520  1.0000 -0.0892123564
C   C95       1.0  0.27390  0.21930  0.91520  1.0000 -0.0892123564
C   C96       1.0  0.22610  0.21930  0.58480  1.0000 -0.0892123564
C   C97       1.0  0.22160  0.78710  0.90900  1.0000 -0.0892123564
C   C98       1.0  0.27840  0.78710  0.59100  1.0000 -0.0892123564
C   C99       1.0  0.72160  0.71290  0.09100  1.0000 -0.0830373076
C   C100      1.0  0.77840  0.71290  0.40900  1.0000 -0.0830373076
C   C101      1.0  0.77840  0.21290  0.09100  1.0000 -0.0892123564
C   C102      1.0  0.72160  0.21290  0.40900  1.0000 -0.0892123564
C   C103      1.0  0.27840  0.28710  0.90900  1.0000 -0.0892123564
C   C104      1.0  0.22160  0.28710  0.59100  1.0000 -0.0830373076
C   C105      1.0  0.13090  0.61310  0.92570  1.0000 0.5664500232
C   C106      1.0  0.36910  0.61310  0.57430  1.0000 0.5664500232
C   C107      1.0  0.63090  0.88690  0.07430  1.0000 0.5664500232
C   C108      1.0  0.86910  0.88690  0.42570  1.0000 0.5664500232
C   C109      1.0  0.86910  0.38690  0.07430  1.0000 0.5664500232
C   C110      1.0  0.63090  0.38690  0.42570  1.0000 0.5664500232
C   C111      1.0  0.36910  0.11310  0.92570  1.0000 0.5664500232
C   C112      1.0  0.13090  0.11310  0.57430  1.0000 0.5664500232
C   C113      1.0  0.12650  0.91440  0.82750  1.0000 -0.1775799173
C   C114      1.0  0.37350  0.91440  0.67250  1.0000 -0.1775799173
C   C115      1.0  0.62650  0.58560  0.17250  1.0000 -0.1775799173
C   C116      1.0  0.87350  0.58560  0.32750  1.0000 -0.1775799173
C   C117      1.0  0.87350  0.08560  0.17250  1.0000 -0.1775799173
C   C118      1.0  0.62650  0.08560  0.32750  1.0000 -0.1775799173
C   C119      1.0  0.37350  0.41440  0.82750  1.0000 -0.1775799173
C   C120      1.0  0.12650  0.41440  0.67250  1.0000 -0.1775799173
C   C121      1.0  0.11790  0.86260  0.79300  1.0000 -0.0892123564
C   C122      1.0  0.38210  0.86260  0.70700  1.0000 -0.0892123564
C   C123      1.0  0.61790  0.63740  0.20700  1.0000 -0.0892123564
C   C124      1.0  0.88210  0.63740  0.29300  1.0000 -0.0892123564
C   C125      1.0  0.88210  0.13740  0.20700  1.0000 -0.0892123564
C   C126      1.0  0.61790  0.13740  0.29300  1.0000 -0.0892123564
C   C127      1.0  0.38210  0.36260  0.79300  1.0000 -0.0892123564
C   C128      1.0  0.11790  0.36260  0.70700  1.0000 -0.0892123564
C   C129      1.0  0.11060  0.87350  0.74300  1.0000 -0.0998069254
C   C130      1.0  0.38940  0.87350  0.75700  1.0000 -0.0998069254
C   C131      1.0  0.61060  0.62650  0.25700  1.0000 -0.0998069254
C   C132      1.0  0.88940  0.62650  0.24300  1.0000 -0.0998069254
C   C133      1.0  0.88940  0.12650  0.25700  1.0000 -0.0998069254
C   C134      1.0  0.61060  0.12650  0.24300  1.0000 -0.0998069254
C   C135      1.0  0.38940  0.37350  0.74300  1.0000 -0.0998069254
C   C136      1.0  0.11060  0.37350  0.75700  1.0000 -0.0998069254
C   C137      1.0  0.10820  0.93700  0.72640  1.0000 0.0013330988
C   C138      1.0  0.39180  0.93700  0.77360  1.0000 0.0013330988
C   C139      1.0  0.60820  0.56300  0.27360  1.0000 0.0013330988
C   C140      1.0  0.89180  0.56300  0.22640  1.0000 0.0013330988
C   C141      1.0  0.89180  0.06300  0.27360  1.0000 0.0013330988
C   C142      1.0  0.60820  0.06300  0.22640  1.0000 0.0013330988
C   C143      1.0  0.39180  0.43700  0.72640  1.0000 0.0013330988
C   C144      1.0  0.10820  0.43700  0.77360  1.0000 0.0013330988
C   C145      1.0  0.11510  0.98860  0.75890  1.0000 -0.0998069254
C   C146      1.0  0.38490  0.98860  0.74110  1.0000 -0.0998069254
C   C147      1.0  0.61510  0.51140  0.24110  1.0000 -0.0998069254
C   C148      1.0  0.88490  0.51140  0.25890  1.0000 -0.0998069254
C   C149      1.0  0.88490  0.01140  0.24110  1.0000 -0.0998069254
C   C150      1.0  0.61510  0.01140  0.25890  1.0000 -0.0998069254
C   C151      1.0  0.38490  0.48860  0.75890  1.0000 -0.0998069254
C   C152      1.0  0.11510  0.48860  0.74110  1.0000 -0.0998069254
C   C153      1.0  0.12590  0.97650  0.80940  1.0000 -0.0830373076
C   C154      1.0  0.37410  0.97650  0.69060  1.0000 -0.0830373076
C   C155      1.0  0.62590  0.52350  0.19060  1.0000 -0.0830373076
C   C156      1.0  0.87410  0.52350  0.30940  1.0000 -0.0830373076
C   C157      1.0  0.87410  0.02350  0.19060  1.0000 -0.0830373076
C   C158      1.0  0.62590  0.02350  0.30940  1.0000 -0.0830373076
C   C159      1.0  0.37410  0.47650  0.80940  1.0000 -0.0830373076
C   C160      1.0  0.12590  0.47650  0.69060  1.0000 -0.0830373076
C   C161      1.0  0.10130  0.94920  0.67190  1.0000 0.5664500232
C   C162      1.0  0.39870  0.94920  0.82810  1.0000 0.5664500232
C   C163      1.0  0.60130  0.55080  0.32810  1.0000 0.5644031145
C   C164      1.0  0.89870  0.55080  0.17190  1.0000 0.5644031145
C   C165      1.0  0.89870  0.05080  0.32810  1.0000 0.5664500232
C   C166      1.0  0.60130  0.05080  0.17190  1.0000 0.5664500232
C   C167      1.0  0.39870  0.44920  0.67190  1.0000 0.5664500232
C   C168      1.0  0.10130  0.44920  0.82810  1.0000 0.5664500232
O   O1        1.0  0.20790  0.94080  0.92020  1.0000 -0.7701116599
O   O2        1.0  0.29210  0.94080  0.57980  1.0000 -0.7701116599
O   O3        1.0  0.70790  0.55920  0.07980  1.0000 -0.7701116599
O   O4        1.0  0.79210  0.55920  0.42020  1.0000 -0.7701116599
O   O5        1.0  0.79210  0.05920  0.07980  1.0000 -0.7701116599
O   O6        1.0  0.70790  0.05920  0.42020  1.0000 -0.7701116599
O   O7        1.0  0.29210  0.44080  0.92020  1.0000 -0.7701116599
O   O8        1.0  0.20790  0.44080  0.57980  1.0000 -0.7701116599
O   O9        1.0  0.57950  0.96400  0.91760  1.0000 -0.6482310168
O   O10       1.0  0.92050  0.96400  0.58240  1.0000 -0.6482310168
O   O11       1.0  0.07950  0.53600  0.08240  1.0000 -0.6482310168
O   O12       1.0  0.42050  0.53600  0.41760  1.0000 -0.6482310168
O   O13       1.0  0.42050  0.03600  0.08240  1.0000 -0.6482310168
O   O14       1.0  0.07950  0.03600  0.41760  1.0000 -0.6482310168
O   O15       1.0  0.92050  0.46400  0.91760  1.0000 -0.6482310168
O   O16       1.0  0.57950  0.46400  0.58240  1.0000 -0.6482310168
O   O17       1.0  0.63450  0.99760  0.99040  1.0000 -0.6890315957
O   O18       1.0  0.86550  0.99760  0.50960  1.0000 -0.6890315957
O   O19       1.0  0.13450  0.50240  0.00960  1.0000 -0.6890315957
O   O20       1.0  0.36550  0.50240  0.49040  1.0000 -0.6890315957
O   O21       1.0  0.36550  0.00240  0.00960  1.0000 -0.6890315957
O   O22       1.0  0.13450  0.00240  0.49040  1.0000 -0.6890315957
O   O23       1.0  0.86550  0.49760  0.99040  1.0000 -0.6890315957
O   O24       1.0  0.63450  0.49760  0.50960  1.0000 -0.6890315957
O   O25       1.0  0.03680  0.58650  0.93480  1.0000 -0.6482310168
O   O26       1.0  0.46320  0.58650  0.56520  1.0000 -0.6482310168
O   O27       1.0  0.53680  0.91350  0.06520  1.0000 -0.6482310168
O   O28       1.0  0.96320  0.91350  0.43480  1.0000 -0.6482310168
O   O29       1.0  0.96320  0.41350  0.06520  1.0000 -0.6482310168
O   O30       1.0  0.53680  0.41350  0.43480  1.0000 -0.6482310168
O   O31       1.0  0.46320  0.08650  0.93480  1.0000 -0.6482310168
O   O32       1.0  0.03680  0.08650  0.56520  1.0000 -0.6482310168
O   O33       1.0  0.21730  0.58050  0.92100  1.0000 -0.6135412775
O   O34       1.0  0.28270  0.58050  0.57900  1.0000 -0.6135412775
O   O35       1.0  0.71730  0.91950  0.07900  1.0000 -0.6135412775
O   O36       1.0  0.78270  0.91950  0.42100  1.0000 -0.6135412775
O   O37       1.0  0.78270  0.41950  0.07900  1.0000 -0.6135412775
O   O38       1.0  0.71730  0.41950  0.42100  1.0000 -0.6135412775
O   O39       1.0  0.28270  0.08050  0.92100  1.0000 -0.6135412775
O   O40       1.0  0.21730  0.08050  0.57900  1.0000 -0.6135412775
O   O41       1.0  0.09820  0.90200  0.64100  1.0000 -0.6690247454
O   O42       1.0  0.40180  0.90200  0.85900  1.0000 -0.6690247454
O   O43       1.0  0.59820  0.59800  0.35900  1.0000 -0.6690247454
O   O44       1.0  0.90180  0.59800  0.14100  1.0000 -0.6690247454
O   O45       1.0  0.90180  0.09800  0.35900  1.0000 -0.6690247454
O   O46       1.0  0.59820  0.09800  0.14100  1.0000 -0.6690247454
O   O47       1.0  0.40180  0.40200  0.64100  1.0000 -0.6690247454
O   O48       1.0  0.09820  0.40200  0.85900  1.0000 -0.6690247454
O   O49       1.0  0.10200  0.00780  0.65660  1.0000 -0.6319279767
O   O50       1.0  0.39800  0.00780  0.84340  1.0000 -0.6319279767
O   O51       1.0  0.60200  0.49220  0.34340  1.0000 -0.6319279767
O   O52       1.0  0.89800  0.49220  0.15660  1.0000 -0.6319279767
O   O53       1.0  0.89800  0.99220  0.34340  1.0000 -0.6319279767
O   O54       1.0  0.60200  0.99220  0.15660  1.0000 -0.6319279767
O   O55       1.0  0.39800  0.50780  0.65660  1.0000 -0.6319279767
O   O56       1.0  0.10200  0.50780  0.84340  1.0000 -0.6319279767
