# DDEC6 charges by PACMAN v1.1 (https://github.com/mtap-research/PACMAN-charge/)
data_2013[Co][nan]3[ASR]10
_chemical_formula_sum              "Co6 H104 C148 S4 N24 O24"
_cell_length_a       14.277
_cell_length_b       17.4946
_cell_length_c       17.4946
_cell_angle_alpha    103.486
_cell_angle_beta     98.0511
_cell_angle_gamma    98.0511

_symmetry_space_group_name_H-M    "P 1"
_symmetry_Int_Tables_number       1

loop_
  _symmetry_equiv_pos_as_xyz
  'x, y, z'

loop_
  _atom_site_type_symbol
  _atom_site_label
  _atom_site_symmetry_multiplicity
  _atom_site_fract_x
  _atom_site_fract_y
  _atom_site_fract_z
  _atom_site_occupancy
  _atom_site_charge
Co  Co1       1.0  0.41275  0.72596  0.06457  1.0000 0.6655828841
Co  Co2       1.0  0.58725  0.27404  0.93543  1.0000 0.6655828841
Co  Co3       1.0  0.08725  0.93543  0.27404  1.0000 0.6655828841
Co  Co4       1.0  0.91275  0.06457  0.72596  1.0000 0.6655828841
Co  Co5       1.0  0.75000  0.77895  0.22105  1.0000 0.8711922652
Co  Co6       1.0  0.25000  0.22105  0.77895  1.0000 0.8711922652
H   H1        1.0  0.00595  0.20379  0.48187  1.0000 0.1091085938
H   H2        1.0  0.99405  0.79621  0.51813  1.0000 0.1091085938
H   H3        1.0  0.49405  0.51813  0.79621  1.0000 0.1091085938
H   H4        1.0  0.50595  0.48187  0.20379  1.0000 0.1091085938
H   H5        1.0  0.90141  0.07137  0.43124  1.0000 0.1091085938
H   H6        1.0  0.09859  0.92863  0.56876  1.0000 0.1091085938
H   H7        1.0  0.59859  0.56876  0.92863  1.0000 0.1091085938
H   H8        1.0  0.40141  0.43124  0.07137  1.0000 0.1091085938
H   H9        1.0  0.74746  0.15219  0.24287  1.0000 0.1091085938
H   H10       1.0  0.25254  0.84781  0.75713  1.0000 0.1091085938
H   H11       1.0  0.75254  0.75713  0.84781  1.0000 0.1091085938
H   H12       1.0  0.24746  0.24287  0.15219  1.0000 0.1091085938
H   H13       1.0  0.85195  0.28575  0.29396  1.0000 0.1007307159
H   H14       1.0  0.14805  0.71425  0.70604  1.0000 0.0919908365
H   H15       1.0  0.64805  0.70604  0.71425  1.0000 0.1007307159
H   H16       1.0  0.35195  0.29396  0.28575  1.0000 0.1007307159
H   H17       1.0  0.87593  0.95028  0.31191  1.0000 0.1196095024
H   H18       1.0  0.12407  0.04972  0.68809  1.0000 0.1196095024
H   H19       1.0  0.62407  0.68809  0.04972  1.0000 0.1196095024
H   H20       1.0  0.37593  0.31191  0.95028  1.0000 0.1196095024
H   H21       1.0  0.62244  0.04770  0.26310  1.0000 0.1196095024
H   H22       1.0  0.37756  0.95230  0.73690  1.0000 0.1196095024
H   H23       1.0  0.87756  0.73690  0.95230  1.0000 0.1196095024
H   H24       1.0  0.12244  0.26310  0.04770  1.0000 0.1196095024
H   H25       1.0  0.57985  0.88213  0.20544  1.0000 0.1285331644
H   H26       1.0  0.42015  0.11787  0.79456  1.0000 0.1285331644
H   H27       1.0  0.92015  0.79456  0.11787  1.0000 0.1285331644
H   H28       1.0  0.07985  0.20544  0.88213  1.0000 0.1285331644
H   H29       1.0  0.44299  0.54405  0.01602  1.0000 0.1196095024
H   H30       1.0  0.55701  0.45595  0.98398  1.0000 0.1196095024
H   H31       1.0  0.05701  0.98398  0.45595  1.0000 0.1196095024
H   H32       1.0  0.94299  0.01602  0.54405  1.0000 0.1196095024
H   H33       1.0  0.36164  0.44391  0.86534  1.0000 0.1400547511
H   H34       1.0  0.63836  0.55609  0.13466  1.0000 0.1400547511
H   H35       1.0  0.13836  0.13466  0.55609  1.0000 0.1400547511
H   H36       1.0  0.86164  0.86534  0.44391  1.0000 0.1285331644
H   H37       1.0  0.30702  0.68082  0.87928  1.0000 0.1091085938
H   H38       1.0  0.69298  0.31918  0.12072  1.0000 0.1091085938
H   H39       1.0  0.19298  0.12072  0.31918  1.0000 0.1091085938
H   H40       1.0  0.80702  0.87928  0.68082  1.0000 0.1091085938
H   H41       1.0  0.22472  0.40366  0.77562  1.0000 0.1196095024
H   H42       1.0  0.77528  0.59634  0.22438  1.0000 0.1196095024
H   H43       1.0  0.27528  0.22438  0.59634  1.0000 0.1196095024
H   H44       1.0  0.72472  0.77562  0.40366  1.0000 0.1196095024
H   H45       1.0  0.13432  0.35543  0.63885  1.0000 0.1091085938
H   H46       1.0  0.86568  0.64457  0.36115  1.0000 0.1091085938
H   H47       1.0  0.36568  0.36115  0.64457  1.0000 0.1091085938
H   H48       1.0  0.63432  0.63885  0.35543  1.0000 0.1091085938
H   H49       1.0  0.19036  0.59555  0.60735  1.0000 0.0919908365
H   H50       1.0  0.80964  0.40445  0.39265  1.0000 0.0919908365
H   H51       1.0  0.30964  0.39265  0.40445  1.0000 0.0919908365
H   H52       1.0  0.69036  0.60735  0.59555  1.0000 0.0919908365
H   H53       1.0  0.28819  0.64204  0.74214  1.0000 0.1007307159
H   H54       1.0  0.71181  0.35796  0.25786  1.0000 0.1007307159
H   H55       1.0  0.21181  0.25786  0.35796  1.0000 0.1007307159
H   H56       1.0  0.78819  0.74214  0.64204  1.0000 0.1007307159
H   H57       1.0  0.02914  0.33010  0.54099  1.0000 0.1091085938
H   H58       1.0  0.97086  0.66990  0.45901  1.0000 0.1091085938
H   H59       1.0  0.47086  0.45901  0.66990  1.0000 0.1091085938
H   H60       1.0  0.52914  0.54099  0.33010  1.0000 0.1091085938
H   H61       1.0  0.00150  0.35194  0.29830  1.0000 0.1007307159
H   H62       1.0  0.99850  0.64806  0.70170  1.0000 0.1007307159
H   H63       1.0  0.49850  0.70170  0.64806  1.0000 0.1007307159
H   H64       1.0  0.50150  0.29830  0.35194  1.0000 0.1007307159
H   H65       1.0  0.16986  0.54322  0.48961  1.0000 0.1007307159
H   H66       1.0  0.83014  0.45678  0.51039  1.0000 0.1007307159
H   H67       1.0  0.33014  0.51039  0.45678  1.0000 0.1007307159
H   H68       1.0  0.66986  0.48961  0.54322  1.0000 0.1007307159
H   H69       1.0  0.17202  0.40586  0.25781  1.0000 0.1007307159
H   H70       1.0  0.82798  0.59414  0.74219  1.0000 0.1007307159
H   H71       1.0  0.32798  0.74219  0.59414  1.0000 0.1007307159
H   H72       1.0  0.67202  0.25781  0.40586  1.0000 0.1007307159
H   H73       1.0  0.22358  0.48809  0.16780  1.0000 0.1091085938
H   H74       1.0  0.77642  0.51191  0.83220  1.0000 0.1091085938
H   H75       1.0  0.27642  0.83220  0.51191  1.0000 0.1091085938
H   H76       1.0  0.72358  0.16780  0.48809  1.0000 0.1091085938
H   H77       1.0  0.11337  0.68660  0.30250  1.0000 0.1196095024
H   H78       1.0  0.88663  0.31340  0.69750  1.0000 0.1196095024
H   H79       1.0  0.38663  0.69750  0.31340  1.0000 0.1196095024
H   H80       1.0  0.61337  0.30250  0.68660  1.0000 0.1196095024
H   H81       1.0  0.06492  0.60513  0.39258  1.0000 0.1007307159
H   H82       1.0  0.93508  0.39487  0.60742  1.0000 0.1007307159
H   H83       1.0  0.43508  0.60742  0.39487  1.0000 0.1007307159
H   H84       1.0  0.56492  0.39258  0.60513  1.0000 0.1007307159
H   H85       1.0  0.34464  0.60122  0.16624  1.0000 0.1091085938
H   H86       1.0  0.65536  0.39878  0.83376  1.0000 0.1091085938
H   H87       1.0  0.15536  0.83376  0.39878  1.0000 0.1091085938
H   H88       1.0  0.84464  0.16624  0.60122  1.0000 0.1091085938
H   H89       1.0  0.21465  0.77318  0.07466  1.0000 0.1196095024
H   H90       1.0  0.78535  0.22682  0.92534  1.0000 0.1196095024
H   H91       1.0  0.28535  0.92534  0.22682  1.0000 0.1196095024
H   H92       1.0  0.71465  0.07466  0.77318  1.0000 0.1196095024
H   H93       1.0  0.09664  0.71315  0.16998  1.0000 0.1400547511
H   H94       1.0  0.90336  0.28685  0.83002  1.0000 0.1400547511
H   H95       1.0  0.40336  0.83002  0.28685  1.0000 0.1400547511
H   H96       1.0  0.59664  0.16998  0.71315  1.0000 0.1450974978
H   H97       1.0  0.33078  0.92528  0.95305  1.0000 0.1007307159
H   H98       1.0  0.66922  0.07472  0.04695  1.0000 0.1007307159
H   H99       1.0  0.16922  0.04695  0.07472  1.0000 0.1007307159
H   H100      1.0  0.83078  0.95305  0.92528  1.0000 0.1007307159
H   H101      1.0  0.62374  0.93859  0.06851  1.0000 0.1091085938
H   H102      1.0  0.37626  0.06141  0.93149  1.0000 0.1007307159
H   H103      1.0  0.87626  0.93149  0.06141  1.0000 0.1007307159
H   H104      1.0  0.12374  0.06851  0.93859  1.0000 0.1007307159
C   C1        1.0  0.93979  0.25449  0.38985  1.0000 0.0581161733
C   C2        1.0  0.06021  0.74551  0.61015  1.0000 0.0581161733
C   C3        1.0  0.56021  0.61015  0.74551  1.0000 0.0581161733
C   C4        1.0  0.43979  0.38985  0.25449  1.0000 0.0581161733
C   C5        1.0  0.95053  0.19310  0.42858  1.0000 -0.0988436952
C   C6        1.0  0.04947  0.80690  0.57142  1.0000 -0.0988436952
C   C7        1.0  0.54947  0.57142  0.80690  1.0000 -0.0988436952
C   C8        1.0  0.45053  0.42858  0.19310  1.0000 -0.0988436952
C   C9        1.0  0.89136  0.11805  0.40043  1.0000 -0.1603001785
C   C10       1.0  0.10864  0.88195  0.59957  1.0000 -0.1603001785
C   C11       1.0  0.60864  0.59957  0.88195  1.0000 -0.1603001785
C   C12       1.0  0.39136  0.40043  0.11805  1.0000 -0.1603001785
C   C13       1.0  0.81973  0.10199  0.33223  1.0000 0.1625497875
C   C14       1.0  0.18027  0.89801  0.66777  1.0000 0.1625497875
C   C15       1.0  0.68027  0.66777  0.89801  1.0000 0.1625497875
C   C16       1.0  0.31973  0.33223  0.10199  1.0000 0.1625497875
C   C17       1.0  0.80450  0.16341  0.29519  1.0000 -0.1797959458
C   C18       1.0  0.19550  0.83659  0.70481  1.0000 -0.1797959458
C   C19       1.0  0.69550  0.70481  0.83659  1.0000 -0.1797959458
C   C20       1.0  0.30450  0.29519  0.16341  1.0000 -0.1797959458
C   C21       1.0  0.86410  0.23834  0.32379  1.0000 -0.1167909243
C   C22       1.0  0.13590  0.76166  0.67621  1.0000 -0.1167909243
C   C23       1.0  0.63590  0.67621  0.76166  1.0000 -0.1167909243
C   C24       1.0  0.36410  0.32379  0.23834  1.0000 -0.1167909243
C   C25       1.0  0.80112  0.95303  0.29156  1.0000 0.1091085938
C   C26       1.0  0.19888  0.04697  0.70844  1.0000 0.1091085938
C   C27       1.0  0.69888  0.70844  0.04697  1.0000 0.1091085938
C   C28       1.0  0.30112  0.29156  0.95303  1.0000 0.1091085938
C   C29       1.0  0.66805  0.00291  0.26324  1.0000 -0.1086612773
C   C30       1.0  0.33195  0.99709  0.73676  1.0000 -0.1086612773
C   C31       1.0  0.83195  0.73676  0.99709  1.0000 -0.1086612773
C   C32       1.0  0.16805  0.26324  0.00291  1.0000 -0.1086612773
C   C33       1.0  0.64792  0.92110  0.23478  1.0000 -0.0176098385
C   C34       1.0  0.35208  0.07890  0.76522  1.0000 -0.0176098385
C   C35       1.0  0.85208  0.76522  0.07890  1.0000 -0.0176098385
C   C36       1.0  0.14792  0.23478  0.92110  1.0000 -0.0176098385
C   C37       1.0  0.40230  0.55703  0.96475  1.0000 -0.0325444267
C   C38       1.0  0.59770  0.44297  0.03525  1.0000 -0.0325444267
C   C39       1.0  0.09770  0.03525  0.44297  1.0000 -0.0325444267
C   C40       1.0  0.90230  0.96475  0.55703  1.0000 -0.0325444267
C   C41       1.0  0.36080  0.50680  0.89103  1.0000 -0.0988436952
C   C42       1.0  0.63920  0.49320  0.10897  1.0000 -0.0988436952
C   C43       1.0  0.13920  0.10897  0.49320  1.0000 -0.0988436952
C   C44       1.0  0.86080  0.89103  0.50680  1.0000 -0.0988436952
C   C45       1.0  0.33403  0.63062  0.89566  1.0000 0.0808914447
C   C46       1.0  0.66597  0.36938  0.10434  1.0000 0.0919908365
C   C47       1.0  0.16597  0.10434  0.36938  1.0000 0.0919908365
C   C48       1.0  0.83403  0.89566  0.63062  1.0000 0.0808914447
C   C49       1.0  0.26182  0.52635  0.76840  1.0000 0.1625497875
C   C50       1.0  0.73818  0.47365  0.23160  1.0000 0.1625497875
C   C51       1.0  0.23818  0.23160  0.47365  1.0000 0.1625497875
C   C52       1.0  0.76182  0.76840  0.52635  1.0000 0.1625497875
C   C53       1.0  0.21761  0.44600  0.73881  1.0000 -0.1603001785
C   C54       1.0  0.78239  0.55400  0.26119  1.0000 -0.1603001785
C   C55       1.0  0.28239  0.26119  0.55400  1.0000 -0.1603001785
C   C56       1.0  0.71761  0.73881  0.44600  1.0000 -0.1603001785
C   C57       1.0  0.16568  0.41908  0.66100  1.0000 -0.0897264096
C   C58       1.0  0.83432  0.58092  0.33900  1.0000 -0.0897264096
C   C59       1.0  0.33432  0.33900  0.58092  1.0000 -0.0897264096
C   C60       1.0  0.66568  0.66100  0.41908  1.0000 -0.0897264096
C   C61       1.0  0.15484  0.47132  0.61118  1.0000 0.0688311662
C   C62       1.0  0.84516  0.52868  0.38882  1.0000 0.0688311662
C   C63       1.0  0.34516  0.38882  0.52868  1.0000 0.0688311662
C   C64       1.0  0.65484  0.61118  0.47132  1.0000 0.0688311662
C   C65       1.0  0.19769  0.55246  0.64336  1.0000 -0.1086612773
C   C66       1.0  0.80231  0.44754  0.35664  1.0000 -0.1086612773
C   C67       1.0  0.30231  0.35664  0.44754  1.0000 -0.1086612773
C   C68       1.0  0.69769  0.64336  0.55246  1.0000 -0.1086612773
C   C69       1.0  0.25154  0.57967  0.72043  1.0000 -0.1797959458
C   C70       1.0  0.74846  0.42033  0.27957  1.0000 -0.1797959458
C   C71       1.0  0.24846  0.27957  0.42033  1.0000 -0.1797959458
C   C72       1.0  0.75154  0.72043  0.57967  1.0000 -0.1797959458
C   C73       1.0  0.10625  0.44044  0.52655  1.0000 0.0808914447
C   C74       1.0  0.89375  0.55956  0.47345  1.0000 0.0808914447
C   C75       1.0  0.39375  0.47345  0.55956  1.0000 0.0808914447
C   C76       1.0  0.60625  0.52655  0.44044  1.0000 0.0808914447
C   C77       1.0  0.04608  0.36491  0.49865  1.0000 -0.1797959458
C   C78       1.0  0.95392  0.63509  0.50135  1.0000 -0.1797959458
C   C79       1.0  0.45392  0.50135  0.63509  1.0000 -0.1797959458
C   C80       1.0  0.54608  0.49865  0.36491  1.0000 -0.1797959458
C   C81       1.0  0.00560  0.33307  0.41731  1.0000 0.0688311662
C   C82       1.0  0.99440  0.66693  0.58269  1.0000 0.0688311662
C   C83       1.0  0.49440  0.58269  0.66693  1.0000 0.0688311662
C   C84       1.0  0.50560  0.41731  0.33307  1.0000 0.0688311662
C   C85       1.0  0.02916  0.37679  0.36223  1.0000 -0.1867742651
C   C86       1.0  0.97084  0.62321  0.63777  1.0000 -0.1867742651
C   C87       1.0  0.47084  0.63777  0.62321  1.0000 -0.1867742651
C   C88       1.0  0.52916  0.36223  0.37679  1.0000 -0.1867742651
C   C89       1.0  0.08750  0.45287  0.38865  1.0000 0.0808914447
C   C90       1.0  0.91250  0.54713  0.61135  1.0000 0.0808914447
C   C91       1.0  0.41250  0.61135  0.54713  1.0000 0.0808914447
C   C92       1.0  0.58750  0.38865  0.45287  1.0000 0.0808914447
C   C93       1.0  0.12347  0.48451  0.47058  1.0000 -0.1714632474
C   C94       1.0  0.87653  0.51549  0.52942  1.0000 -0.1714632474
C   C95       1.0  0.37653  0.52942  0.51549  1.0000 -0.1714632474
C   C96       1.0  0.62347  0.47058  0.48451  1.0000 -0.1714632474
C   C97       1.0  0.11485  0.49984  0.33209  1.0000 0.0581161733
C   C98       1.0  0.88515  0.50016  0.66791  1.0000 0.0581161733
C   C99       1.0  0.38515  0.66791  0.50016  1.0000 0.0581161733
C   C100      1.0  0.61485  0.33209  0.49984  1.0000 0.0581161733
C   C101      1.0  0.15895  0.46740  0.26776  1.0000 -0.1167909243
C   C102      1.0  0.84105  0.53260  0.73224  1.0000 -0.1167909243
C   C103      1.0  0.34105  0.73224  0.53260  1.0000 -0.1167909243
C   C104      1.0  0.65895  0.26776  0.46740  1.0000 -0.1167909243
C   C105      1.0  0.18860  0.51355  0.21720  1.0000 -0.1714632474
C   C106      1.0  0.81140  0.48645  0.78280  1.0000 -0.1714632474
C   C107      1.0  0.31140  0.78280  0.48645  1.0000 -0.1714632474
C   C108      1.0  0.68860  0.21720  0.51355  1.0000 -0.1714632474
C   C109      1.0  0.17409  0.59279  0.23020  1.0000 0.1625497875
C   C110      1.0  0.82591  0.40721  0.76980  1.0000 0.1625497875
C   C111      1.0  0.32591  0.76980  0.40721  1.0000 0.1625497875
C   C112      1.0  0.67409  0.23020  0.59279  1.0000 0.1625497875
C   C113      1.0  0.12795  0.62561  0.29253  1.0000 -0.1491706782
C   C114      1.0  0.87205  0.37439  0.70747  1.0000 -0.1491706782
C   C115      1.0  0.37205  0.70747  0.37439  1.0000 -0.1491706782
C   C116      1.0  0.62795  0.29253  0.62561  1.0000 -0.1491706782
C   C117      1.0  0.09992  0.57926  0.34321  1.0000 -0.0897264096
C   C118      1.0  0.90008  0.42074  0.65679  1.0000 -0.0897264096
C   C119      1.0  0.40008  0.65679  0.42074  1.0000 -0.0897264096
C   C120      1.0  0.59992  0.34321  0.57926  1.0000 -0.0897264096
C   C121      1.0  0.29280  0.63779  0.15085  1.0000 0.0808914447
C   C122      1.0  0.70720  0.36221  0.84915  1.0000 0.0808914447
C   C123      1.0  0.20720  0.84915  0.36221  1.0000 0.0808914447
C   C124      1.0  0.79280  0.15085  0.63779  1.0000 0.0808914447
C   C125      1.0  0.22259  0.72759  0.10692  1.0000 -0.0404367634
C   C126      1.0  0.77741  0.27241  0.89308  1.0000 -0.0404367634
C   C127      1.0  0.27741  0.89308  0.27241  1.0000 -0.0404367634
C   C128      1.0  0.72259  0.10692  0.72759  1.0000 -0.0404367634
C   C129      1.0  0.16377  0.69772  0.15281  1.0000 -0.0897264096
C   C130      1.0  0.83623  0.30228  0.84719  1.0000 -0.0897264096
C   C131      1.0  0.33623  0.84719  0.30228  1.0000 -0.0897264096
C   C132      1.0  0.66377  0.15281  0.69772  1.0000 -0.0897264096
C   C133      1.0  0.45092  0.84411  0.02598  1.0000 0.5183410532
C   C134      1.0  0.54908  0.15589  0.97402  1.0000 0.5183410532
C   C135      1.0  0.04908  0.97402  0.15589  1.0000 0.5183410532
C   C136      1.0  0.95092  0.02598  0.84411  1.0000 0.5183410532
C   C137      1.0  0.47496  0.92302  0.01121  1.0000 -0.0325444267
C   C138      1.0  0.52504  0.07698  0.98879  1.0000 -0.0325444267
C   C139      1.0  0.02504  0.98879  0.07698  1.0000 -0.0325444267
C   C140      1.0  0.97496  0.01121  0.92302  1.0000 -0.0325444267
C   C141      1.0  0.40456  0.95841  0.97355  1.0000 -0.0988436952
C   C142      1.0  0.59544  0.04159  0.02645  1.0000 -0.0988436952
C   C143      1.0  0.09544  0.02645  0.04159  1.0000 -0.0988436952
C   C144      1.0  0.90456  0.97355  0.95841  1.0000 -0.0988436952
C   C145      1.0  0.57054  0.96578  0.03781  1.0000 -0.0988436952
C   C146      1.0  0.42946  0.03422  0.96219  1.0000 -0.0988436952
C   C147      1.0  0.92946  0.96219  0.03422  1.0000 -0.0988436952
C   C148      1.0  0.07054  0.03781  0.96578  1.0000 -0.0988436952
S   S1        1.0  0.53348  0.69131  0.20363  1.0000 1.3766949958
S   S2        1.0  0.46652  0.30869  0.79637  1.0000 1.3766949958
S   S3        1.0  0.96652  0.79637  0.30869  1.0000 1.3766949958
S   S4        1.0  0.03348  0.20363  0.69131  1.0000 1.3766949958
N   N1        1.0  0.73144  0.88983  0.25218  1.0000 -0.3297812082
N   N2        1.0  0.26856  0.11017  0.74782  1.0000 -0.3297812082
N   N3        1.0  0.76856  0.74782  0.11017  1.0000 -0.3297812082
N   N4        1.0  0.23144  0.25218  0.88983  1.0000 -0.3297812082
N   N5        1.0  0.76518  0.02302  0.29945  1.0000 0.009679109
N   N6        1.0  0.23482  0.97698  0.70055  1.0000 0.009679109
N   N7        1.0  0.73482  0.70055  0.97698  1.0000 0.009679109
N   N8        1.0  0.26518  0.29945  0.02302  1.0000 0.009679109
N   N9        1.0  0.38533  0.63443  0.96711  1.0000 -0.2517427914
N   N10       1.0  0.61467  0.36557  0.03289  1.0000 -0.2517427914
N   N11       1.0  0.11467  0.03289  0.36557  1.0000 -0.2517427914
N   N12       1.0  0.88533  0.96711  0.63443  1.0000 -0.2517427914
N   N13       1.0  0.31704  0.55384  0.84740  1.0000 0.009679109
N   N14       1.0  0.68296  0.44616  0.15260  1.0000 0.009679109
N   N15       1.0  0.18296  0.15260  0.44616  1.0000 0.009679109
N   N16       1.0  0.81704  0.84740  0.55384  1.0000 0.009679109
N   N17       1.0  0.30373  0.69099  0.10675  1.0000 -0.2635785454
N   N18       1.0  0.69627  0.30901  0.89325  1.0000 -0.2635785454
N   N19       1.0  0.19627  0.89325  0.30901  1.0000 -0.2635785454
N   N20       1.0  0.80373  0.10675  0.69099  1.0000 -0.2635785454
N   N21       1.0  0.20839  0.64046  0.18007  1.0000 0.009679109
N   N22       1.0  0.79161  0.35954  0.81993  1.0000 0.009679109
N   N23       1.0  0.29161  0.81993  0.35954  1.0000 0.009679109
N   N24       1.0  0.70839  0.18007  0.64046  1.0000 0.009679109
O   O1        1.0  0.51620  0.80542  0.04906  1.0000 -0.4674965256
O   O2        1.0  0.48380  0.19458  0.95094  1.0000 -0.4674965256
O   O3        1.0  0.98380  0.95094  0.19458  1.0000 -0.4674965256
O   O4        1.0  0.01620  0.04906  0.80542  1.0000 -0.4674965256
O   O5        1.0  0.36247  0.80850  0.02120  1.0000 -0.4917109795
O   O6        1.0  0.63753  0.19150  0.97880  1.0000 -0.4917109795
O   O7        1.0  0.13753  0.97880  0.19150  1.0000 -0.4917109795
O   O8        1.0  0.86247  0.02120  0.80850  1.0000 -0.4917109795
O   O9        1.0  0.49190  0.66481  0.11375  1.0000 -0.6025524401
O   O10       1.0  0.50810  0.33519  0.88625  1.0000 -0.6025524401
O   O11       1.0  0.00810  0.88625  0.33519  1.0000 -0.6025524401
O   O12       1.0  0.99190  0.11375  0.66481  1.0000 -0.6025524401
O   O13       1.0  0.64178  0.69728  0.20714  1.0000 -0.6509697549
O   O14       1.0  0.35822  0.30272  0.79286  1.0000 -0.6509697549
O   O15       1.0  0.85822  0.79286  0.30272  1.0000 -0.6509697549
O   O16       1.0  0.14178  0.20714  0.69728  1.0000 -0.6509697549
O   O17       1.0  0.50190  0.62680  0.24017  1.0000 -0.624830436
O   O18       1.0  0.49810  0.37320  0.75983  1.0000 -0.624830436
O   O19       1.0  0.99810  0.75983  0.37320  1.0000 -0.624830436
O   O20       1.0  0.00190  0.24017  0.62680  1.0000 -0.6252035611
O   O21       1.0  0.50889  0.76904  0.23866  1.0000 -0.640105825
O   O22       1.0  0.49111  0.23096  0.76134  1.0000 -0.640105825
O   O23       1.0  0.99111  0.76134  0.23096  1.0000 -0.640105825
O   O24       1.0  0.00889  0.23866  0.76904  1.0000 -0.640105825
