# DDEC6 charges by PACMAN v1.1 (https://github.com/mtap-research/PACMAN-charge/)
data_2013[Cd][nan]3[ASR]2
_chemical_formula_sum              "Cd8 H64 C104 N16 O48"
_cell_length_a       14.2941
_cell_length_b       16.7256
_cell_length_c       15.4016
_cell_angle_alpha    90
_cell_angle_beta     115.904
_cell_angle_gamma    90

_symmetry_space_group_name_H-M    "P 1"
_symmetry_Int_Tables_number       1

loop_
  _symmetry_equiv_pos_as_xyz
  'x, y, z'

loop_
  _atom_site_type_symbol
  _atom_site_label
  _atom_site_symmetry_multiplicity
  _atom_site_fract_x
  _atom_site_fract_y
  _atom_site_fract_z
  _atom_site_occupancy
  _atom_site_charge
Cd  Cd1       1.0  0.12409  0.36694  0.27632  1.0000 0.9103725121
Cd  Cd2       1.0  0.87591  0.63306  0.72368  1.0000 0.9103725121
Cd  Cd3       1.0  0.37591  0.86694  0.22368  1.0000 0.9103725121
Cd  Cd4       1.0  0.62409  0.13306  0.77632  1.0000 0.9103725121
Cd  Cd5       1.0  0.16950  0.62702  0.79554  1.0000 0.9103725121
Cd  Cd6       1.0  0.83050  0.37298  0.20446  1.0000 0.9103725121
Cd  Cd7       1.0  0.33050  0.12702  0.70446  1.0000 0.9103725121
Cd  Cd8       1.0  0.66950  0.87298  0.29554  1.0000 0.9103725121
H   H1        1.0  0.31834  0.48092  0.34850  1.0000 0.1164197565
H   H2        1.0  0.68166  0.51908  0.65150  1.0000 0.1164197565
H   H3        1.0  0.18166  0.98092  0.15150  1.0000 0.1164197565
H   H4        1.0  0.81834  0.01908  0.84850  1.0000 0.1164197565
H   H5        1.0  0.56755  0.33516  0.79110  1.0000 0.0746778638
H   H6        1.0  0.43245  0.66484  0.20890  1.0000 0.0746778638
H   H7        1.0  0.93245  0.83516  0.70890  1.0000 0.0746778638
H   H8        1.0  0.06755  0.16484  0.29110  1.0000 0.0746778638
H   H9        1.0  0.45699  0.33863  0.67373  1.0000 0.0760934649
H   H10       1.0  0.54301  0.66137  0.32627  1.0000 0.0760934649
H   H11       1.0  0.04301  0.83863  0.82627  1.0000 0.0760934649
H   H12       1.0  0.95699  0.16137  0.17373  1.0000 0.0760934649
H   H13       1.0  0.35300  0.58049  0.10215  1.0000 0.1292316334
H   H14       1.0  0.64700  0.41951  0.89785  1.0000 0.1292316334
H   H15       1.0  0.14700  0.08049  0.39785  1.0000 0.1292316334
H   H16       1.0  0.85300  0.91951  0.60215  1.0000 0.1292316334
H   H17       1.0  0.36353  0.51595  0.84241  1.0000 0.1094247491
H   H18       1.0  0.63647  0.48405  0.15759  1.0000 0.1094247491
H   H19       1.0  0.13647  0.01595  0.65759  1.0000 0.1094247491
H   H20       1.0  0.86353  0.98405  0.34241  1.0000 0.1094247491
H   H21       1.0  0.34918  0.40964  0.57860  1.0000 0.1292316334
H   H22       1.0  0.65082  0.59036  0.42140  1.0000 0.1292316334
H   H23       1.0  0.15082  0.90964  0.92140  1.0000 0.1292316334
H   H24       1.0  0.84918  0.09036  0.07860  1.0000 0.1292316334
H   H25       1.0  0.10112  0.55418  0.58014  1.0000 0.0984307115
H   H26       1.0  0.89888  0.44582  0.41986  1.0000 0.0984307115
H   H27       1.0  0.39888  0.05418  0.91986  1.0000 0.0984307115
H   H28       1.0  0.60112  0.94582  0.08014  1.0000 0.0984307115
H   H29       1.0  0.07654  0.67191  0.47888  1.0000 0.1292316334
H   H30       1.0  0.92346  0.32809  0.52112  1.0000 0.1292316334
H   H31       1.0  0.42346  0.17191  0.02112  1.0000 0.1292316334
H   H32       1.0  0.57654  0.82809  0.97888  1.0000 0.1292316334
H   H33       1.0  0.15405  0.69923  0.36117  1.0000 0.0440728447
H   H34       1.0  0.84595  0.30077  0.63883  1.0000 0.0440728447
H   H35       1.0  0.34595  0.19923  0.13883  1.0000 0.0440728447
H   H36       1.0  0.65405  0.80077  0.86117  1.0000 0.0440728447
H   H37       1.0  0.08598  0.60515  0.36375  1.0000 0.0941539553
H   H38       1.0  0.91402  0.39485  0.63625  1.0000 0.0941539553
H   H39       1.0  0.41402  0.10515  0.13625  1.0000 0.0941539553
H   H40       1.0  0.58598  0.89485  0.86375  1.0000 0.0941539553
H   H41       1.0  0.00592  0.62452  0.05477  1.0000 0.1552382276
H   H42       1.0  0.99408  0.37548  0.94523  1.0000 0.1552382276
H   H43       1.0  0.49408  0.12452  0.44523  1.0000 0.1552382276
H   H44       1.0  0.50592  0.87548  0.55477  1.0000 0.1552382276
H   H45       1.0  0.22031  0.79947  0.03044  1.0000 0.0984307115
H   H46       1.0  0.77969  0.20053  0.96956  1.0000 0.0984307115
H   H47       1.0  0.27969  0.29947  0.46956  1.0000 0.0984307115
H   H48       1.0  0.72031  0.70053  0.53044  1.0000 0.0984307115
H   H49       1.0  0.25146  0.73834  0.30253  1.0000 0.1094247491
H   H50       1.0  0.74854  0.26166  0.69747  1.0000 0.1094247491
H   H51       1.0  0.24854  0.23834  0.19747  1.0000 0.1094247491
H   H52       1.0  0.75146  0.76166  0.80253  1.0000 0.1094247491
H   H53       1.0  0.83525  0.79187  0.23107  1.0000 0.1164197565
H   H54       1.0  0.16475  0.20813  0.76893  1.0000 0.1164197565
H   H55       1.0  0.66475  0.29187  0.26893  1.0000 0.1164197565
H   H56       1.0  0.33525  0.70813  0.73107  1.0000 0.1164197565
H   H57       1.0  0.82330  0.79942  0.49711  1.0000 0.0984307115
H   H58       1.0  0.17670  0.20058  0.50289  1.0000 0.0984307115
H   H59       1.0  0.67670  0.29942  0.00289  1.0000 0.0984307115
H   H60       1.0  0.32330  0.70058  0.99711  1.0000 0.0984307115
H   H61       1.0  0.09325  0.43271  0.06939  1.0000 0.0984307115
H   H62       1.0  0.90675  0.56729  0.93061  1.0000 0.0984307115
H   H63       1.0  0.40675  0.93271  0.43061  1.0000 0.0984307115
H   H64       1.0  0.59325  0.06729  0.56939  1.0000 0.0984307115
C   C1        1.0  0.29212  0.48950  0.27082  1.0000 -0.0179218177
C   C2        1.0  0.70788  0.51050  0.72918  1.0000 -0.0179218177
C   C3        1.0  0.20788  0.98950  0.22918  1.0000 -0.0179218177
C   C4        1.0  0.79212  0.01050  0.77082  1.0000 -0.0179218177
C   C5        1.0  0.34787  0.53703  0.23467  1.0000 0.2122019322
C   C6        1.0  0.65213  0.46297  0.76533  1.0000 0.2122019322
C   C7        1.0  0.15213  0.03703  0.26533  1.0000 0.2122019322
C   C8        1.0  0.84787  0.96297  0.73467  1.0000 0.2122019322
C   C9        1.0  0.51221  0.37419  0.73445  1.0000 0.1665000484
C   C10       1.0  0.48779  0.62581  0.26555  1.0000 0.1665000484
C   C11       1.0  0.98779  0.87419  0.76555  1.0000 0.1665000484
C   C12       1.0  0.01221  0.12581  0.23445  1.0000 0.1665000484
C   C13       1.0  0.31185  0.54547  0.13458  1.0000 -0.1706523954
C   C14       1.0  0.68815  0.45453  0.86542  1.0000 -0.1706523954
C   C15       1.0  0.18815  0.04547  0.36542  1.0000 -0.1706523954
C   C16       1.0  0.81185  0.95453  0.63458  1.0000 -0.1706523954
C   C17       1.0  0.21924  0.50755  0.07330  1.0000 -0.0419684819
C   C18       1.0  0.78076  0.49245  0.92670  1.0000 -0.0419684819
C   C19       1.0  0.28076  0.00755  0.42670  1.0000 -0.0419684819
C   C20       1.0  0.71924  0.99245  0.57330  1.0000 -0.0419684819
C   C21       1.0  0.17209  0.51712  0.96399  1.0000 0.5676374601
C   C22       1.0  0.82791  0.48288  0.03601  1.0000 0.5676374601
C   C23       1.0  0.32791  0.01712  0.53601  1.0000 0.5676374601
C   C24       1.0  0.67209  0.98288  0.46399  1.0000 0.5676374601
C   C25       1.0  0.32375  0.50453  0.76460  1.0000 -0.0179218177
C   C26       1.0  0.67625  0.49547  0.23540  1.0000 -0.0179218177
C   C27       1.0  0.17625  0.00453  0.73540  1.0000 -0.0179218177
C   C28       1.0  0.82375  0.99547  0.26460  1.0000 -0.0179218177
C   C29       1.0  0.36809  0.45492  0.71913  1.0000 0.2227723763
C   C30       1.0  0.63191  0.54508  0.28087  1.0000 0.2227723763
C   C31       1.0  0.13191  0.95492  0.78087  1.0000 0.2227723763
C   C32       1.0  0.86809  0.04508  0.21913  1.0000 0.2227723763
C   C33       1.0  0.31694  0.44484  0.61893  1.0000 -0.1754248871
C   C34       1.0  0.68306  0.55516  0.38107  1.0000 -0.1754248871
C   C35       1.0  0.18306  0.94484  0.88107  1.0000 -0.1754248871
C   C36       1.0  0.81694  0.05516  0.11893  1.0000 -0.1754248871
C   C37       1.0  0.21945  0.48043  0.56773  1.0000 -0.0499919985
C   C38       1.0  0.78055  0.51957  0.43227  1.0000 -0.0499919985
C   C39       1.0  0.28055  0.98043  0.93227  1.0000 -0.0499919985
C   C40       1.0  0.71945  0.01957  0.06773  1.0000 -0.0499919985
C   C41       1.0  0.15679  0.46754  0.45981  1.0000 0.5676374601
C   C42       1.0  0.84321  0.53246  0.54019  1.0000 0.5676374601
C   C43       1.0  0.34321  0.96754  0.04019  1.0000 0.5676374601
C   C44       1.0  0.65679  0.03246  0.95981  1.0000 0.5676374601
C   C45       1.0  0.17805  0.52720  0.61798  1.0000 0.05838024
C   C46       1.0  0.82195  0.47280  0.38202  1.0000 0.05838024
C   C47       1.0  0.32195  0.02720  0.88202  1.0000 0.05838024
C   C48       1.0  0.67805  0.97280  0.11798  1.0000 0.05838024
C   C49       1.0  0.99959  0.71255  0.60595  1.0000 0.5958433912
C   C50       1.0  0.00041  0.28745  0.39405  1.0000 0.5958433912
C   C51       1.0  0.50041  0.21255  0.89405  1.0000 0.5958433912
C   C52       1.0  0.49959  0.78745  0.10595  1.0000 0.5958433912
C   C53       1.0  0.95710  0.73471  0.50051  1.0000 -0.0348062909
C   C54       1.0  0.04290  0.26529  0.49949  1.0000 -0.0348062909
C   C55       1.0  0.54290  0.23471  0.99949  1.0000 -0.0348062909
C   C56       1.0  0.45710  0.76529  0.00051  1.0000 -0.0348062909
C   C57       1.0  0.00605  0.70794  0.44457  1.0000 -0.1935806911
C   C58       1.0  0.99395  0.29206  0.55543  1.0000 -0.1935806911
C   C59       1.0  0.49395  0.20794  0.05543  1.0000 -0.1935806911
C   C60       1.0  0.50605  0.79206  0.94457  1.0000 -0.1935806911
C   C61       1.0  0.95992  0.72634  0.34580  1.0000 0.2268400357
C   C62       1.0  0.04008  0.27366  0.65420  1.0000 0.2268400357
C   C63       1.0  0.54008  0.22634  0.15420  1.0000 0.2268400357
C   C64       1.0  0.45992  0.77366  0.84580  1.0000 0.2268400357
C   C65       1.0  0.09073  0.65621  0.32025  1.0000 0.1758967058
C   C66       1.0  0.90927  0.34379  0.67975  1.0000 0.1758967058
C   C67       1.0  0.40927  0.15621  0.17975  1.0000 0.1758967058
C   C68       1.0  0.59073  0.84379  0.82025  1.0000 0.1758967058
C   C69       1.0  0.12577  0.67447  0.18464  1.0000 0.2122019322
C   C70       1.0  0.87423  0.32553  0.81536  1.0000 0.2122019322
C   C71       1.0  0.37423  0.17447  0.31536  1.0000 0.2122019322
C   C72       1.0  0.62577  0.82553  0.68464  1.0000 0.2122019322
C   C73       1.0  0.07105  0.66684  0.08447  1.0000 -0.1440920516
C   C74       1.0  0.92895  0.33316  0.91553  1.0000 -0.1440920516
C   C75       1.0  0.42895  0.16684  0.41553  1.0000 -0.1440920516
C   C76       1.0  0.57105  0.83316  0.58447  1.0000 -0.1440920516
C   C77       1.0  0.10465  0.71193  0.02684  1.0000 -0.0499919985
C   C78       1.0  0.89535  0.28807  0.97316  1.0000 -0.0499919985
C   C79       1.0  0.39535  0.21193  0.47316  1.0000 -0.0499919985
C   C80       1.0  0.60465  0.78807  0.52684  1.0000 -0.0499919985
C   C81       1.0  0.18936  0.76388  0.07162  1.0000 0.0522398369
C   C82       1.0  0.81064  0.23612  0.92838  1.0000 0.0522398369
C   C83       1.0  0.31064  0.26388  0.42838  1.0000 0.0522398369
C   C84       1.0  0.68936  0.73612  0.57162  1.0000 0.0522398369
C   C85       1.0  0.20756  0.72942  0.22466  1.0000 -0.0499919985
C   C86       1.0  0.79244  0.27058  0.77534  1.0000 -0.0499919985
C   C87       1.0  0.29244  0.22942  0.27534  1.0000 -0.0499919985
C   C88       1.0  0.70756  0.77058  0.72466  1.0000 -0.0499919985
C   C89       1.0  0.94430  0.29712  0.08159  1.0000 0.5884563492
C   C90       1.0  0.05570  0.70288  0.91841  1.0000 0.5884563492
C   C91       1.0  0.55570  0.79712  0.41841  1.0000 0.5884563492
C   C92       1.0  0.44430  0.20288  0.58159  1.0000 0.5884563492
C   C93       1.0  0.87028  0.77425  0.30741  1.0000 -0.0179218177
C   C94       1.0  0.12972  0.22575  0.69259  1.0000 -0.0179218177
C   C95       1.0  0.62972  0.27425  0.19259  1.0000 -0.0179218177
C   C96       1.0  0.37028  0.72575  0.80741  1.0000 -0.0179218177
C   C97       1.0  0.86518  0.77916  0.45650  1.0000 0.05838024
C   C98       1.0  0.13482  0.22084  0.54350  1.0000 0.05838024
C   C99       1.0  0.63482  0.27916  0.04350  1.0000 0.05838024
C   C100      1.0  0.36518  0.72084  0.95650  1.0000 0.05838024
C   C101      1.0  0.16639  0.46227  0.11433  1.0000 0.05838024
C   C102      1.0  0.83361  0.53773  0.88567  1.0000 0.05838024
C   C103      1.0  0.33361  0.96227  0.38567  1.0000 0.05838024
C   C104      1.0  0.66639  0.03773  0.61433  1.0000 0.05838024
N   N1        1.0  0.23046  0.53987  0.71434  1.0000 -0.228735211
N   N2        1.0  0.76954  0.46013  0.28566  1.0000 -0.228735211
N   N3        1.0  0.26954  0.03987  0.78566  1.0000 -0.228735211
N   N4        1.0  0.73046  0.96013  0.21434  1.0000 -0.2351175978
N   N5        1.0  0.23785  0.77410  0.16840  1.0000 -0.2215826011
N   N6        1.0  0.76215  0.22590  0.83160  1.0000 -0.2215826011
N   N7        1.0  0.26215  0.27410  0.33160  1.0000 -0.2215826011
N   N8        1.0  0.73785  0.72590  0.66840  1.0000 -0.2215826011
N   N9        1.0  0.20292  0.45327  0.21106  1.0000 -0.228735211
N   N10       1.0  0.79708  0.54673  0.78894  1.0000 -0.228735211
N   N11       1.0  0.29708  0.95327  0.28894  1.0000 -0.228735211
N   N12       1.0  0.70292  0.04673  0.71106  1.0000 -0.228735211
N   N13       1.0  0.82390  0.79975  0.36189  1.0000 -0.2143067553
N   N14       1.0  0.17610  0.20025  0.63811  1.0000 -0.2143067553
N   N15       1.0  0.67610  0.29975  0.13811  1.0000 -0.2143067553
N   N16       1.0  0.32390  0.70025  0.86189  1.0000 -0.2143067553
O   O1        1.0  0.20566  0.42787  0.41968  1.0000 -0.5907595887
O   O2        1.0  0.79434  0.57213  0.58032  1.0000 -0.5907595887
O   O3        1.0  0.29434  0.92787  0.08032  1.0000 -0.5907595887
O   O4        1.0  0.70566  0.07213  0.91968  1.0000 -0.5907595887
O   O5        1.0  0.43593  0.57310  0.30383  1.0000 -0.228735211
O   O6        1.0  0.56407  0.42690  0.69617  1.0000 -0.228735211
O   O7        1.0  0.06407  0.07310  0.19617  1.0000 -0.228735211
O   O8        1.0  0.93593  0.92690  0.80383  1.0000 -0.228735211
O   O9        1.0  0.22887  0.55858  0.93344  1.0000 -0.6045262202
O   O10       1.0  0.77113  0.44142  0.06656  1.0000 -0.6045262202
O   O11       1.0  0.27113  0.05858  0.56656  1.0000 -0.6045262202
O   O12       1.0  0.72887  0.94142  0.43344  1.0000 -0.6045262202
O   O13       1.0  0.45982  0.41805  0.78018  1.0000 -0.2215826011
O   O14       1.0  0.54018  0.58195  0.21982  1.0000 -0.2215826011
O   O15       1.0  0.04018  0.91805  0.71982  1.0000 -0.2215826011
O   O16       1.0  0.95982  0.08195  0.28018  1.0000 -0.2215826011
O   O17       1.0  0.06582  0.49450  0.41839  1.0000 -0.5497433463
O   O18       1.0  0.93418  0.50550  0.58161  1.0000 -0.5446944668
O   O19       1.0  0.43418  0.99450  0.08161  1.0000 -0.5497433463
O   O20       1.0  0.56582  0.00550  0.91839  1.0000 -0.5497433463
O   O21       1.0  0.88744  0.28109  0.12430  1.0000 -0.5731689094
O   O22       1.0  0.11256  0.71891  0.87570  1.0000 -0.5731689094
O   O23       1.0  0.61256  0.78109  0.37570  1.0000 -0.5731689094
O   O24       1.0  0.38744  0.21891  0.62430  1.0000 -0.5731689094
O   O25       1.0  0.09366  0.68829  0.64819  1.0000 -0.5568812548
O   O26       1.0  0.90634  0.31171  0.35181  1.0000 -0.5568812548
O   O27       1.0  0.40634  0.18829  0.85181  1.0000 -0.5568812548
O   O28       1.0  0.59366  0.81171  0.14819  1.0000 -0.5568812548
O   O29       1.0  0.99432  0.70101  0.28067  1.0000 -0.2047256513
O   O30       1.0  0.00568  0.29899  0.71933  1.0000 -0.2047256513
O   O31       1.0  0.50568  0.20101  0.21933  1.0000 -0.2047256513
O   O32       1.0  0.49432  0.79899  0.78067  1.0000 -0.2047256513
O   O33       1.0  0.10073  0.62231  0.24120  1.0000 -0.1935806911
O   O34       1.0  0.89927  0.37769  0.75880  1.0000 -0.1935806911
O   O35       1.0  0.39927  0.12231  0.25880  1.0000 -0.1935806911
O   O36       1.0  0.60073  0.87769  0.74120  1.0000 -0.1935806911
O   O37       1.0  0.06336  0.28052  0.35590  1.0000 -0.5731689094
O   O38       1.0  0.93664  0.71948  0.64410  1.0000 -0.5731689094
O   O39       1.0  0.43664  0.78052  0.14410  1.0000 -0.5731689094
O   O40       1.0  0.56336  0.21948  0.85590  1.0000 -0.5731689094
O   O41       1.0  0.08455  0.48761  0.91332  1.0000 -0.5497433463
O   O42       1.0  0.91545  0.51239  0.08668  1.0000 -0.5497433463
O   O43       1.0  0.41545  0.98761  0.58668  1.0000 -0.5497433463
O   O44       1.0  0.58455  0.01239  0.41332  1.0000 -0.5497433463
O   O45       1.0  0.03904  0.32041  0.12215  1.0000 -0.5568812548
O   O46       1.0  0.96096  0.67959  0.87785  1.0000 -0.5568812548
O   O47       1.0  0.46096  0.82041  0.37785  1.0000 -0.5568812548
O   O48       1.0  0.53904  0.17959  0.62215  1.0000 -0.5568812548
