# DDEC6 charges by PACMAN v1.1 (https://github.com/mtap-research/PACMAN-charge/)
data_2013[Mg][nan]3[ASR]1
_chemical_formula_sum              "Mg16 H128 C96 O64"
_cell_length_a       19.0164
_cell_length_b       19.0164
_cell_length_c       29.699
_cell_angle_alpha    59.7284
_cell_angle_beta     120.272
_cell_angle_gamma    138.434

_symmetry_space_group_name_H-M    "P 1"
_symmetry_Int_Tables_number       1

loop_
  _symmetry_equiv_pos_as_xyz
  'x, y, z'

loop_
  _atom_site_type_symbol
  _atom_site_label
  _atom_site_symmetry_multiplicity
  _atom_site_fract_x
  _atom_site_fract_y
  _atom_site_fract_z
  _atom_site_occupancy
  _atom_site_charge
Mg  Mg1       1.0  0.42554  0.81626  0.19012  1.0000 1.3994039137
Mg  Mg2       1.0  0.81626  0.42554  0.30988  1.0000 1.3994039137
Mg  Mg3       1.0  0.57446  0.18374  0.80988  1.0000 1.3994039137
Mg  Mg4       1.0  0.18374  0.57446  0.69012  1.0000 1.3994039137
Mg  Mg5       1.0  0.31321  0.98483  0.74243  1.0000 1.3396311093
Mg  Mg6       1.0  0.98483  0.31321  0.75757  1.0000 1.3396311093
Mg  Mg7       1.0  0.68679  0.01517  0.25757  1.0000 1.3396311093
Mg  Mg8       1.0  0.01517  0.68679  0.24243  1.0000 1.3396311093
Mg  Mg9       1.0  0.28378  0.97372  0.63124  1.0000 1.3994039137
Mg  Mg10      1.0  0.97372  0.28378  0.86876  1.0000 1.3994039137
Mg  Mg11      1.0  0.71622  0.02628  0.36876  1.0000 1.3994039137
Mg  Mg12      1.0  0.02628  0.71622  0.13124  1.0000 1.3994039137
Mg  Mg13      1.0  0.29818  0.89716  0.12591  1.0000 1.3306104828
Mg  Mg14      1.0  0.89716  0.29818  0.37409  1.0000 1.3306104828
Mg  Mg15      1.0  0.70182  0.10284  0.87409  1.0000 1.3306104828
Mg  Mg16      1.0  0.10284  0.70182  0.62591  1.0000 1.3306104828
H   H1        1.0  0.29570  0.78390  0.01060  1.0000 0.1298025239
H   H2        1.0  0.78390  0.29570  0.48940  1.0000 0.1298025239
H   H3        1.0  0.70430  0.21610  0.98940  1.0000 0.1298025239
H   H4        1.0  0.21610  0.70430  0.51060  1.0000 0.1298025239
H   H5        1.0  0.42410  0.88350  0.02080  1.0000 0.1135795933
H   H6        1.0  0.88350  0.42410  0.47920  1.0000 0.1135795933
H   H7        1.0  0.57590  0.11650  0.97920  1.0000 0.1135795933
H   H8        1.0  0.11650  0.57590  0.52080  1.0000 0.1135795933
H   H9        1.0  0.26490  0.90410  0.96500  1.0000 0.09671919
H   H10       1.0  0.90410  0.26490  0.53500  1.0000 0.09671919
H   H11       1.0  0.73510  0.09590  0.03500  1.0000 0.09671919
H   H12       1.0  0.09590  0.73510  0.46500  1.0000 0.09671919
H   H13       1.0  0.39290  0.00530  0.97750  1.0000 0.0892425376
H   H14       1.0  0.00530  0.39290  0.52250  1.0000 0.0892425376
H   H15       1.0  0.60710  0.99470  0.02250  1.0000 0.0892425376
H   H16       1.0  0.99470  0.60710  0.47750  1.0000 0.0892425376
H   H17       1.0  0.28480  0.86740  0.90930  1.0000 0.0892425376
H   H18       1.0  0.86740  0.28480  0.59070  1.0000 0.09671919
H   H19       1.0  0.71520  0.13260  0.09070  1.0000 0.09671919
H   H20       1.0  0.13260  0.71520  0.40930  1.0000 0.09671919
H   H21       1.0  0.41450  0.95750  0.92590  1.0000 0.0892425376
H   H22       1.0  0.95750  0.41450  0.57410  1.0000 0.0892425376
H   H23       1.0  0.58550  0.04250  0.07410  1.0000 0.0892425376
H   H24       1.0  0.04250  0.58550  0.42590  1.0000 0.0892425376
H   H25       1.0  0.41300  0.09820  0.87900  1.0000 0.1298025239
H   H26       1.0  0.09820  0.41300  0.62100  1.0000 0.1298025239
H   H27       1.0  0.58700  0.90180  0.12100  1.0000 0.1298025239
H   H28       1.0  0.90180  0.58700  0.37900  1.0000 0.1298025239
H   H29       1.0  0.28370  0.01510  0.86990  1.0000 0.1298025239
H   H30       1.0  0.01510  0.28370  0.63010  1.0000 0.1298025239
H   H31       1.0  0.71630  0.98490  0.13010  1.0000 0.1298025239
H   H32       1.0  0.98490  0.71630  0.36990  1.0000 0.1298025239
H   H33       1.0  0.50040  0.12740  0.08990  1.0000 0.1414160121
H   H34       1.0  0.12740  0.50040  0.41010  1.0000 0.1414160121
H   H35       1.0  0.49960  0.87260  0.91010  1.0000 0.1414160121
H   H36       1.0  0.87260  0.49960  0.58990  1.0000 0.1414160121
H   H37       1.0  0.49110  0.14410  0.13360  1.0000 0.1414160121
H   H38       1.0  0.14410  0.49110  0.36640  1.0000 0.1414160121
H   H39       1.0  0.50890  0.85590  0.86640  1.0000 0.1414160121
H   H40       1.0  0.85590  0.50890  0.63360  1.0000 0.1414160121
H   H41       1.0  0.63420  0.30700  0.08500  1.0000 0.0809222709
H   H42       1.0  0.30700  0.63420  0.41500  1.0000 0.0809222709
H   H43       1.0  0.36580  0.69300  0.91500  1.0000 0.0809222709
H   H44       1.0  0.69300  0.36580  0.58500  1.0000 0.0809222709
H   H45       1.0  0.69720  0.26380  0.11890  1.0000 0.09671919
H   H46       1.0  0.26380  0.69720  0.38110  1.0000 0.09671919
H   H47       1.0  0.30280  0.73620  0.88110  1.0000 0.09671919
H   H48       1.0  0.73620  0.30280  0.61890  1.0000 0.09671919
H   H49       1.0  0.64050  0.30910  0.16660  1.0000 0.0892425376
H   H50       1.0  0.30910  0.64050  0.33340  1.0000 0.0892425376
H   H51       1.0  0.35950  0.69090  0.83340  1.0000 0.0892425376
H   H52       1.0  0.69090  0.35950  0.66667  1.0000 0.0892425376
H   H53       1.0  0.71330  0.27690  0.19770  1.0000 0.1201326828
H   H54       1.0  0.27690  0.71330  0.30230  1.0000 0.1201326828
H   H55       1.0  0.28670  0.72310  0.80230  1.0000 0.1201326828
H   H56       1.0  0.72310  0.28670  0.69770  1.0000 0.1201326828
H   H57       1.0  0.84970  0.43990  0.15150  1.0000 0.1298025239
H   H58       1.0  0.43990  0.84970  0.34850  1.0000 0.1298025239
H   H59       1.0  0.15030  0.56010  0.84850  1.0000 0.1298025239
H   H60       1.0  0.56010  0.15030  0.65150  1.0000 0.1298025239
H   H61       1.0  0.77670  0.47190  0.11900  1.0000 0.1201326828
H   H62       1.0  0.47190  0.77670  0.38100  1.0000 0.1201326828
H   H63       1.0  0.22330  0.52810  0.88100  1.0000 0.1201326828
H   H64       1.0  0.52810  0.22330  0.61900  1.0000 0.1201326828
H   H65       1.0  0.14040  0.11000  0.63750  1.0000 0.1201326828
H   H66       1.0  0.11000  0.14040  0.86250  1.0000 0.1201326828
H   H67       1.0  0.85960  0.89000  0.36250  1.0000 0.1201326828
H   H68       1.0  0.89000  0.85960  0.13750  1.0000 0.1135795933
H   H69       1.0  0.23200  0.20060  0.60340  1.0000 0.1201326828
H   H70       1.0  0.20060  0.23200  0.89660  1.0000 0.1201326828
H   H71       1.0  0.76800  0.79940  0.39660  1.0000 0.1201326828
H   H72       1.0  0.79940  0.76800  0.10340  1.0000 0.1201326828
H   H73       1.0  0.01580  0.00780  0.57240  1.0000 0.0892425376
H   H74       1.0  0.00780  0.01580  0.92760  1.0000 0.0892425376
H   H75       1.0  0.98420  0.99220  0.42760  1.0000 0.0892425376
H   H76       1.0  0.99220  0.98420  0.07240  1.0000 0.0892425376
H   H77       1.0  0.10760  0.08080  0.54090  1.0000 0.0892425376
H   H78       1.0  0.08080  0.10760  0.95910  1.0000 0.0892425376
H   H79       1.0  0.89240  0.91920  0.45910  1.0000 0.0892425376
H   H80       1.0  0.91920  0.89240  0.04090  1.0000 0.0892425376
H   H81       1.0  0.11990  0.22790  0.51400  1.0000 0.0892425376
H   H82       1.0  0.22790  0.11990  0.98600  1.0000 0.0892425376
H   H83       1.0  0.88010  0.77210  0.48600  1.0000 0.0892425376
H   H84       1.0  0.77210  0.88010  0.01400  1.0000 0.0892425376
H   H85       1.0  0.03760  0.16320  0.54980  1.0000 0.0892425376
H   H86       1.0  0.16320  0.03760  0.95020  1.0000 0.0892425376
H   H87       1.0  0.96240  0.83680  0.45020  1.0000 0.0892425376
H   H88       1.0  0.83680  0.96240  0.04980  1.0000 0.0892425376
H   H89       1.0  0.97460  0.08820  0.46350  1.0000 0.1298025239
H   H90       1.0  0.08820  0.97460  0.03650  1.0000 0.1298025239
H   H91       1.0  0.02540  0.91180  0.53650  1.0000 0.1298025239
H   H92       1.0  0.91180  0.02540  0.96350  1.0000 0.1298025239
H   H93       1.0  0.89500  0.04100  0.49550  1.0000 0.1298025239
H   H94       1.0  0.04100  0.89500  0.00450  1.0000 0.1298025239
H   H95       1.0  0.10500  0.95900  0.50450  1.0000 0.1298025239
H   H96       1.0  0.95900  0.10500  0.99550  1.0000 0.1298025239
H   H97       1.0  0.05470  0.80030  0.72740  1.0000 0.1414160121
H   H98       1.0  0.80030  0.05470  0.77260  1.0000 0.1451085497
H   H99       1.0  0.94530  0.19970  0.27260  1.0000 0.1451085497
H   H100      1.0  0.19970  0.94530  0.22740  1.0000 0.1451085497
H   H101      1.0  0.10610  0.75050  0.77710  1.0000 0.1414160121
H   H102      1.0  0.75050  0.10610  0.72290  1.0000 0.1414160121
H   H103      1.0  0.89390  0.24950  0.22290  1.0000 0.1414160121
H   H104      1.0  0.24950  0.89390  0.27710  1.0000 0.1414160121
H   H105      1.0  0.90870  0.63250  0.75540  1.0000 0.0809222709
H   H106      1.0  0.63250  0.90870  0.74460  1.0000 0.0809222709
H   H107      1.0  0.09130  0.36750  0.24460  1.0000 0.0809222709
H   H108      1.0  0.36750  0.09130  0.25540  1.0000 0.0809222709
H   H109      1.0  0.90910  0.62170  0.70550  1.0000 0.0892425376
H   H110      1.0  0.62170  0.90910  0.79450  1.0000 0.0892425376
H   H111      1.0  0.09090  0.37830  0.29450  1.0000 0.0892425376
H   H112      1.0  0.37830  0.09090  0.20550  1.0000 0.0892425376
H   H113      1.0  0.97830  0.53630  0.76140  1.0000 0.1135795933
H   H114      1.0  0.53630  0.97830  0.73860  1.0000 0.1135795933
H   H115      1.0  0.02170  0.46370  0.23860  1.0000 0.1135795933
H   H116      1.0  0.46370  0.02170  0.26140  1.0000 0.1135795933
H   H117      1.0  0.99920  0.56100  0.81300  1.0000 0.0892425376
H   H118      1.0  0.56100  0.99920  0.68700  1.0000 0.0892425376
H   H119      1.0  0.00080  0.43900  0.18700  1.0000 0.0892425376
H   H120      1.0  0.43900  0.00080  0.31300  1.0000 0.0892425376
H   H121      1.0  0.78670  0.41510  0.75060  1.0000 0.1298025239
H   H122      1.0  0.41510  0.78670  0.74940  1.0000 0.1298025239
H   H123      1.0  0.21330  0.58490  0.24940  1.0000 0.1298025239
H   H124      1.0  0.58490  0.21330  0.25060  1.0000 0.1298025239
H   H125      1.0  0.80520  0.44260  0.80030  1.0000 0.1201326828
H   H126      1.0  0.44260  0.80520  0.69970  1.0000 0.1201326828
H   H127      1.0  0.19480  0.55740  0.19970  1.0000 0.1201326828
H   H128      1.0  0.55740  0.19480  0.30030  1.0000 0.1201326828
C   C1        1.0  0.35250  0.85250  0.07090  1.0000 0.6721608106
C   C2        1.0  0.85250  0.35250  0.42910  1.0000 0.6721608106
C   C3        1.0  0.64750  0.14750  0.92910  1.0000 0.6721608106
C   C4        1.0  0.14750  0.64750  0.57090  1.0000 0.6721608106
C   C5        1.0  0.35374  0.85806  0.01740  1.0000 -0.3146345552
C   C6        1.0  0.85806  0.35374  0.48260  1.0000 -0.3146345552
C   C7        1.0  0.64626  0.14194  0.98260  1.0000 -0.3146345552
C   C8        1.0  0.14194  0.64626  0.51740  1.0000 -0.3146345552
C   C9        1.0  0.33740  0.93180  0.97030  1.0000 -0.1328645658
C   C10       1.0  0.93180  0.33740  0.52970  1.0000 -0.1328645658
C   C11       1.0  0.66260  0.06820  0.02970  1.0000 -0.1328645658
C   C12       1.0  0.06820  0.66260  0.47030  1.0000 -0.1328645658
C   C13       1.0  0.34610  0.93910  0.91900  1.0000 -0.137700123
C   C14       1.0  0.93910  0.34610  0.58100  1.0000 -0.137700123
C   C15       1.0  0.65390  0.06090  0.08100  1.0000 -0.137700123
C   C16       1.0  0.06090  0.65390  0.41900  1.0000 -0.137700123
C   C17       1.0  0.34430  0.02490  0.87230  1.0000 -0.3306865666
C   C18       1.0  0.02490  0.34430  0.62770  1.0000 -0.3306865666
C   C19       1.0  0.65570  0.97510  0.12770  1.0000 -0.3306865666
C   C20       1.0  0.97510  0.65570  0.37230  1.0000 -0.3306865666
C   C21       1.0  0.33118  0.01682  0.82090  1.0000 0.6579539094
C   C22       1.0  0.01682  0.33118  0.67910  1.0000 0.6579539094
C   C23       1.0  0.66882  0.98318  0.17910  1.0000 0.6579539094
C   C24       1.0  0.98318  0.66882  0.32090  1.0000 0.6579539094
C   C25       1.0  0.54087  0.06073  0.16600  1.0000 0.6819576014
C   C26       1.0  0.06073  0.54087  0.33400  1.0000 0.6819576014
C   C27       1.0  0.45913  0.93927  0.83400  1.0000 0.6819576014
C   C28       1.0  0.93927  0.45913  0.66600  1.0000 0.6819576014
C   C29       1.0  0.53710  0.14650  0.12510  1.0000 -0.3483673941
C   C30       1.0  0.14650  0.53710  0.37490  1.0000 -0.3483673941
C   C31       1.0  0.46290  0.85350  0.87490  1.0000 -0.3483673941
C   C32       1.0  0.85350  0.46290  0.62510  1.0000 -0.3483673941
C   C33       1.0  0.64530  0.26310  0.11960  1.0000 -0.1244921285
C   C34       1.0  0.26310  0.64530  0.38040  1.0000 -0.1244921285
C   C35       1.0  0.35470  0.73690  0.88040  1.0000 -0.1244921285
C   C36       1.0  0.73690  0.35470  0.61960  1.0000 -0.1244921285
C   C37       1.0  0.69483  0.31597  0.16340  1.0000 -0.1328645658
C   C38       1.0  0.31597  0.69483  0.33660  1.0000 -0.1328645658
C   C39       1.0  0.30517  0.68403  0.83660  1.0000 -0.1328645658
C   C40       1.0  0.68403  0.30517  0.66340  1.0000 -0.1328645658
C   C41       1.0  0.79540  0.43400  0.15400  1.0000 -0.3390621256
C   C42       1.0  0.43400  0.79540  0.34600  1.0000 -0.3483673941
C   C43       1.0  0.20460  0.56600  0.84600  1.0000 -0.3483673941
C   C44       1.0  0.56600  0.20460  0.65400  1.0000 -0.3390621256
C   C45       1.0  0.84766  0.49294  0.19590  1.0000 0.7143236685
C   C46       1.0  0.49294  0.84766  0.30410  1.0000 0.7143236685
C   C47       1.0  0.15234  0.50706  0.80410  1.0000 0.7143236685
C   C48       1.0  0.50706  0.15234  0.69590  1.0000 0.7143236685
C   C49       1.0  0.21336  0.06344  0.64220  1.0000 0.6721608106
C   C50       1.0  0.06344  0.21336  0.85780  1.0000 0.6721608106
C   C51       1.0  0.78664  0.93656  0.35780  1.0000 0.6721608106
C   C52       1.0  0.93656  0.78664  0.14220  1.0000 0.6721608106
C   C53       1.0  0.17064  0.12156  0.61310  1.0000 -0.3162611883
C   C54       1.0  0.12156  0.17064  0.88690  1.0000 -0.3162611883
C   C55       1.0  0.82936  0.87844  0.38690  1.0000 -0.3162611883
C   C56       1.0  0.87844  0.82936  0.11310  1.0000 -0.3162611883
C   C57       1.0  0.08262  0.08278  0.56220  1.0000 -0.1452008274
C   C58       1.0  0.08278  0.08262  0.93780  1.0000 -0.1452008274
C   C59       1.0  0.91738  0.91722  0.43780  1.0000 -0.1452008274
C   C60       1.0  0.91722  0.91738  0.06220  1.0000 -0.1452008274
C   C61       1.0  0.05548  0.15492  0.52770  1.0000 -0.137700123
C   C62       1.0  0.15492  0.05548  0.97230  1.0000 -0.137700123
C   C63       1.0  0.94452  0.84508  0.47230  1.0000 -0.137700123
C   C64       1.0  0.84508  0.94452  0.02770  1.0000 -0.137700123
C   C65       1.0  0.96151  0.10829  0.48150  1.0000 -0.3146345552
C   C66       1.0  0.10829  0.96151  0.01850  1.0000 -0.3146345552
C   C67       1.0  0.03849  0.89171  0.51850  1.0000 -0.3146345552
C   C68       1.0  0.89171  0.03849  0.98150  1.0000 -0.3146345552
C   C69       1.0  0.94165  0.18455  0.44060  1.0000 0.6579539094
C   C70       1.0  0.18455  0.94165  0.05940  1.0000 0.6579539094
C   C71       1.0  0.05835  0.81545  0.55940  1.0000 0.6579539094
C   C72       1.0  0.81545  0.05835  0.94060  1.0000 0.6579539094
C   C73       1.0  0.11830  0.77310  0.70420  1.0000 0.6819576014
C   C74       1.0  0.77310  0.11830  0.79580  1.0000 0.6819576014
C   C75       1.0  0.88170  0.22690  0.29580  1.0000 0.6819576014
C   C76       1.0  0.22690  0.88170  0.20420  1.0000 0.6819576014
C   C77       1.0  0.06050  0.74530  0.74030  1.0000 -0.3306865666
C   C78       1.0  0.74530  0.06050  0.75970  1.0000 -0.3306865666
C   C79       1.0  0.93950  0.25470  0.25970  1.0000 -0.3306865666
C   C80       1.0  0.25470  0.93950  0.24030  1.0000 -0.3306865666
C   C81       1.0  0.94880  0.63440  0.74220  1.0000 -0.1328645658
C   C82       1.0  0.63440  0.94880  0.75780  1.0000 -0.1328645658
C   C83       1.0  0.05120  0.36560  0.25780  1.0000 -0.1328645658
C   C84       1.0  0.36560  0.05120  0.24220  1.0000 -0.1328645658
C   C85       1.0  0.94994  0.54306  0.77780  1.0000 -0.1328645658
C   C86       1.0  0.54306  0.94994  0.72220  1.0000 -0.1328645658
C   C87       1.0  0.05006  0.45694  0.22220  1.0000 -0.1328645658
C   C88       1.0  0.45694  0.05006  0.27780  1.0000 -0.1328645658
C   C89       1.0  0.83440  0.43340  0.78590  1.0000 -0.3390621256
C   C90       1.0  0.43340  0.83440  0.71410  1.0000 -0.3390621256
C   C91       1.0  0.16560  0.56660  0.21410  1.0000 -0.3390621256
C   C92       1.0  0.56660  0.16560  0.28590  1.0000 -0.3390621256
C   C93       1.0  0.82920  0.33920  0.82290  1.0000 0.7045542586
C   C94       1.0  0.33920  0.82920  0.67710  1.0000 0.7045542586
C   C95       1.0  0.17080  0.66080  0.17710  1.0000 0.7045542586
C   C96       1.0  0.66080  0.17080  0.32290  1.0000 0.7045542586
O   O1        1.0  0.39448  0.81832  0.11276  1.0000 -0.6740911167
O   O2        1.0  0.81832  0.39448  0.38724  1.0000 -0.6740911167
O   O3        1.0  0.60552  0.18168  0.88724  1.0000 -0.6740911167
O   O4        1.0  0.18168  0.60552  0.61276  1.0000 -0.6740911167
O   O5        1.0  0.31084  0.88376  0.06766  1.0000 -0.6491305899
O   O6        1.0  0.88376  0.31084  0.43234  1.0000 -0.6407342505
O   O7        1.0  0.68916  0.11624  0.93234  1.0000 -0.6407342505
O   O8        1.0  0.11624  0.68916  0.56766  1.0000 -0.6407342505
O   O9        1.0  0.40941  0.08919  0.79631  1.0000 -0.7396601301
O   O10       1.0  0.08919  0.40941  0.70369  1.0000 -0.7396601301
O   O11       1.0  0.59059  0.91081  0.20369  1.0000 -0.7396601301
O   O12       1.0  0.91081  0.59059  0.29631  1.0000 -0.7396601301
O   O13       1.0  0.24327  0.93473  0.80211  1.0000 -0.5979964148
O   O14       1.0  0.93473  0.24327  0.69789  1.0000 -0.5979964148
O   O15       1.0  0.75673  0.06527  0.19789  1.0000 -0.5979964148
O   O16       1.0  0.06527  0.75673  0.30211  1.0000 -0.5979964148
O   O17       1.0  0.45540  0.96140  0.16353  1.0000 -0.7396601301
O   O18       1.0  0.96140  0.45540  0.33647  1.0000 -0.7396601301
O   O19       1.0  0.54460  0.03860  0.83647  1.0000 -0.7396601301
O   O20       1.0  0.03860  0.54460  0.66353  1.0000 -0.7396601301
O   O21       1.0  0.62697  0.08903  0.20023  1.0000 -0.6096526992
O   O22       1.0  0.08903  0.62697  0.29977  1.0000 -0.6096526992
O   O23       1.0  0.37303  0.91097  0.79977  1.0000 -0.6096526992
O   O24       1.0  0.91097  0.37303  0.70023  1.0000 -0.6096526992
O   O25       1.0  0.80618  0.44102  0.23528  1.0000 -0.658765332
O   O26       1.0  0.44102  0.80618  0.26472  1.0000 -0.658765332
O   O27       1.0  0.19382  0.55898  0.76472  1.0000 -0.658765332
O   O28       1.0  0.55898  0.19382  0.73528  1.0000 -0.658765332
O   O29       1.0  0.93314  0.59426  0.18911  1.0000 -0.7619138371
O   O30       1.0  0.59426  0.93314  0.31089  1.0000 -0.7619138371
O   O31       1.0  0.06686  0.40574  0.81089  1.0000 -0.7619138371
O   O32       1.0  0.40574  0.06686  0.68911  1.0000 -0.7619138371
O   O33       1.0  0.24569  0.05291  0.69199  1.0000 -0.6491305899
O   O34       1.0  0.05291  0.24569  0.80801  1.0000 -0.6491305899
O   O35       1.0  0.75431  0.94709  0.30801  1.0000 -0.6491305899
O   O36       1.0  0.94709  0.75431  0.19199  1.0000 -0.6491305899
O   O37       1.0  0.21713  0.03447  0.61396  1.0000 -0.6976057004
O   O38       1.0  0.03447  0.21713  0.88604  1.0000 -0.6976057004
O   O39       1.0  0.78287  0.96553  0.38604  1.0000 -0.6976057004
O   O40       1.0  0.96553  0.78287  0.11396  1.0000 -0.6976057004
O   O41       1.0  0.84460  0.14220  0.41265  1.0000 -0.7464315903
O   O42       1.0  0.14220  0.84460  0.08735  1.0000 -0.7464315903
O   O43       1.0  0.15540  0.85780  0.58735  1.0000 -0.7464315903
O   O44       1.0  0.85780  0.15540  0.91265  1.0000 -0.7464315903
O   O45       1.0  0.01455  0.28345  0.43521  1.0000 -0.5674174886
O   O46       1.0  0.28345  0.01455  0.06479  1.0000 -0.5674174886
O   O47       1.0  0.98545  0.71655  0.56479  1.0000 -0.5674174886
O   O48       1.0  0.71655  0.98545  0.93521  1.0000 -0.5674174886
O   O49       1.0  0.21083  0.86677  0.69976  1.0000 -0.7062464368
O   O50       1.0  0.86677  0.21083  0.80024  1.0000 -0.7062464368
O   O51       1.0  0.78917  0.13323  0.30024  1.0000 -0.7062464368
O   O52       1.0  0.13323  0.78917  0.19976  1.0000 -0.7062464368
O   O53       1.0  0.07042  0.70398  0.68090  1.0000 -0.5979964148
O   O54       1.0  0.70398  0.07042  0.81910  1.0000 -0.5979964148
O   O55       1.0  0.92958  0.29602  0.31910  1.0000 -0.5979964148
O   O56       1.0  0.29602  0.92958  0.18090  1.0000 -0.5979964148
O   O57       1.0  0.91527  0.35613  0.84640  1.0000 -0.6349932265
O   O58       1.0  0.35613  0.91527  0.65360  1.0000 -0.6407342505
O   O59       1.0  0.08473  0.64387  0.15360  1.0000 -0.6349932265
O   O60       1.0  0.64387  0.08473  0.34640  1.0000 -0.6407342505
O   O61       1.0  0.73591  0.24709  0.82823  1.0000 -0.7267590921
O   O62       1.0  0.24709  0.73591  0.67177  1.0000 -0.7267590921
O   O63       1.0  0.26409  0.75291  0.17177  1.0000 -0.7267590921
O   O64       1.0  0.75291  0.26409  0.32823  1.0000 -0.7267590921
