# DDEC6 charges by PACMAN v1.1 (https://github.com/mtap-research/PACMAN-charge/)
data_2013[Co][fnh]3[ASR]1
_chemical_formula_sum              "Co6 H66 C57 N6 O24"
_cell_length_a       17.2343
_cell_length_b       17.2343
_cell_length_c       17.2343
_cell_angle_alpha    117.423
_cell_angle_beta     117.423
_cell_angle_gamma    117.423

_symmetry_space_group_name_H-M    "P 1"
_symmetry_Int_Tables_number       1

loop_
  _symmetry_equiv_pos_as_xyz
  'x, y, z'

loop_
  _atom_site_type_symbol
  _atom_site_label
  _atom_site_symmetry_multiplicity
  _atom_site_fract_x
  _atom_site_fract_y
  _atom_site_fract_z
  _atom_site_occupancy
  _atom_site_charge
Co  Co1       1.0  0.65501  0.58827  0.43438  1.0000 0.9141876751
Co  Co2       1.0  0.58827  0.43438  0.65501  1.0000 0.9141876751
Co  Co3       1.0  0.43438  0.65501  0.58827  1.0000 0.9141876751
Co  Co4       1.0  0.96355  0.03032  0.18284  1.0000 0.9141876751
Co  Co5       1.0  0.03032  0.18284  0.96355  1.0000 0.9141876751
Co  Co6       1.0  0.18284  0.96355  0.03032  1.0000 0.9141876751
H   H1        1.0  0.29110  0.25950  0.81120  1.0000 0.1310191794
H   H2        1.0  0.25950  0.81120  0.29110  1.0000 0.1310191794
H   H3        1.0  0.81120  0.29110  0.25950  1.0000 0.1310191794
H   H4        1.0  0.24530  0.14100  0.84410  1.0000 0.1310191794
H   H5        1.0  0.14100  0.84410  0.24530  1.0000 0.1310191794
H   H6        1.0  0.84410  0.24530  0.14100  1.0000 0.1310191794
H   H7        1.0  0.07410  0.01780  0.74850  1.0000 0.146871127
H   H8        1.0  0.01780  0.74850  0.07410  1.0000 0.146871127
H   H9        1.0  0.74850  0.07410  0.01780  1.0000 0.146871127
H   H10       1.0  0.09650  0.94700  0.68350  1.0000 0.1402848946
H   H11       1.0  0.94700  0.68350  0.09650  1.0000 0.1402848946
H   H12       1.0  0.68350  0.09650  0.94700  1.0000 0.1402848946
H   H13       1.0  0.27860  0.30690  0.64550  1.0000 0.1310191794
H   H14       1.0  0.30690  0.64550  0.27860  1.0000 0.1310191794
H   H15       1.0  0.64550  0.27860  0.30690  1.0000 0.1310191794
H   H16       1.0  0.24630  0.36370  0.70620  1.0000 0.1402848946
H   H17       1.0  0.36370  0.70620  0.24630  1.0000 0.1402848946
H   H18       1.0  0.70620  0.24630  0.36370  1.0000 0.1402848946
H   H19       1.0  0.37880  0.40760  0.81510  1.0000 0.1402848946
H   H20       1.0  0.40760  0.81510  0.37880  1.0000 0.1402848946
H   H21       1.0  0.81510  0.37880  0.40760  1.0000 0.1402848946
H   H22       1.0  0.01990  0.12870  0.41640  1.0000 0.1143519608
H   H23       1.0  0.12870  0.41640  0.01990  1.0000 0.1143519608
H   H24       1.0  0.41640  0.01990  0.12870  1.0000 0.1143519608
H   H25       1.0  0.82830  0.94460  0.25360  1.0000 0.1194766657
H   H26       1.0  0.94460  0.25360  0.82830  1.0000 0.1194766657
H   H27       1.0  0.25360  0.82830  0.94460  1.0000 0.1194766657
H   H28       1.0  0.64610  0.65160  0.10360  1.0000 0.1310191794
H   H29       1.0  0.65160  0.10360  0.64610  1.0000 0.1310191794
H   H30       1.0  0.10360  0.64610  0.65160  1.0000 0.1310191794
H   H31       1.0  0.59880  0.63970  0.16100  1.0000 0.1194766657
H   H32       1.0  0.63970  0.16100  0.59880  1.0000 0.1194766657
H   H33       1.0  0.16100  0.59880  0.63970  1.0000 0.1194766657
H   H34       1.0  0.63790  0.74420  0.16410  1.0000 0.1402848946
H   H35       1.0  0.74420  0.16410  0.63790  1.0000 0.1402848946
H   H36       1.0  0.16410  0.63790  0.74420  1.0000 0.1402848946
H   H37       1.0  0.69560  0.62130  0.25780  1.0000 0.1194766657
H   H38       1.0  0.62130  0.25780  0.69560  1.0000 0.1194766657
H   H39       1.0  0.25780  0.69560  0.62130  1.0000 0.1194766657
H   H40       1.0  0.83160  0.71800  0.42740  1.0000 0.1194766657
H   H41       1.0  0.71800  0.42740  0.83160  1.0000 0.1194766657
H   H42       1.0  0.42740  0.83160  0.71800  1.0000 0.1194766657
H   H43       1.0  0.78740  0.88100  0.49160  1.0000 0.1402848946
H   H44       1.0  0.88100  0.49160  0.78740  1.0000 0.1402848946
H   H45       1.0  0.49160  0.78740  0.88100  1.0000 0.1402848946
H   H46       1.0  0.61590  0.75240  0.39510  1.0000 0.146871127
H   H47       1.0  0.75240  0.39510  0.61590  1.0000 0.146871127
H   H48       1.0  0.39510  0.61590  0.75240  1.0000 0.146871127
H   H49       1.0  0.45870  0.53410  0.14300  1.0000 0.1402848946
H   H50       1.0  0.53410  0.14300  0.45870  1.0000 0.1402848946
H   H51       1.0  0.14300  0.45870  0.53410  1.0000 0.1402848946
H   H52       1.0  0.44480  0.42200  0.10490  1.0000 0.146871127
H   H53       1.0  0.42200  0.10490  0.44480  1.0000 0.146871127
H   H54       1.0  0.10490  0.44480  0.42200  1.0000 0.146871127
H   H55       1.0  0.14810  0.07380  0.45920  1.0000 0.1402848946
H   H56       1.0  0.07380  0.45920  0.14810  1.0000 0.1402848946
H   H57       1.0  0.45920  0.14810  0.07380  1.0000 0.1402848946
H   H58       1.0  0.06770  0.93770  0.30250  1.0000 0.146871127
H   H59       1.0  0.93770  0.30250  0.06770  1.0000 0.146871127
H   H60       1.0  0.30250  0.06770  0.93770  1.0000 0.146871127
H   H61       1.0  0.79560  0.72140  0.10990  1.0000 0.1402848946
H   H62       1.0  0.72140  0.10990  0.79560  1.0000 0.1402848946
H   H63       1.0  0.10990  0.79560  0.72140  1.0000 0.1402848946
H   H64       1.0  0.70170  0.72520  0.03860  1.0000 0.146871127
H   H65       1.0  0.72520  0.03860  0.70170  1.0000 0.146871127
H   H66       1.0  0.03860  0.70170  0.72520  1.0000 0.146871127
C   C1        1.0  0.89620  0.86930  0.45510  1.0000 -0.0375065012
C   C2        1.0  0.86930  0.45510  0.89620  1.0000 -0.0375065012
C   C3        1.0  0.45510  0.89620  0.86930  1.0000 -0.0375065012
C   C4        1.0  0.85410  0.86930  0.36280  1.0000 0.0748236505
C   C5        1.0  0.86930  0.36280  0.85410  1.0000 0.0748236505
C   C6        1.0  0.36280  0.85410  0.86930  1.0000 0.0748236505
C   C7        1.0  0.97360  0.01110  0.43690  1.0000 -0.0375065012
C   C8        1.0  0.01110  0.43690  0.97360  1.0000 -0.0375065012
C   C9        1.0  0.43690  0.97360  0.01110  1.0000 -0.0375065012
C   C10       1.0  0.13980  0.16490  0.61190  1.0000 0.1310191794
C   C11       1.0  0.16490  0.61190  0.13980  1.0000 0.1310191794
C   C12       1.0  0.61190  0.13980  0.16490  1.0000 0.1310191794
C   C13       1.0  0.18010  0.16200  0.69870  1.0000 -0.2531294869
C   C14       1.0  0.16200  0.69870  0.18010  1.0000 -0.2531294869
C   C15       1.0  0.69870  0.18010  0.16200  1.0000 -0.2531294869
C   C16       1.0  0.06430  0.02120  0.62800  1.0000 0.1402848946
C   C17       1.0  0.02120  0.62800  0.06430  1.0000 0.1402848946
C   C18       1.0  0.62800  0.06430  0.02120  1.0000 0.1402848946
C   C19       1.0  0.12550  0.03280  0.73580  1.0000 -0.4692149838
C   C20       1.0  0.03280  0.73580  0.12550  1.0000 -0.4692149838
C   C21       1.0  0.73580  0.12550  0.03280  1.0000 -0.4692149838
C   C22       1.0  0.27270  0.32490  0.70270  1.0000 -0.4692149838
C   C23       1.0  0.32490  0.70270  0.27270  1.0000 -0.4692149838
C   C24       1.0  0.70270  0.27270  0.32490  1.0000 -0.4692149838
C   C25       1.0  0.94000  0.01480  0.33990  1.0000 -0.1632706619
C   C26       1.0  0.01480  0.33990  0.94000  1.0000 -0.1632706619
C   C27       1.0  0.33990  0.94000  0.01480  1.0000 -0.1632706619
C   C28       1.0  0.66640  0.71120  0.18060  1.0000 -0.4692149838
C   C29       1.0  0.71120  0.18060  0.66640  1.0000 -0.4692149838
C   C30       1.0  0.18060  0.66640  0.71120  1.0000 -0.4692149838
C   C31       1.0  0.77120  0.71320  0.37170  1.0000 -0.1682959146
C   C32       1.0  0.71320  0.37170  0.77120  1.0000 -0.1682959146
C   C33       1.0  0.37170  0.77120  0.71320  1.0000 -0.1682959146
C   C34       1.0  0.71440  0.79920  0.46190  1.0000 -0.2900655813
C   C35       1.0  0.79920  0.46190  0.71440  1.0000 -0.2900655813
C   C36       1.0  0.46190  0.71440  0.79920  1.0000 -0.2900655813
C   C37       1.0  0.80490  0.88650  0.61980  1.0000 0.6163744682
C   C38       1.0  0.88650  0.61980  0.80490  1.0000 0.6163744682
C   C39       1.0  0.61980  0.80490  0.88650  1.0000 0.6163744682
C   C40       1.0  0.37390  0.44070  0.17450  1.0000 0.6099432462
C   C41       1.0  0.44070  0.17450  0.37390  1.0000 0.6099432462
C   C42       1.0  0.17450  0.37390  0.44070  1.0000 0.6099432462
C   C43       1.0  0.47770  0.50680  0.17920  1.0000 -0.2900655813
C   C44       1.0  0.50680  0.17920  0.47770  1.0000 -0.2900655813
C   C45       1.0  0.17920  0.47770  0.50680  1.0000 -0.2900655813
C   C46       1.0  0.10050  0.02640  0.36400  1.0000 -0.2788540767
C   C47       1.0  0.02640  0.36400  0.10050  1.0000 -0.2788540767
C   C48       1.0  0.36400  0.10050  0.02640  1.0000 -0.2788540767
C   C49       1.0  0.23720  0.16240  0.43060  1.0000 0.6163744682
C   C50       1.0  0.16240  0.43060  0.23720  1.0000 0.6163744682
C   C51       1.0  0.43060  0.23720  0.16240  1.0000 0.6163744682
C   C52       1.0  0.78580  0.71810  0.98260  1.0000 0.6099432462
C   C53       1.0  0.71810  0.98260  0.78580  1.0000 0.6099432462
C   C54       1.0  0.98260  0.78580  0.71810  1.0000 0.6099432462
C   C55       1.0  0.79750  0.76900  0.09400  1.0000 -0.2900655813
C   C56       1.0  0.76900  0.09400  0.79750  1.0000 -0.2900655813
C   C57       1.0  0.09400  0.79750  0.76900  1.0000 -0.2900655813
N   N1        1.0  0.66200  0.66320  0.35960  1.0000 -0.0514362768
N   N2        1.0  0.66320  0.35960  0.66200  1.0000 -0.0514362768
N   N3        1.0  0.35960  0.66200  0.66320  1.0000 -0.0514362768
N   N4        1.0  0.95390  0.95340  0.25840  1.0000 -0.0514362768
N   N5        1.0  0.95340  0.25840  0.95390  1.0000 -0.0514362768
N   N6        1.0  0.25840  0.95390  0.95340  1.0000 -0.0514362768
O   O1        1.0  0.78410  0.81240  0.62680  1.0000 -0.5113858528
O   O2        1.0  0.81240  0.62680  0.78410  1.0000 -0.5113858528
O   O3        1.0  0.62680  0.78410  0.81240  1.0000 -0.5113858528
O   O4        1.0  0.88510  0.02580  0.72910  1.0000 -0.5575993406
O   O5        1.0  0.02580  0.72910  0.88510  1.0000 -0.5575993406
O   O6        1.0  0.72910  0.88510  0.02580  1.0000 -0.5575993406
O   O7        1.0  0.42460  0.45640  0.26770  1.0000 -0.4928569194
O   O8        1.0  0.45640  0.26770  0.42460  1.0000 -0.4928569194
O   O9        1.0  0.26770  0.42460  0.45640  1.0000 -0.4928569194
O   O10       1.0  0.23130  0.35280  0.05460  1.0000 -0.5696698474
O   O11       1.0  0.35280  0.05460  0.23130  1.0000 -0.5696698474
O   O12       1.0  0.05460  0.23130  0.35280  1.0000 -0.5696698474
O   O13       1.0  0.19890  0.17690  0.36110  1.0000 -0.543396259
O   O14       1.0  0.17690  0.36110  0.19890  1.0000 -0.543396259
O   O15       1.0  0.36110  0.19890  0.17690  1.0000 -0.543396259
O   O16       1.0  0.37010  0.23420  0.53190  1.0000 -0.543396259
O   O17       1.0  0.23420  0.53190  0.37010  1.0000 -0.543396259
O   O18       1.0  0.53190  0.37010  0.23420  1.0000 -0.543396259
O   O19       1.0  0.84680  0.81220  0.00030  1.0000 -0.4928569194
O   O20       1.0  0.81220  0.00030  0.84680  1.0000 -0.4928569194
O   O21       1.0  0.00030  0.84680  0.81220  1.0000 -0.4928569194
O   O22       1.0  0.69550  0.57250  0.86780  1.0000 -0.5696698474
O   O23       1.0  0.57250  0.86780  0.69550  1.0000 -0.5696698474
O   O24       1.0  0.86780  0.69550  0.57250  1.0000 -0.5696698474
