# DDEC6 charges by PACMAN v1.1 (https://github.com/mtap-research/PACMAN-charge/)
data_2013[Tb][seh]3[ASR]1
_chemical_formula_sum              "Tb4 H108 C84 N24 O24"
_cell_length_a       16.176
_cell_length_b       7.948
_cell_length_c       30.8525
_cell_angle_alpha    90
_cell_angle_beta     118.055
_cell_angle_gamma    90

_symmetry_space_group_name_H-M    "P 1"
_symmetry_Int_Tables_number       1

loop_
  _symmetry_equiv_pos_as_xyz
  'x, y, z'

loop_
  _atom_site_type_symbol
  _atom_site_label
  _atom_site_symmetry_multiplicity
  _atom_site_fract_x
  _atom_site_fract_y
  _atom_site_fract_z
  _atom_site_occupancy
  _atom_site_charge
Tb  Tb1       1.0  0.99031  0.15649  0.26720  1.0000 2.0628587273
Tb  Tb2       1.0  0.00969  0.65649  0.23280  1.0000 2.0628587273
Tb  Tb3       1.0  0.00969  0.84351  0.73280  1.0000 2.0628587273
Tb  Tb4       1.0  0.99031  0.34351  0.76720  1.0000 2.0628587273
H   H1        1.0  0.53930  0.81680  0.20150  1.0000 0.1000014978
H   H2        1.0  0.46070  0.31680  0.29850  1.0000 0.1000014978
H   H3        1.0  0.46070  0.18320  0.79850  1.0000 0.1000014978
H   H4        1.0  0.53930  0.68320  0.70150  1.0000 0.1000014978
H   H5        1.0  0.60090  0.66270  0.20260  1.0000 0.1000014978
H   H6        1.0  0.39910  0.16270  0.29740  1.0000 0.1000014978
H   H7        1.0  0.39910  0.33730  0.79740  1.0000 0.1000014978
H   H8        1.0  0.60090  0.83730  0.70260  1.0000 0.1000014978
H   H9        1.0  0.72430  0.80450  0.12170  1.0000 0.1191030725
H   H10       1.0  0.27570  0.30450  0.37830  1.0000 0.1191030725
H   H11       1.0  0.27570  0.19550  0.87830  1.0000 0.1191030725
H   H12       1.0  0.72430  0.69550  0.62170  1.0000 0.1191030725
H   H13       1.0  0.66280  0.95460  0.12350  1.0000 0.1098172625
H   H14       1.0  0.33720  0.45460  0.37650  1.0000 0.1098172625
H   H15       1.0  0.33720  0.04540  0.87650  1.0000 0.1098172625
H   H16       1.0  0.66280  0.54540  0.62350  1.0000 0.1098172625
H   H17       1.0  0.75900  0.72400  0.20200  1.0000 0.1098172625
H   H18       1.0  0.24100  0.22400  0.29800  1.0000 0.1098172625
H   H19       1.0  0.24100  0.27600  0.79800  1.0000 0.1098172625
H   H20       1.0  0.75900  0.77600  0.70200  1.0000 0.1098172625
H   H21       1.0  0.14400  0.17400  0.16400  1.0000 0.1000014978
H   H22       1.0  0.85600  0.67400  0.33600  1.0000 0.1000014978
H   H23       1.0  0.85600  0.82600  0.83600  1.0000 0.1000014978
H   H24       1.0  0.14400  0.32600  0.66400  1.0000 0.1000014978
H   H25       1.0  0.65050  0.00550  0.20250  1.0000 0.1098172625
H   H26       1.0  0.34950  0.50550  0.29750  1.0000 0.1098172625
H   H27       1.0  0.34950  0.99450  0.79750  1.0000 0.1098172625
H   H28       1.0  0.65050  0.49450  0.70250  1.0000 0.1098172625
H   H29       1.0  0.70200  0.88080  0.24670  1.0000 0.1098172625
H   H30       1.0  0.29800  0.38080  0.25330  1.0000 0.1098172625
H   H31       1.0  0.29800  0.11920  0.75330  1.0000 0.1098172625
H   H32       1.0  0.70200  0.61920  0.74670  1.0000 0.1098172625
H   H33       1.0  0.31990  0.60310  0.90140  1.0000 0.1098172625
H   H34       1.0  0.68010  0.10310  0.59860  1.0000 0.1098172625
H   H35       1.0  0.68010  0.39690  0.09860  1.0000 0.1098172625
H   H36       1.0  0.31990  0.89690  0.40140  1.0000 0.1098172625
H   H37       1.0  0.27370  0.51610  0.93030  1.0000 0.1098172625
H   H38       1.0  0.72630  0.01610  0.56970  1.0000 0.1098172625
H   H39       1.0  0.72630  0.48390  0.06970  1.0000 0.1098172625
H   H40       1.0  0.27370  0.98390  0.43030  1.0000 0.1098172625
H   H41       1.0  0.15000  0.86940  0.96910  1.0000 0.1000014978
H   H42       1.0  0.85000  0.36940  0.53090  1.0000 0.1000014978
H   H43       1.0  0.85000  0.13060  0.03090  1.0000 0.1000014978
H   H44       1.0  0.15000  0.63060  0.46910  1.0000 0.1000014978
H   H45       1.0  0.19260  0.96010  0.93890  1.0000 0.1098172625
H   H46       1.0  0.80740  0.46010  0.56110  1.0000 0.1098172625
H   H47       1.0  0.80740  0.03990  0.06110  1.0000 0.1098172625
H   H48       1.0  0.19260  0.53990  0.43890  1.0000 0.1098172625
H   H49       1.0  0.23500  0.85730  0.19690  1.0000 0.1191030725
H   H50       1.0  0.76500  0.35730  0.30310  1.0000 0.1191030725
H   H51       1.0  0.76500  0.14270  0.80310  1.0000 0.1191030725
H   H52       1.0  0.23500  0.64270  0.69690  1.0000 0.1191030725
H   H53       1.0  0.26690  0.02340  0.22810  1.0000 0.1098172625
H   H54       1.0  0.73310  0.52340  0.27190  1.0000 0.1098172625
H   H55       1.0  0.73310  0.97660  0.77190  1.0000 0.1098172625
H   H56       1.0  0.26690  0.47660  0.72810  1.0000 0.1098172625
H   H57       1.0  0.09350  0.86210  0.11400  1.0000 0.1191030725
H   H58       1.0  0.90650  0.36210  0.38600  1.0000 0.1191030725
H   H59       1.0  0.90650  0.13790  0.88600  1.0000 0.1191030725
H   H60       1.0  0.09350  0.63790  0.61400  1.0000 0.1191030725
H   H61       1.0  0.03660  0.02930  0.09370  1.0000 0.1098172625
H   H62       1.0  0.96340  0.52930  0.40630  1.0000 0.1098172625
H   H63       1.0  0.96340  0.97070  0.90630  1.0000 0.1098172625
H   H64       1.0  0.03660  0.47070  0.59370  1.0000 0.1098172625
H   H65       1.0  0.16210  0.15040  0.08670  1.0000 0.1000014978
H   H66       1.0  0.83790  0.65040  0.41330  1.0000 0.1000014978
H   H67       1.0  0.83790  0.84960  0.91330  1.0000 0.1000014978
H   H68       1.0  0.16210  0.34960  0.58670  1.0000 0.1000014978
H   H69       1.0  0.13430  0.98050  0.05710  1.0000 0.1000014978
H   H70       1.0  0.86570  0.48050  0.44290  1.0000 0.1000014978
H   H71       1.0  0.86570  0.01950  0.94290  1.0000 0.1000014978
H   H72       1.0  0.13430  0.51950  0.55710  1.0000 0.1000014978
H   H73       1.0  0.61970  0.61040  0.12600  1.0000 0.1000014978
H   H74       1.0  0.38030  0.11040  0.37400  1.0000 0.1000014978
H   H75       1.0  0.38030  0.38960  0.87400  1.0000 0.1000014978
H   H76       1.0  0.61970  0.88960  0.62600  1.0000 0.1000014978
H   H77       1.0  0.56490  0.72960  0.08080  1.0000 0.1000014978
H   H78       1.0  0.43510  0.22960  0.41920  1.0000 0.1000014978
H   H79       1.0  0.43510  0.27040  0.91920  1.0000 0.1000014978
H   H80       1.0  0.56490  0.77040  0.58080  1.0000 0.1000014978
H   H81       1.0  0.36010  0.97240  0.18940  1.0000 0.1000014978
H   H82       1.0  0.63990  0.47240  0.31060  1.0000 0.1000014978
H   H83       1.0  0.63990  0.02760  0.81060  1.0000 0.1000014978
H   H84       1.0  0.36010  0.52760  0.68940  1.0000 0.1000014978
H   H85       1.0  0.30690  0.14440  0.17180  1.0000 0.1000014978
H   H86       1.0  0.69310  0.64440  0.32820  1.0000 0.1000014978
H   H87       1.0  0.69310  0.85560  0.82820  1.0000 0.1000014978
H   H88       1.0  0.30690  0.35560  0.67180  1.0000 0.1000014978
H   H89       1.0  0.19900  0.79500  0.86800  1.0000 0.1191030725
H   H90       1.0  0.80100  0.29500  0.63200  1.0000 0.1191030725
H   H91       1.0  0.80100  0.20500  0.13200  1.0000 0.1191030725
H   H92       1.0  0.19900  0.70500  0.36800  1.0000 0.1191030725
H   H93       1.0  0.35140  0.84520  0.94960  1.0000 0.1000014978
H   H94       1.0  0.64860  0.34520  0.55040  1.0000 0.1000014978
H   H95       1.0  0.64860  0.15480  0.05040  1.0000 0.1000014978
H   H96       1.0  0.35140  0.65480  0.44960  1.0000 0.1000014978
H   H97       1.0  0.39330  0.69030  0.98490  1.0000 0.1000014978
H   H98       1.0  0.60670  0.19030  0.51510  1.0000 0.1000014978
H   H99       1.0  0.60670  0.30970  0.01510  1.0000 0.1000014978
H   H100      1.0  0.39330  0.80970  0.48490  1.0000 0.1000014978
H   H101      1.0  0.11770  0.62860  0.92030  1.0000 0.1098172625
H   H102      1.0  0.88230  0.12860  0.57970  1.0000 0.1098172625
H   H103      1.0  0.88230  0.37140  0.07970  1.0000 0.1098172625
H   H104      1.0  0.11770  0.87140  0.42030  1.0000 0.1098172625
H   H105      1.0  0.07240  0.78310  0.88530  1.0000 0.1098172625
H   H106      1.0  0.92760  0.28310  0.61470  1.0000 0.1098172625
H   H107      1.0  0.92760  0.21690  0.11470  1.0000 0.1191030725
H   H108      1.0  0.07240  0.71690  0.38530  1.0000 0.1191030725
C   C1        1.0  0.58270  0.77640  0.19040  1.0000 -0.0895379285
C   C2        1.0  0.41730  0.27640  0.30960  1.0000 -0.0895379285
C   C3        1.0  0.41730  0.22360  0.80960  1.0000 -0.0895379285
C   C4        1.0  0.58270  0.72360  0.69040  1.0000 -0.0895379285
C   C5        1.0  0.68320  0.84080  0.13480  1.0000 -0.2070431623
C   C6        1.0  0.31680  0.34080  0.36520  1.0000 -0.2070431623
C   C7        1.0  0.31680  0.15920  0.86520  1.0000 -0.2070431623
C   C8        1.0  0.68320  0.65920  0.63480  1.0000 -0.2070431623
C   C9        1.0  0.73640  0.83850  0.19080  1.0000 -0.1188664971
C   C10       1.0  0.26360  0.33850  0.30920  1.0000 -0.1188664971
C   C11       1.0  0.26360  0.16150  0.80920  1.0000 -0.1188664971
C   C12       1.0  0.73640  0.66150  0.69080  1.0000 -0.1188664971
C   C13       1.0  0.31900  0.81420  0.03390  1.0000 0.4485580479
C   C14       1.0  0.68100  0.31420  0.46610  1.0000 0.4485580479
C   C15       1.0  0.68100  0.18580  0.96610  1.0000 0.4485580479
C   C16       1.0  0.31900  0.68580  0.53390  1.0000 0.4485580479
C   C17       1.0  0.13940  0.05160  0.16510  1.0000 -0.1188664971
C   C18       1.0  0.86060  0.55160  0.33490  1.0000 -0.1188664971
C   C19       1.0  0.86060  0.94840  0.83490  1.0000 -0.1188664971
C   C20       1.0  0.13940  0.44840  0.66510  1.0000 -0.1188664971
C   C21       1.0  0.44500  0.80660  0.10830  1.0000 0.4485580479
C   C22       1.0  0.55500  0.30660  0.39170  1.0000 0.4485580479
C   C23       1.0  0.55500  0.19340  0.89170  1.0000 0.4485580479
C   C24       1.0  0.44500  0.69340  0.60830  1.0000 0.4485580479
C   C25       1.0  0.66960  0.88940  0.21120  1.0000 -0.2070431623
C   C26       1.0  0.33040  0.38940  0.28880  1.0000 -0.2070431623
C   C27       1.0  0.33040  0.11060  0.78880  1.0000 -0.2070431623
C   C28       1.0  0.66960  0.61060  0.71120  1.0000 -0.2070431623
C   C29       1.0  0.28240  0.62310  0.91790  1.0000 -0.2070431623
C   C30       1.0  0.71760  0.12310  0.58210  1.0000 -0.2070431623
C   C31       1.0  0.71760  0.37690  0.08210  1.0000 -0.2070431623
C   C32       1.0  0.28240  0.87690  0.41790  1.0000 -0.2070431623
C   C33       1.0  0.30660  0.89680  0.10010  1.0000 0.45568597
C   C34       1.0  0.69340  0.39680  0.39990  1.0000 0.45568597
C   C35       1.0  0.69340  0.10320  0.89990  1.0000 0.45568597
C   C36       1.0  0.30660  0.60320  0.60010  1.0000 0.45568597
C   C37       1.0  0.18530  0.85200  0.95130  1.0000 -0.0895379285
C   C38       1.0  0.81470  0.35200  0.54870  1.0000 -0.0895379285
C   C39       1.0  0.81470  0.14800  0.04870  1.0000 -0.0895379285
C   C40       1.0  0.18530  0.64800  0.45130  1.0000 -0.0895379285
C   C41       1.0  0.81970  0.95470  0.20910  1.0000 0.6033087042
C   C42       1.0  0.18030  0.45470  0.29090  1.0000 0.6033087042
C   C43       1.0  0.18030  0.04530  0.79090  1.0000 0.6033087042
C   C44       1.0  0.81970  0.54530  0.70910  1.0000 0.6033087042
C   C45       1.0  0.23870  0.97870  0.19500  1.0000 -0.2070431623
C   C46       1.0  0.76130  0.47870  0.30500  1.0000 -0.2070431623
C   C47       1.0  0.76130  0.02130  0.80500  1.0000 -0.2070431623
C   C48       1.0  0.23870  0.52130  0.69500  1.0000 -0.2070431623
C   C49       1.0  0.09890  0.98350  0.11330  1.0000 -0.2070431623
C   C50       1.0  0.90110  0.48350  0.38670  1.0000 -0.2070431623
C   C51       1.0  0.90110  0.01650  0.88670  1.0000 -0.2070431623
C   C52       1.0  0.09890  0.51650  0.61330  1.0000 -0.2070431623
C   C53       1.0  0.13390  0.57090  0.83980  1.0000 0.6128728357
C   C54       1.0  0.86610  0.07090  0.66020  1.0000 0.6128728357
C   C55       1.0  0.86610  0.42910  0.16020  1.0000 0.6128728357
C   C56       1.0  0.13390  0.92910  0.33980  1.0000 0.6128728357
C   C57       1.0  0.16020  0.02910  0.08970  1.0000 -0.0895379285
C   C58       1.0  0.83980  0.52910  0.41030  1.0000 -0.0895379285
C   C59       1.0  0.83980  0.97090  0.91030  1.0000 -0.0895379285
C   C60       1.0  0.16020  0.47090  0.58970  1.0000 -0.0895379285
C   C61       1.0  0.59890  0.72530  0.11640  1.0000 -0.0895379285
C   C62       1.0  0.40110  0.22530  0.38360  1.0000 -0.0895379285
C   C63       1.0  0.40110  0.27470  0.88360  1.0000 -0.0895379285
C   C64       1.0  0.59890  0.77470  0.61640  1.0000 -0.0895379285
C   C65       1.0  0.29880  0.02340  0.17110  1.0000 -0.0964561473
C   C66       1.0  0.70120  0.52340  0.32890  1.0000 -0.0964561473
C   C67       1.0  0.70120  0.97660  0.82890  1.0000 -0.0964561473
C   C68       1.0  0.29880  0.47660  0.67110  1.0000 -0.0964561473
C   C69       1.0  0.18850  0.69100  0.88140  1.0000 -0.1188664971
C   C70       1.0  0.81150  0.19100  0.61860  1.0000 -0.1188664971
C   C71       1.0  0.81150  0.30900  0.11860  1.0000 -0.1188664971
C   C72       1.0  0.18850  0.80900  0.38140  1.0000 -0.1188664971
C   C73       1.0  0.33550  0.74290  0.96120  1.0000 -0.0895379285
C   C74       1.0  0.66450  0.24290  0.53880  1.0000 -0.0895379285
C   C75       1.0  0.66450  0.25710  0.03880  1.0000 -0.0895379285
C   C76       1.0  0.33550  0.75710  0.46120  1.0000 -0.0895379285
C   C77       1.0  0.13140  0.73190  0.90820  1.0000 -0.2070431623
C   C78       1.0  0.86860  0.23190  0.59180  1.0000 -0.2070431623
C   C79       1.0  0.86860  0.26810  0.09180  1.0000 -0.2070431623
C   C80       1.0  0.13140  0.76810  0.40820  1.0000 -0.2070431623
C   C81       1.0  0.08090  0.00710  0.19010  1.0000 0.6339197424
C   C82       1.0  0.91910  0.50710  0.30990  1.0000 0.6339197424
C   C83       1.0  0.91910  0.99290  0.80990  1.0000 0.6339197424
C   C84       1.0  0.08090  0.49290  0.69010  1.0000 0.6339197424
N   N1        1.0  0.39568  0.85800  0.13108  1.0000 -0.5538053962
N   N2        1.0  0.60432  0.35800  0.36892  1.0000 -0.5538053962
N   N3        1.0  0.60432  0.14200  0.86892  1.0000 -0.555485222
N   N4        1.0  0.39568  0.64200  0.63108  1.0000 -0.5538053962
N   N5        1.0  0.26170  0.87130  0.05130  1.0000 -0.5538053962
N   N6        1.0  0.73830  0.37130  0.44870  1.0000 -0.5538053962
N   N7        1.0  0.73830  0.12870  0.94870  1.0000 -0.5538053962
N   N8        1.0  0.26170  0.62870  0.55130  1.0000 -0.5538053962
N   N9        1.0  0.53660  0.77500  0.13660  1.0000 -0.0964561473
N   N10       1.0  0.46340  0.27500  0.36340  1.0000 -0.0964561473
N   N11       1.0  0.46340  0.22500  0.86340  1.0000 -0.0964561473
N   N12       1.0  0.53660  0.72500  0.63660  1.0000 -0.0964561473
N   N13       1.0  0.25540  0.96430  0.12040  1.0000 -0.1070578503
N   N14       1.0  0.74460  0.46430  0.37960  1.0000 -0.1070578503
N   N15       1.0  0.74460  0.03570  0.87960  1.0000 -0.1070578503
N   N16       1.0  0.25540  0.53570  0.62040  1.0000 -0.1070578503
N   N17       1.0  0.41020  0.78640  0.05950  1.0000 -0.5538053962
N   N18       1.0  0.58980  0.28640  0.44050  1.0000 -0.5538053962
N   N19       1.0  0.58980  0.21360  0.94050  1.0000 -0.555485222
N   N20       1.0  0.41020  0.71360  0.55950  1.0000 -0.5538053962
N   N21       1.0  0.27760  0.78390  0.98460  1.0000 -0.0964561473
N   N22       1.0  0.72240  0.28390  0.51540  1.0000 -0.0964561473
N   N23       1.0  0.72240  0.21610  0.01540  1.0000 -0.0964561473
N   N24       1.0  0.27760  0.71610  0.48460  1.0000 -0.0964561473
O   O1        1.0  0.06315  0.12390  0.21235  1.0000 -0.675351459
O   O2        1.0  0.93685  0.62390  0.28765  1.0000 -0.675351459
O   O3        1.0  0.93685  0.87610  0.78765  1.0000 -0.675351459
O   O4        1.0  0.06315  0.37610  0.71235  1.0000 -0.675351459
O   O5        1.0  0.05495  0.85730  0.18805  1.0000 -0.6715750876
O   O6        1.0  0.94505  0.35730  0.31195  1.0000 -0.6715750876
O   O7        1.0  0.94505  0.14270  0.81195  1.0000 -0.6715750876
O   O8        1.0  0.05495  0.64270  0.68805  1.0000 -0.6715750876
O   O9        1.0  0.08137  0.62530  0.79657  1.0000 -0.7319032284
O   O10       1.0  0.91863  0.12530  0.70343  1.0000 -0.7319032284
O   O11       1.0  0.91863  0.37470  0.20343  1.0000 -0.7319032284
O   O12       1.0  0.08137  0.87470  0.29657  1.0000 -0.7319032284
O   O13       1.0  0.89833  0.89810  0.21513  1.0000 -0.7319032284
O   O14       1.0  0.10167  0.39810  0.28487  1.0000 -0.7319032284
O   O15       1.0  0.10167  0.10190  0.78487  1.0000 -0.7319032284
O   O16       1.0  0.89833  0.60190  0.71513  1.0000 -0.7319032284
O   O17       1.0  0.13716  0.41500  0.84796  1.0000 -0.6194308134
O   O18       1.0  0.86284  0.91500  0.65204  1.0000 -0.6194308134
O   O19       1.0  0.86284  0.58500  0.15204  1.0000 -0.6194308134
O   O20       1.0  0.13716  0.08500  0.34796  1.0000 -0.6194308134
O   O21       1.0  0.81358  0.10550  0.21948  1.0000 -0.6194308134
O   O22       1.0  0.18642  0.60550  0.28052  1.0000 -0.6194308134
O   O23       1.0  0.18642  0.89450  0.78052  1.0000 -0.6194308134
O   O24       1.0  0.81358  0.39450  0.71948  1.0000 -0.6194308134
