# DDEC6 charges by PACMAN v1.1 (https://github.com/mtap-research/PACMAN-charge/)
data_2013[Ni][sit]3[ASR]2
_chemical_formula_sum              "Ni4 H40 C68 N12 O16"
_cell_length_a       14.7578
_cell_length_b       14.7578
_cell_length_c       11.6384
_cell_angle_alpha    72.2484
_cell_angle_beta     107.752
_cell_angle_gamma    84.6101

_symmetry_space_group_name_H-M    "P 1"
_symmetry_Int_Tables_number       1

loop_
  _symmetry_equiv_pos_as_xyz
  'x, y, z'

loop_
  _atom_site_type_symbol
  _atom_site_label
  _atom_site_symmetry_multiplicity
  _atom_site_fract_x
  _atom_site_fract_y
  _atom_site_fract_z
  _atom_site_occupancy
  _atom_site_charge
Ni  Ni1       1.0  0.06478  0.69028  0.88179  1.0000 0.6865191527
Ni  Ni2       1.0  0.30972  0.93522  0.88179  1.0000 0.6865191527
Ni  Ni3       1.0  0.69028  0.06478  0.11821  1.0000 0.6865191527
Ni  Ni4       1.0  0.93522  0.30972  0.11821  1.0000 0.6865191527
H   H1        1.0  0.00310  0.76150  0.07210  1.0000 0.1127826806
H   H2        1.0  0.23850  0.99690  0.07210  1.0000 0.1127826806
H   H3        1.0  0.02070  0.70470  0.28780  1.0000 0.1289766461
H   H4        1.0  0.29530  0.97930  0.28780  1.0000 0.1289766461
H   H5        1.0  0.17700  0.45060  0.32470  1.0000 0.1369991568
H   H6        1.0  0.54940  0.82300  0.32470  1.0000 0.1369991568
H   H7        1.0  0.15640  0.51540  0.10830  1.0000 0.1127826806
H   H8        1.0  0.48460  0.84360  0.10830  1.0000 0.1127826806
H   H9        1.0  0.07000  0.65460  0.49750  1.0000 0.1289766461
H   H10       1.0  0.34540  0.93000  0.49750  1.0000 0.1289766461
H   H11       1.0  0.16300  0.41140  0.81790  1.0000 0.1289766461
H   H12       1.0  0.58860  0.83700  0.81790  1.0000 0.1289766461
H   H13       1.0  0.30610  0.27890  0.88030  1.0000 0.1369991568
H   H14       1.0  0.72110  0.69390  0.88030  1.0000 0.1369991568
H   H15       1.0  0.36380  0.11200  0.95850  1.0000 0.1127826806
H   H16       1.0  0.88800  0.63620  0.95850  1.0000 0.1127826806
H   H17       1.0  0.18380  0.08800  0.64490  1.0000 0.1201353662
H   H18       1.0  0.91200  0.81620  0.64490  1.0000 0.1201353662
H   H19       1.0  0.12540  0.25440  0.55470  1.0000 0.1369991568
H   H20       1.0  0.74560  0.87460  0.55470  1.0000 0.1369991568
H   H21       1.0  0.76150  0.00310  0.92790  1.0000 0.1127826806
H   H22       1.0  0.99690  0.23850  0.92790  1.0000 0.1127826806
H   H23       1.0  0.70470  0.02070  0.71220  1.0000 0.1289766461
H   H24       1.0  0.97930  0.29530  0.71220  1.0000 0.1289766461
H   H25       1.0  0.45060  0.17700  0.67530  1.0000 0.1369991568
H   H26       1.0  0.82300  0.54940  0.67530  1.0000 0.1369991568
H   H27       1.0  0.51540  0.15640  0.89170  1.0000 0.1127826806
H   H28       1.0  0.84360  0.48460  0.89170  1.0000 0.1127826806
H   H29       1.0  0.65460  0.07000  0.50250  1.0000 0.1289766461
H   H30       1.0  0.93000  0.34540  0.50250  1.0000 0.1289766461
H   H31       1.0  0.41140  0.16300  0.18210  1.0000 0.1289766461
H   H32       1.0  0.83700  0.58860  0.18210  1.0000 0.1289766461
H   H33       1.0  0.27890  0.30610  0.11970  1.0000 0.1369991568
H   H34       1.0  0.69390  0.72110  0.11970  1.0000 0.1369991568
H   H35       1.0  0.11200  0.36380  0.04150  1.0000 0.1127826806
H   H36       1.0  0.63620  0.88800  0.04150  1.0000 0.1127826806
H   H37       1.0  0.08800  0.18380  0.35510  1.0000 0.1201353662
H   H38       1.0  0.81620  0.91200  0.35510  1.0000 0.1201353662
H   H39       1.0  0.25440  0.12540  0.44530  1.0000 0.1369991568
H   H40       1.0  0.87460  0.74560  0.44530  1.0000 0.1369991568
C   C1        1.0  0.03897  0.69747  0.12450  1.0000 0.076400147
C   C2        1.0  0.30253  0.96103  0.12450  1.0000 0.076400147
C   C3        1.0  0.04926  0.66414  0.25310  1.0000 -0.1904548656
C   C4        1.0  0.33586  0.95074  0.25310  1.0000 -0.1904548656
C   C5        1.0  0.10171  0.57063  0.33160  1.0000 0.0995660724
C   C6        1.0  0.42937  0.89829  0.33160  1.0000 0.0995660724
C   C7        1.0  0.14118  0.51498  0.27500  1.0000 -0.1640231617
C   C8        1.0  0.48502  0.85882  0.27500  1.0000 -0.1640231617
C   C9        1.0  0.12799  0.55405  0.14540  1.0000 0.0995660724
C   C10       1.0  0.44595  0.87201  0.14540  1.0000 0.0995660724
C   C11       1.0  0.11567  0.52933  0.47110  1.0000 0.1922810685
C   C12       1.0  0.47067  0.88433  0.47110  1.0000 0.1922810685
C   C13       1.0  0.09463  0.58653  0.53930  1.0000 -0.2005117618
C   C14       1.0  0.41347  0.90537  0.53930  1.0000 -0.2005117618
C   C15       1.0  0.11037  0.54197  0.66950  1.0000 0.0459692229
C   C16       1.0  0.45803  0.88963  0.66950  1.0000 0.0459692229
C   C17       1.0  0.14961  0.44321  0.72850  1.0000 -0.2104081593
C   C18       1.0  0.55679  0.85039  0.72850  1.0000 -0.2104081593
C   C19       1.0  0.16907  0.39145  0.65330  1.0000 0.1922810685
C   C20       1.0  0.60855  0.83093  0.65330  1.0000 0.1922810685
C   C21       1.0  0.20834  0.28530  0.70830  1.0000 0.093908488
C   C22       1.0  0.71470  0.79166  0.70830  1.0000 0.093908488
C   C23       1.0  0.28037  0.24113  0.83000  1.0000 -0.2005117618
C   C24       1.0  0.75887  0.71963  0.83000  1.0000 -0.2005117618
C   C25       1.0  0.31380  0.14134  0.87640  1.0000 0.0724368758
C   C26       1.0  0.85866  0.68620  0.87640  1.0000 0.0724368758
C   C27       1.0  0.20910  0.12764  0.69260  1.0000 0.093908488
C   C28       1.0  0.87236  0.79090  0.69260  1.0000 0.093908488
C   C29       1.0  0.17336  0.22656  0.63860  1.0000 -0.1904548656
C   C30       1.0  0.77344  0.82664  0.63860  1.0000 -0.1904548656
C   C31       1.0  0.08724  0.59984  0.74690  1.0000 0.5363934256
C   C32       1.0  0.40016  0.91276  0.74690  1.0000 0.5363934256
C   C33       1.0  0.14600  0.85400  0.87390  1.0000 0.4716116406
C   C34       1.0  0.23250  0.76750  0.91740  1.0000 0.4784723736
C   C35       1.0  0.69747  0.03897  0.87550  1.0000 0.076400147
C   C36       1.0  0.96103  0.30253  0.87550  1.0000 0.076400147
C   C37       1.0  0.66414  0.04926  0.74690  1.0000 -0.1904548656
C   C38       1.0  0.95074  0.33586  0.74690  1.0000 -0.1904548656
C   C39       1.0  0.57063  0.10171  0.66840  1.0000 0.0995660724
C   C40       1.0  0.89829  0.42937  0.66840  1.0000 0.0995660724
C   C41       1.0  0.51498  0.14118  0.72500  1.0000 -0.1640231617
C   C42       1.0  0.85882  0.48502  0.72500  1.0000 -0.1640231617
C   C43       1.0  0.55405  0.12799  0.85460  1.0000 0.0995660724
C   C44       1.0  0.87201  0.44595  0.85460  1.0000 0.0995660724
C   C45       1.0  0.52933  0.11567  0.52890  1.0000 0.1922810685
C   C46       1.0  0.88433  0.47067  0.52890  1.0000 0.1922810685
C   C47       1.0  0.58653  0.09463  0.46070  1.0000 -0.2005117618
C   C48       1.0  0.90537  0.41347  0.46070  1.0000 -0.2005117618
C   C49       1.0  0.54197  0.11037  0.33050  1.0000 0.0459692229
C   C50       1.0  0.88963  0.45803  0.33050  1.0000 0.0459692229
C   C51       1.0  0.44321  0.14961  0.27150  1.0000 -0.2104081593
C   C52       1.0  0.85039  0.55679  0.27150  1.0000 -0.2104081593
C   C53       1.0  0.39145  0.16907  0.34670  1.0000 0.1922810685
C   C54       1.0  0.83093  0.60855  0.34670  1.0000 0.1922810685
C   C55       1.0  0.28530  0.20834  0.29170  1.0000 0.093908488
C   C56       1.0  0.79166  0.71470  0.29170  1.0000 0.093908488
C   C57       1.0  0.24113  0.28037  0.17000  1.0000 -0.2005117618
C   C58       1.0  0.71963  0.75887  0.17000  1.0000 -0.2005117618
C   C59       1.0  0.14134  0.31380  0.12360  1.0000 0.0724368758
C   C60       1.0  0.68620  0.85866  0.12360  1.0000 0.0724368758
C   C61       1.0  0.12764  0.20910  0.30740  1.0000 0.093908488
C   C62       1.0  0.79090  0.87236  0.30740  1.0000 0.093908488
C   C63       1.0  0.22656  0.17336  0.36140  1.0000 -0.1904548656
C   C64       1.0  0.82664  0.77344  0.36140  1.0000 -0.1904548656
C   C65       1.0  0.59984  0.08724  0.25310  1.0000 0.5363934256
C   C66       1.0  0.91276  0.40016  0.25310  1.0000 0.5363934256
C   C67       1.0  0.85400  0.14600  0.12610  1.0000 0.4716116406
C   C68       1.0  0.76750  0.23250  0.08260  1.0000 0.4784723736
N   N1        1.0  0.07731  0.64337  0.07020  1.0000 -0.2268958174
N   N2        1.0  0.35663  0.92269  0.07020  1.0000 -0.2268958174
N   N3        1.0  0.15164  0.43338  0.52700  1.0000 -0.3161270402
N   N4        1.0  0.56662  0.84836  0.52700  1.0000 -0.3161270402
N   N5        1.0  0.27848  0.08458  0.81020  1.0000 -0.2195852034
N   N6        1.0  0.91542  0.72152  0.81020  1.0000 -0.2195852034
N   N7        1.0  0.64337  0.07731  0.92980  1.0000 -0.2268958174
N   N8        1.0  0.92269  0.35663  0.92980  1.0000 -0.2268958174
N   N9        1.0  0.43338  0.15164  0.47300  1.0000 -0.3161270402
N   N10       1.0  0.84836  0.56662  0.47300  1.0000 -0.3161270402
N   N11       1.0  0.08458  0.27848  0.18980  1.0000 -0.2195852034
N   N12       1.0  0.72152  0.91542  0.18980  1.0000 -0.2195852034
O   O1        1.0  0.06766  0.69146  0.69810  1.0000 -0.5146553896
O   O2        1.0  0.30854  0.93234  0.69810  1.0000 -0.5146553896
O   O3        1.0  0.08792  0.55554  0.85820  1.0000 -0.5323914073
O   O4        1.0  0.44446  0.91208  0.85820  1.0000 -0.5323914073
O   O5        1.0  0.21300  0.68466  0.93410  1.0000 -0.4641370855
O   O6        1.0  0.31534  0.78700  0.93410  1.0000 -0.4641370855
O   O7        1.0  0.06350  0.83394  0.85920  1.0000 -0.4905263864
O   O8        1.0  0.16606  0.93650  0.85920  1.0000 -0.4905263864
O   O9        1.0  0.69146  0.06766  0.30190  1.0000 -0.5146553896
O   O10       1.0  0.93234  0.30854  0.30190  1.0000 -0.5146553896
O   O11       1.0  0.55554  0.08792  0.14180  1.0000 -0.5323914073
O   O12       1.0  0.91208  0.44446  0.14180  1.0000 -0.5323914073
O   O13       1.0  0.68466  0.21300  0.06590  1.0000 -0.4641370855
O   O14       1.0  0.78700  0.31534  0.06590  1.0000 -0.4641370855
O   O15       1.0  0.83394  0.06350  0.14080  1.0000 -0.4905263864
O   O16       1.0  0.93650  0.16606  0.14080  1.0000 -0.4905263864
