# DDEC6 charges by PACMAN v1.1 (https://github.com/mtap-research/PACMAN-charge/)
data_2013[Mn][nan]3[ASR]2
_chemical_formula_sum              "Mn12 P8 H96 C168 O60"
_cell_length_a       22.8079
_cell_length_b       22.8079
_cell_length_c       15.251
_cell_angle_alpha    72.3488
_cell_angle_beta     107.651
_cell_angle_gamma    123.747

_symmetry_space_group_name_H-M    "P 1"
_symmetry_Int_Tables_number       1

loop_
  _symmetry_equiv_pos_as_xyz
  'x, y, z'

loop_
  _atom_site_type_symbol
  _atom_site_label
  _atom_site_symmetry_multiplicity
  _atom_site_fract_x
  _atom_site_fract_y
  _atom_site_fract_z
  _atom_site_occupancy
  _atom_site_charge
Mn  Mn1       1.0  0.30818  0.77596  0.36009  1.0000 1.085995535
Mn  Mn2       1.0  0.77596  0.30818  0.13991  1.0000 1.085995535
Mn  Mn3       1.0  0.69182  0.22404  0.63991  1.0000 1.085995535
Mn  Mn4       1.0  0.22404  0.69182  0.86009  1.0000 1.085995535
Mn  Mn5       1.0  0.26534  0.82892  0.11202  1.0000 1.0847009733
Mn  Mn6       1.0  0.82892  0.26534  0.38798  1.0000 1.085995535
Mn  Mn7       1.0  0.73466  0.17108  0.88798  1.0000 1.085995535
Mn  Mn8       1.0  0.17108  0.73466  0.61202  1.0000 1.085995535
Mn  Mn9       1.0  0.46264  0.39636  0.01845  1.0000 1.026301892
Mn  Mn10      1.0  0.39636  0.46264  0.48155  1.0000 1.026301892
Mn  Mn11      1.0  0.53736  0.60364  0.98155  1.0000 1.026301892
Mn  Mn12      1.0  0.60364  0.53736  0.51845  1.0000 1.026301892
P   P1        1.0  0.31955  0.00361  0.99063  1.0000 0.8748404398
P   P2        1.0  0.00361  0.31955  0.50937  1.0000 0.8748404398
P   P3        1.0  0.68045  0.99639  0.00937  1.0000 0.8748404398
P   P4        1.0  0.99639  0.68045  0.49063  1.0000 0.8748404398
P   P5        1.0  0.48338  0.82250  0.47893  1.0000 0.8776312038
P   P6        1.0  0.82250  0.48338  0.02107  1.0000 0.8776312038
P   P7        1.0  0.51662  0.17750  0.52107  1.0000 0.8776312038
P   P8        1.0  0.17750  0.51662  0.97893  1.0000 0.8776312038
H   H1        1.0  0.38060  0.79980  0.56780  1.0000 0.1282582798
H   H2        1.0  0.79980  0.38060  0.93220  1.0000 0.1282582798
H   H3        1.0  0.61940  0.20020  0.43220  1.0000 0.1282582798
H   H4        1.0  0.20020  0.61940  0.06780  1.0000 0.1282582798
H   H5        1.0  0.42800  0.72380  0.84040  1.0000 0.1282582798
H   H6        1.0  0.72380  0.42800  0.65960  1.0000 0.1282582798
H   H7        1.0  0.57200  0.27620  0.15960  1.0000 0.1282582798
H   H8        1.0  0.27620  0.57200  0.34040  1.0000 0.1282582798
H   H9        1.0  0.53270  0.74230  0.81140  1.0000 0.1178437442
H   H10       1.0  0.74230  0.53270  0.68860  1.0000 0.1178437442
H   H11       1.0  0.46730  0.25770  0.18860  1.0000 0.1178437442
H   H12       1.0  0.25770  0.46730  0.31140  1.0000 0.1178437442
H   H13       1.0  0.24150  0.95850  0.62570  1.0000 0.1178437442
H   H14       1.0  0.95850  0.24150  0.87430  1.0000 0.1178437442
H   H15       1.0  0.75850  0.04150  0.37430  1.0000 0.1178437442
H   H16       1.0  0.04150  0.75850  0.12570  1.0000 0.1178437442
H   H17       1.0  0.27460  0.06820  0.65460  1.0000 0.1115446365
H   H18       1.0  0.06820  0.27460  0.84540  1.0000 0.1115446365
H   H19       1.0  0.72540  0.93180  0.34540  1.0000 0.1115446365
H   H20       1.0  0.93180  0.72540  0.15460  1.0000 0.1115446365
H   H21       1.0  0.54760  0.93300  0.58980  1.0000 0.1115446365
H   H22       1.0  0.93300  0.54760  0.91020  1.0000 0.1115446365
H   H23       1.0  0.45240  0.06700  0.41020  1.0000 0.1115446365
H   H24       1.0  0.06700  0.45240  0.08980  1.0000 0.1115446365
H   H25       1.0  0.65300  0.11700  0.41430  1.0000 0.1178437442
H   H26       1.0  0.11700  0.65300  0.08570  1.0000 0.1178437442
H   H27       1.0  0.34700  0.88300  0.58570  1.0000 0.1178437442
H   H28       1.0  0.88300  0.34700  0.91430  1.0000 0.1178437442
H   H29       1.0  0.61120  0.05120  0.29530  1.0000 0.1115446365
H   H30       1.0  0.05120  0.61120  0.20470  1.0000 0.1115446365
H   H31       1.0  0.38880  0.94880  0.70470  1.0000 0.1115446365
H   H32       1.0  0.94880  0.38880  0.79530  1.0000 0.1115446365
H   H33       1.0  0.53790  0.92710  0.32160  1.0000 0.1282582798
H   H34       1.0  0.92710  0.53790  0.17840  1.0000 0.1282582798
H   H35       1.0  0.46210  0.07290  0.67840  1.0000 0.1282582798
H   H36       1.0  0.07290  0.46210  0.82160  1.0000 0.1282582798
H   H37       1.0  0.61220  0.12880  0.10480  1.0000 0.1178437442
H   H38       1.0  0.12880  0.61220  0.39520  1.0000 0.1178437442
H   H39       1.0  0.38780  0.87120  0.89520  1.0000 0.1178437442
H   H40       1.0  0.87120  0.38780  0.60480  1.0000 0.1178437442
H   H41       1.0  0.43910  0.05490  0.90080  1.0000 0.1115446365
H   H42       1.0  0.05490  0.43910  0.59920  1.0000 0.1115446365
H   H43       1.0  0.56090  0.94510  0.09920  1.0000 0.1115446365
H   H44       1.0  0.94510  0.56090  0.40080  1.0000 0.1115446365
H   H45       1.0  0.41450  0.04730  0.15690  1.0000 0.1282582798
H   H46       1.0  0.04730  0.41450  0.34310  1.0000 0.1282582798
H   H47       1.0  0.58550  0.95270  0.84310  1.0000 0.1282582798
H   H48       1.0  0.95270  0.58550  0.65690  1.0000 0.1282582798
H   H49       1.0  0.53780  0.10000  0.20730  1.0000 0.1115446365
H   H50       1.0  0.10000  0.53780  0.29270  1.0000 0.1115446365
H   H51       1.0  0.46220  0.90000  0.79270  1.0000 0.1115446365
H   H52       1.0  0.90000  0.46220  0.70730  1.0000 0.1115446365
H   H53       1.0  0.28250  0.89210  0.90390  1.0000 0.1282582798
H   H54       1.0  0.89210  0.28250  0.59610  1.0000 0.1282582798
H   H55       1.0  0.71750  0.10790  0.09610  1.0000 0.1282582798
H   H56       1.0  0.10790  0.71750  0.40390  1.0000 0.1282582798
H   H57       1.0  0.30750  0.08970  0.80780  1.0000 0.1178437442
H   H58       1.0  0.08970  0.30750  0.69220  1.0000 0.1178437442
H   H59       1.0  0.69250  0.91030  0.19220  1.0000 0.1178437442
H   H60       1.0  0.91030  0.69250  0.30780  1.0000 0.1178437442
H   H61       1.0  0.39420  0.15680  0.99950  1.0000 0.1178437442
H   H62       1.0  0.15680  0.39420  0.50050  1.0000 0.1178437442
H   H63       1.0  0.60580  0.84320  0.00050  1.0000 0.1178437442
H   H64       1.0  0.84320  0.60580  0.49950  1.0000 0.1178437442
H   H65       1.0  0.23380  0.18780  0.99210  1.0000 0.1178437442
H   H66       1.0  0.18780  0.23380  0.50790  1.0000 0.1178437442
H   H67       1.0  0.76620  0.81220  0.00790  1.0000 0.1178437442
H   H68       1.0  0.81220  0.76620  0.49210  1.0000 0.1178437442
H   H69       1.0  0.15100  0.06620  0.98650  1.0000 0.1115446365
H   H70       1.0  0.06620  0.15100  0.51350  1.0000 0.1115446365
H   H71       1.0  0.84900  0.93380  0.01350  1.0000 0.1115446365
H   H72       1.0  0.93380  0.84900  0.48650  1.0000 0.1115446365
H   H73       1.0  0.18940  0.99080  0.98700  1.0000 0.1282582798
H   H74       1.0  0.99080  0.18940  0.51300  1.0000 0.1282582798
H   H75       1.0  0.81060  0.00920  0.01300  1.0000 0.1282582798
H   H76       1.0  0.00920  0.81060  0.48700  1.0000 0.1282582798
H   H77       1.0  0.45000  0.69000  0.45610  1.0000 0.1373777553
H   H78       1.0  0.69000  0.45000  0.04390  1.0000 0.1373777553
H   H79       1.0  0.55000  0.31000  0.54390  1.0000 0.1373777553
H   H80       1.0  0.31000  0.55000  0.95610  1.0000 0.1373777553
H   H81       1.0  0.63550  0.87930  0.48610  1.0000 0.1115446365
H   H82       1.0  0.87930  0.63550  0.01390  1.0000 0.1115446365
H   H83       1.0  0.36450  0.12070  0.51390  1.0000 0.1115446365
H   H84       1.0  0.12070  0.36450  0.98610  1.0000 0.1115446365
H   H85       1.0  0.69930  0.82730  0.48310  1.0000 0.1115446365
H   H86       1.0  0.82730  0.69930  0.01690  1.0000 0.1115446365
H   H87       1.0  0.30070  0.17270  0.51690  1.0000 0.1115446365
H   H88       1.0  0.17270  0.30070  0.98310  1.0000 0.1115446365
H   H89       1.0  0.64000  0.70660  0.47430  1.0000 0.1282582798
H   H90       1.0  0.70660  0.64000  0.02570  1.0000 0.1282582798
H   H91       1.0  0.36000  0.29340  0.52570  1.0000 0.1282582798
H   H92       1.0  0.29340  0.36000  0.97430  1.0000 0.1282582798
H   H93       1.0  0.55560  0.77980  0.65910  1.0000 0.1178437442
H   H94       1.0  0.77980  0.55560  0.84090  1.0000 0.1115446365
H   H95       1.0  0.44440  0.22020  0.34090  1.0000 0.1178437442
H   H96       1.0  0.22020  0.44440  0.15910  1.0000 0.1178437442
C   C1        1.0  0.41036  0.78608  0.61683  1.0000 -0.0904104233
C   C2        1.0  0.78608  0.41036  0.88317  1.0000 -0.0904104233
C   C3        1.0  0.58964  0.21392  0.38317  1.0000 -0.0904104233
C   C4        1.0  0.21392  0.58964  0.11683  1.0000 -0.0904104233
C   C5        1.0  0.39302  0.75832  0.70680  1.0000 -0.0202256861
C   C6        1.0  0.75832  0.39302  0.79320  1.0000 -0.0202256861
C   C7        1.0  0.60698  0.24168  0.29320  1.0000 -0.0202256861
C   C8        1.0  0.24168  0.60698  0.20680  1.0000 -0.0202256861
C   C9        1.0  0.43881  0.74191  0.77890  1.0000 -0.0815158155
C   C10       1.0  0.74191  0.43881  0.72110  1.0000 -0.0815158155
C   C11       1.0  0.56119  0.25809  0.22110  1.0000 -0.0815158155
C   C12       1.0  0.25809  0.56119  0.27890  1.0000 -0.0815158155
C   C13       1.0  0.50056  0.75182  0.76150  1.0000 -0.0815158155
C   C14       1.0  0.75182  0.50056  0.73850  1.0000 -0.0815158155
C   C15       1.0  0.49944  0.24818  0.23850  1.0000 -0.0815158155
C   C16       1.0  0.24818  0.49944  0.26150  1.0000 -0.0815158155
C   C17       1.0  0.32305  0.74199  0.72300  1.0000 0.5801964516
C   C18       1.0  0.74199  0.32305  0.77700  1.0000 0.5801964516
C   C19       1.0  0.67695  0.25801  0.27700  1.0000 0.5801964516
C   C20       1.0  0.25801  0.67695  0.22300  1.0000 0.5801964516
C   C21       1.0  0.23448  0.84170  0.74680  1.0000 0.5801964516
C   C22       1.0  0.84170  0.23448  0.75320  1.0000 0.5801964516
C   C23       1.0  0.76552  0.15830  0.25320  1.0000 0.5801964516
C   C24       1.0  0.15830  0.76552  0.24680  1.0000 0.5801964516
C   C25       1.0  0.25745  0.91383  0.76200  1.0000 -0.0202256861
C   C26       1.0  0.91383  0.25745  0.73800  1.0000 -0.0202256861
C   C27       1.0  0.74255  0.08617  0.23800  1.0000 -0.0202256861
C   C28       1.0  0.08617  0.74255  0.26200  1.0000 -0.0202256861
C   C29       1.0  0.25583  0.96689  0.68810  1.0000 -0.0981758178
C   C30       1.0  0.96689  0.25583  0.81190  1.0000 -0.0981758178
C   C31       1.0  0.74417  0.03311  0.31190  1.0000 -0.0981758178
C   C32       1.0  0.03311  0.74417  0.18810  1.0000 -0.0981758178
C   C33       1.0  0.27504  0.03196  0.70550  1.0000 -0.0904104233
C   C34       1.0  0.03196  0.27504  0.79450  1.0000 -0.0904104233
C   C35       1.0  0.72496  0.96804  0.29450  1.0000 -0.0904104233
C   C36       1.0  0.96804  0.72496  0.20550  1.0000 -0.0904104233
C   C37       1.0  0.62941  0.07181  0.59167  1.0000 0.5557155921
C   C38       1.0  0.07181  0.62941  0.90833  1.0000 0.5557155921
C   C39       1.0  0.37059  0.92819  0.40833  1.0000 0.5557155921
C   C40       1.0  0.92819  0.37059  0.09167  1.0000 0.5557155921
C   C41       1.0  0.56056  0.95688  0.52990  1.0000 -0.0981758178
C   C42       1.0  0.95688  0.56056  0.97010  1.0000 -0.0981758178
C   C43       1.0  0.43944  0.04312  0.47010  1.0000 -0.0981758178
C   C44       1.0  0.04312  0.43944  0.02990  1.0000 -0.0981758178
C   C45       1.0  0.60372  0.03070  0.51327  1.0000 -0.0021902786
C   C46       1.0  0.03070  0.60372  0.98673  1.0000 -0.0021902786
C   C47       1.0  0.39628  0.96930  0.48673  1.0000 -0.0021902786
C   C48       1.0  0.96930  0.39628  0.01327  1.0000 -0.0021902786
C   C49       1.0  0.62311  0.06635  0.42570  1.0000 -0.0904104233
C   C50       1.0  0.06635  0.62311  0.07430  1.0000 -0.0904104233
C   C51       1.0  0.37689  0.93365  0.57430  1.0000 -0.0904104233
C   C52       1.0  0.93365  0.37689  0.92570  1.0000 -0.0904104233
C   C53       1.0  0.59820  0.02696  0.35520  1.0000 -0.0904104233
C   C54       1.0  0.02696  0.59820  0.14480  1.0000 -0.0904104233
C   C55       1.0  0.40180  0.97304  0.64480  1.0000 -0.0904104233
C   C56       1.0  0.97304  0.40180  0.85520  1.0000 -0.0904104233
C   C57       1.0  0.55493  0.95333  0.37050  1.0000 -0.0700710756
C   C58       1.0  0.95333  0.55493  0.12950  1.0000 -0.0700710756
C   C59       1.0  0.44507  0.04667  0.62950  1.0000 -0.0700710756
C   C60       1.0  0.04667  0.44507  0.87050  1.0000 -0.0700710756
C   C61       1.0  0.57985  0.11349  0.92510  1.0000 0.5557155921
C   C62       1.0  0.11349  0.57985  0.57490  1.0000 0.5557155921
C   C63       1.0  0.42015  0.88651  0.07490  1.0000 0.5557155921
C   C64       1.0  0.88651  0.42015  0.42510  1.0000 0.5557155921
C   C65       1.0  0.53278  0.09486  0.99250  1.0000 -0.0119093316
C   C66       1.0  0.09486  0.53278  0.50750  1.0000 -0.0119093316
C   C67       1.0  0.46722  0.90514  0.00750  1.0000 -0.0119093316
C   C68       1.0  0.90514  0.46722  0.49250  1.0000 -0.0119093316
C   C69       1.0  0.56205  0.10799  0.08410  1.0000 -0.0815158155
C   C70       1.0  0.10799  0.56205  0.41590  1.0000 -0.0815158155
C   C71       1.0  0.43795  0.89201  0.91590  1.0000 -0.0815158155
C   C72       1.0  0.89201  0.43795  0.58410  1.0000 -0.0815158155
C   C73       1.0  0.45926  0.06376  0.96300  1.0000 -0.0981758178
C   C74       1.0  0.06376  0.45926  0.53700  1.0000 -0.0981758178
C   C75       1.0  0.54074  0.93624  0.03700  1.0000 -0.0981758178
C   C76       1.0  0.93624  0.54074  0.46300  1.0000 -0.0981758178
C   C77       1.0  0.41514  0.04554  0.02440  1.0000 -0.1604838825
C   C78       1.0  0.04554  0.41514  0.47560  1.0000 -0.1604838825
C   C79       1.0  0.58486  0.95446  0.97560  1.0000 -0.1604838825
C   C80       1.0  0.95446  0.58486  0.52440  1.0000 -0.1604838825
C   C81       1.0  0.44470  0.05938  0.11530  1.0000 -0.0700710756
C   C82       1.0  0.05938  0.44470  0.38470  1.0000 -0.0700710756
C   C83       1.0  0.55530  0.94062  0.88470  1.0000 -0.0700710756
C   C84       1.0  0.94062  0.55530  0.61530  1.0000 -0.0700710756
C   C85       1.0  0.51774  0.09052  0.14530  1.0000 -0.0815158155
C   C86       1.0  0.09052  0.51774  0.35470  1.0000 -0.0815158155
C   C87       1.0  0.48226  0.90948  0.85470  1.0000 -0.0815158155
C   C88       1.0  0.90948  0.48226  0.64530  1.0000 -0.0815158155
C   C89       1.0  0.27941  0.92741  0.85320  1.0000 -0.0815158155
C   C90       1.0  0.92741  0.27941  0.64680  1.0000 -0.0815158155
C   C91       1.0  0.72059  0.07259  0.14680  1.0000 -0.0815158155
C   C92       1.0  0.07259  0.72059  0.35320  1.0000 -0.0815158155
C   C93       1.0  0.29680  0.99202  0.87040  1.0000 -0.1604838825
C   C94       1.0  0.99202  0.29680  0.62960  1.0000 -0.1604838825
C   C95       1.0  0.70320  0.00798  0.12960  1.0000 -0.1604838825
C   C96       1.0  0.00798  0.70320  0.37040  1.0000 -0.1604838825
C   C97       1.0  0.29511  0.04517  0.79640  1.0000 -0.0815158155
C   C98       1.0  0.04517  0.29511  0.70360  1.0000 -0.0815158155
C   C99       1.0  0.70489  0.95483  0.20360  1.0000 -0.0815158155
C   C100      1.0  0.95483  0.70489  0.29640  1.0000 -0.0815158155
C   C101      1.0  0.29598  0.06644  0.99260  1.0000 -0.1604838825
C   C102      1.0  0.06644  0.29598  0.50740  1.0000 -0.1652664677
C   C103      1.0  0.70402  0.93356  0.00740  1.0000 -0.1652664677
C   C104      1.0  0.93356  0.70402  0.49260  1.0000 -0.1604838825
C   C105      1.0  0.34496  0.13832  0.99740  1.0000 -0.0981758178
C   C106      1.0  0.13832  0.34496  0.50260  1.0000 -0.0981758178
C   C107      1.0  0.65504  0.86168  0.00260  1.0000 -0.0981758178
C   C108      1.0  0.86168  0.65504  0.49740  1.0000 -0.0981758178
C   C109      1.0  0.32223  0.18389  0.99900  1.0000 -0.0202256861
C   C110      1.0  0.18389  0.32223  0.50100  1.0000 -0.0202256861
C   C111      1.0  0.67777  0.81611  0.00100  1.0000 -0.0202256861
C   C112      1.0  0.81611  0.67777  0.49900  1.0000 -0.0202256861
C   C113      1.0  0.24976  0.15690  0.99330  1.0000 -0.0981758178
C   C114      1.0  0.15690  0.24976  0.50670  1.0000 -0.0981758178
C   C115      1.0  0.75024  0.84310  0.00670  1.0000 -0.0981758178
C   C116      1.0  0.84310  0.75024  0.49330  1.0000 -0.0981758178
C   C117      1.0  0.20041  0.08461  0.98920  1.0000 -0.0981758178
C   C118      1.0  0.08461  0.20041  0.51080  1.0000 -0.0981758178
C   C119      1.0  0.79959  0.91539  0.01080  1.0000 -0.0981758178
C   C120      1.0  0.91539  0.79959  0.48920  1.0000 -0.0981758178
C   C121      1.0  0.22325  0.04003  0.98930  1.0000 -0.0815158155
C   C122      1.0  0.04003  0.22325  0.51070  1.0000 -0.0815158155
C   C123      1.0  0.77675  0.95997  0.01070  1.0000 -0.0815158155
C   C124      1.0  0.95997  0.77675  0.48930  1.0000 -0.0815158155
C   C125      1.0  0.37519  0.26123  0.00660  1.0000 0.5382123306
C   C126      1.0  0.26123  0.37519  0.49340  1.0000 0.5382123306
C   C127      1.0  0.62481  0.73877  0.99340  1.0000 0.5382123306
C   C128      1.0  0.73877  0.62481  0.50660  1.0000 0.5382123306
C   C129      1.0  0.50024  0.60898  0.45840  1.0000 0.5801964516
C   C130      1.0  0.60898  0.50024  0.04160  1.0000 0.5801964516
C   C131      1.0  0.49976  0.39102  0.54160  1.0000 0.5801964516
C   C132      1.0  0.39102  0.49976  0.95840  1.0000 0.5801964516
C   C133      1.0  0.53870  0.68670  0.46330  1.0000 -0.0202256861
C   C134      1.0  0.68670  0.53870  0.03670  1.0000 -0.0202256861
C   C135      1.0  0.46130  0.31330  0.53670  1.0000 -0.0202256861
C   C136      1.0  0.31330  0.46130  0.96330  1.0000 -0.0202256861
C   C137      1.0  0.50064  0.71776  0.46230  1.0000 -0.0815158155
C   C138      1.0  0.71776  0.50064  0.03770  1.0000 -0.0815158155
C   C139      1.0  0.49936  0.28224  0.53770  1.0000 -0.0815158155
C   C140      1.0  0.28224  0.49936  0.96230  1.0000 -0.0815158155
C   C141      1.0  0.53679  0.78989  0.47030  1.0000 -0.1530384407
C   C142      1.0  0.78989  0.53679  0.02970  1.0000 -0.1530384407
C   C143      1.0  0.46321  0.21011  0.52970  1.0000 -0.1530384407
C   C144      1.0  0.21011  0.46321  0.97030  1.0000 -0.1530384407
C   C145      1.0  0.61079  0.83059  0.47950  1.0000 -0.0981758178
C   C146      1.0  0.83059  0.61079  0.02050  1.0000 -0.0981758178
C   C147      1.0  0.38921  0.16941  0.52050  1.0000 -0.0981758178
C   C148      1.0  0.16941  0.38921  0.97950  1.0000 -0.0981758178
C   C149      1.0  0.64876  0.79916  0.47900  1.0000 -0.0981758178
C   C150      1.0  0.79916  0.64876  0.02100  1.0000 -0.0981758178
C   C151      1.0  0.35124  0.20084  0.52100  1.0000 -0.0981758178
C   C152      1.0  0.20084  0.35124  0.97900  1.0000 -0.0981758178
C   C153      1.0  0.61367  0.72781  0.47260  1.0000 -0.0904104233
C   C154      1.0  0.72781  0.61367  0.02740  1.0000 -0.0904104233
C   C155      1.0  0.38633  0.27219  0.52740  1.0000 -0.0904104233
C   C156      1.0  0.27219  0.38633  0.97260  1.0000 -0.0904104233
C   C157      1.0  0.53629  0.91767  0.45980  1.0000 -0.1652664677
C   C158      1.0  0.91767  0.53629  0.04020  1.0000 -0.1652664677
C   C159      1.0  0.46371  0.08233  0.54020  1.0000 -0.1652664677
C   C160      1.0  0.08233  0.46371  0.95980  1.0000 -0.1652664677
C   C161      1.0  0.47045  0.79367  0.59880  1.0000 -0.1604838825
C   C162      1.0  0.79367  0.47045  0.90120  1.0000 -0.1604838825
C   C163      1.0  0.52955  0.20633  0.40120  1.0000 -0.1604838825
C   C164      1.0  0.20633  0.52955  0.09880  1.0000 -0.1604838825
C   C165      1.0  0.51500  0.77566  0.67140  1.0000 -0.0815158155
C   C166      1.0  0.77566  0.51500  0.82860  1.0000 -0.0815158155
C   C167      1.0  0.48500  0.22434  0.32860  1.0000 -0.0815158155
C   C168      1.0  0.22434  0.48500  0.17140  1.0000 -0.0815158155
O   O1        1.0  0.28075  0.75177  0.65262  1.0000 -0.5674742148
O   O2        1.0  0.75177  0.28075  0.84738  1.0000 -0.5674742148
O   O3        1.0  0.71925  0.24823  0.34738  1.0000 -0.5674742148
O   O4        1.0  0.24823  0.71925  0.15262  1.0000 -0.5674742148
O   O5        1.0  0.31129  0.71729  0.80456  1.0000 -0.5402240441
O   O6        1.0  0.71729  0.31129  0.69544  1.0000 -0.5402240441
O   O7        1.0  0.68871  0.28271  0.19544  1.0000 -0.5402240441
O   O8        1.0  0.28271  0.68871  0.30456  1.0000 -0.5402240441
O   O9        1.0  0.34736  0.86292  0.23732  1.0000 -0.2866433845
O   O10       1.0  0.86292  0.34736  0.26268  1.0000 -0.2866433845
O   O11       1.0  0.65264  0.13708  0.76268  1.0000 -0.2866433845
O   O12       1.0  0.13708  0.65264  0.73732  1.0000 -0.2866433845
O   O13       1.0  0.25045  0.80231  0.81347  1.0000 -0.5506692515
O   O14       1.0  0.80231  0.25045  0.68653  1.0000 -0.5506692515
O   O15       1.0  0.74955  0.19769  0.18653  1.0000 -0.5506692515
O   O16       1.0  0.19769  0.74955  0.31347  1.0000 -0.5506692515
O   O17       1.0  0.19835  0.82477  0.66750  1.0000 -0.5506692515
O   O18       1.0  0.82477  0.19835  0.83250  1.0000 -0.5506692515
O   O19       1.0  0.80165  0.17523  0.33250  1.0000 -0.5506692515
O   O20       1.0  0.17523  0.80165  0.16750  1.0000 -0.5506692515
O   O21       1.0  0.41421  0.79369  0.41329  1.0000 -0.6135692284
O   O22       1.0  0.79369  0.41421  0.08671  1.0000 -0.6135692284
O   O23       1.0  0.58579  0.20631  0.58671  1.0000 -0.6135692284
O   O24       1.0  0.20631  0.58579  0.91329  1.0000 -0.6135692284
O   O25       1.0  0.66807  0.13959  0.57247  1.0000 -0.578784062
O   O26       1.0  0.13959  0.66807  0.92753  1.0000 -0.578784062
O   O27       1.0  0.33193  0.86041  0.42753  1.0000 -0.578784062
O   O28       1.0  0.86041  0.33193  0.07247  1.0000 -0.578784062
O   O29       1.0  0.64650  0.14106  0.95566  1.0000 -0.578784062
O   O30       1.0  0.14106  0.64650  0.54434  1.0000 -0.578784062
O   O31       1.0  0.35350  0.85894  0.04434  1.0000 -0.578784062
O   O32       1.0  0.85894  0.35350  0.45566  1.0000 -0.578784062
O   O33       1.0  0.55052  0.10234  0.84326  1.0000 -0.4684545086
O   O34       1.0  0.10234  0.55052  0.65674  1.0000 -0.4684545086
O   O35       1.0  0.44948  0.89766  0.15674  1.0000 -0.4684545086
O   O36       1.0  0.89766  0.44948  0.34326  1.0000 -0.4684545086
O   O37       1.0  0.28030  0.93460  0.05371  1.0000 -0.6184687749
O   O38       1.0  0.93460  0.28030  0.44629  1.0000 -0.6184687749
O   O39       1.0  0.71970  0.06540  0.94629  1.0000 -0.6184687749
O   O40       1.0  0.06540  0.71970  0.55371  1.0000 -0.6184687749
O   O41       1.0  0.61161  0.03801  0.66912  1.0000 -0.4649274633
O   O42       1.0  0.03801  0.61161  0.83088  1.0000 -0.4649274633
O   O43       1.0  0.38839  0.96199  0.33088  1.0000 -0.4649274633
O   O44       1.0  0.96199  0.38839  0.16912  1.0000 -0.4649274633
O   O45       1.0  0.35338  0.29932  0.01180  1.0000 -0.5560462162
O   O46       1.0  0.29932  0.35338  0.48820  1.0000 -0.5560462162
O   O47       1.0  0.64662  0.70068  0.98820  1.0000 -0.5560462162
O   O48       1.0  0.70068  0.64662  0.51180  1.0000 -0.5560462162
O   O49       1.0  0.43993  0.28539  0.01036  1.0000 -0.5402240441
O   O50       1.0  0.28539  0.43993  0.48964  1.0000 -0.5402240441
O   O51       1.0  0.56007  0.71461  0.98964  1.0000 -0.5402240441
O   O52       1.0  0.71461  0.56007  0.51036  1.0000 -0.5402240441
O   O53       1.0  0.53460  0.57984  0.47040  1.0000 -0.5853520319
O   O54       1.0  0.57984  0.53460  0.02960  1.0000 -0.5853520319
O   O55       1.0  0.46540  0.42016  0.52960  1.0000 -0.5853520319
O   O56       1.0  0.42016  0.46540  0.97040  1.0000 -0.5853520319
O   O57       1.0  0.43227  0.57503  0.44549  1.0000 -0.5402240441
O   O58       1.0  0.57503  0.43227  0.05451  1.0000 -0.5402240441
O   O59       1.0  0.56773  0.42497  0.55451  1.0000 -0.5402240441
O   O60       1.0  0.42497  0.56773  0.94549  1.0000 -0.5402240441
