# DDEC6 charges by PACMAN v1.1 (https://github.com/mtap-research/PACMAN-charge/)
data_2013[Co][sit]3[ASR]1
_chemical_formula_sum              "Co12 H120 C216 O52"
_cell_length_a       17.446
_cell_length_b       18.762
_cell_length_c       27.758
_cell_angle_alpha    90
_cell_angle_beta     90
_cell_angle_gamma    90

_symmetry_space_group_name_H-M    "P 1"
_symmetry_Int_Tables_number       1

loop_
  _symmetry_equiv_pos_as_xyz
  'x, y, z'

loop_
  _atom_site_type_symbol
  _atom_site_label
  _atom_site_symmetry_multiplicity
  _atom_site_fract_x
  _atom_site_fract_y
  _atom_site_fract_z
  _atom_site_occupancy
  _atom_site_charge
Co  Co1       1.0  0.50656  0.96678  0.81713  1.0000 1.0939999066
Co  Co2       1.0  0.99344  0.46678  0.18287  1.0000 1.0951955043
Co  Co3       1.0  0.50656  0.96678  0.68287  1.0000 1.0951955043
Co  Co4       1.0  0.99344  0.46678  0.31713  1.0000 1.0951955043
Co  Co5       1.0  0.61866  0.85474  0.75000  1.0000 1.1098109208
Co  Co6       1.0  0.88134  0.35474  0.25000  1.0000 1.1098109208
Co  Co7       1.0  0.49344  0.03322  0.31713  1.0000 1.0939999066
Co  Co8       1.0  0.00656  0.53322  0.68287  1.0000 1.0939999066
Co  Co9       1.0  0.49344  0.03322  0.18287  1.0000 1.0939999066
Co  Co10      1.0  0.00656  0.53322  0.81713  1.0000 1.0939999066
Co  Co11      1.0  0.38134  0.14526  0.25000  1.0000 1.1098109208
Co  Co12      1.0  0.11866  0.64526  0.75000  1.0000 1.1098109208
H   H1        1.0  0.24300  0.00070  0.81720  1.0000 0.1286485896
H   H2        1.0  0.25700  0.50070  0.18280  1.0000 0.1286485896
H   H3        1.0  0.24300  0.00070  0.68280  1.0000 0.1286485896
H   H4        1.0  0.25700  0.50070  0.31720  1.0000 0.1286485896
H   H5        1.0  0.12570  0.02960  0.85000  1.0000 0.1191601556
H   H6        1.0  0.37430  0.52960  0.15000  1.0000 0.1191601556
H   H7        1.0  0.12570  0.02960  0.65000  1.0000 0.1191601556
H   H8        1.0  0.37430  0.52960  0.35000  1.0000 0.1191601556
H   H9        1.0  0.21890  0.05110  0.97850  1.0000 0.1191601556
H   H10       1.0  0.28110  0.55110  0.02150  1.0000 0.1191601556
H   H11       1.0  0.21890  0.05110  0.52150  1.0000 0.1191601556
H   H12       1.0  0.28110  0.55110  0.47850  1.0000 0.1191601556
H   H13       1.0  0.33800  0.02550  0.94600  1.0000 0.1286485896
H   H14       1.0  0.16200  0.52550  0.05400  1.0000 0.1286485896
H   H15       1.0  0.33800  0.02550  0.55400  1.0000 0.1286485896
H   H16       1.0  0.16200  0.52550  0.44600  1.0000 0.1286485896
H   H17       1.0  0.69040  0.04460  0.90480  1.0000 0.1286485896
H   H18       1.0  0.80960  0.54460  0.09520  1.0000 0.1286485896
H   H19       1.0  0.69040  0.04460  0.59520  1.0000 0.1286485896
H   H20       1.0  0.80960  0.54460  0.40480  1.0000 0.1286485896
H   H21       1.0  0.79860  0.08840  0.94180  1.0000 0.1191601556
H   H22       1.0  0.70140  0.58840  0.05820  1.0000 0.1191601556
H   H23       1.0  0.79860  0.08840  0.55820  1.0000 0.1191601556
H   H24       1.0  0.70140  0.58840  0.44180  1.0000 0.1191601556
H   H25       1.0  0.92190  0.93470  0.87960  1.0000 0.1191601556
H   H26       1.0  0.57810  0.43470  0.12040  1.0000 0.1191601556
H   H27       1.0  0.92190  0.93470  0.62040  1.0000 0.1191601556
H   H28       1.0  0.57810  0.43470  0.37960  1.0000 0.1191601556
H   H29       1.0  0.81610  0.90030  0.83670  1.0000 0.1286485896
H   H30       1.0  0.68390  0.40030  0.16330  1.0000 0.1286485896
H   H31       1.0  0.81610  0.90030  0.66330  1.0000 0.1286485896
H   H32       1.0  0.68390  0.40030  0.33670  1.0000 0.1286485896
H   H33       1.0  0.06980  0.31020  0.08670  1.0000 0.1286485896
H   H34       1.0  0.43020  0.81020  0.91330  1.0000 0.1286485896
H   H35       1.0  0.06980  0.31020  0.41330  1.0000 0.1286485896
H   H36       1.0  0.43020  0.81020  0.58670  1.0000 0.1286485896
H   H37       1.0  0.08210  0.23350  0.02400  1.0000 0.1191601556
H   H38       1.0  0.41790  0.73350  0.97600  1.0000 0.1191601556
H   H39       1.0  0.08210  0.23350  0.47600  1.0000 0.1191601556
H   H40       1.0  0.41790  0.73350  0.52400  1.0000 0.1191601556
H   H41       1.0  0.91360  0.11220  0.07720  1.0000 0.1122453177
H   H42       1.0  0.58640  0.61220  0.92280  1.0000 0.1122453177
H   H43       1.0  0.91360  0.11220  0.42280  1.0000 0.1122453177
H   H44       1.0  0.58640  0.61220  0.57720  1.0000 0.1122453177
H   H45       1.0  0.90580  0.18470  0.14320  1.0000 0.1191601556
H   H46       1.0  0.59420  0.68470  0.85680  1.0000 0.1191601556
H   H47       1.0  0.90580  0.18470  0.35680  1.0000 0.1191601556
H   H48       1.0  0.59420  0.68470  0.64320  1.0000 0.1191601556
H   H49       1.0  0.02050  0.00960  0.88810  1.0000 0.1122453177
H   H50       1.0  0.47950  0.50960  0.11190  1.0000 0.1122453177
H   H51       1.0  0.02050  0.00960  0.61190  1.0000 0.1122453177
H   H52       1.0  0.47950  0.50960  0.38810  1.0000 0.1122453177
H   H53       1.0  0.89170  0.09730  0.99230  1.0000 0.1122453177
H   H54       1.0  0.60830  0.59730  0.00770  1.0000 0.1122453177
H   H55       1.0  0.89170  0.09730  0.50770  1.0000 0.1122453177
H   H56       1.0  0.60830  0.59730  0.49230  1.0000 0.1122453177
H   H57       1.0  0.12030  0.12090  0.99320  1.0000 0.1191601556
H   H58       1.0  0.37970  0.62090  0.00680  1.0000 0.1191601556
H   H59       1.0  0.12030  0.12090  0.50680  1.0000 0.1191601556
H   H60       1.0  0.37970  0.62090  0.49320  1.0000 0.1191601556
H   H61       1.0  0.75700  0.99930  0.31720  1.0000 0.1286485896
H   H62       1.0  0.74300  0.49930  0.68280  1.0000 0.1286485896
H   H63       1.0  0.75700  0.99930  0.18280  1.0000 0.1286485896
H   H64       1.0  0.74300  0.49930  0.81720  1.0000 0.1286485896
H   H65       1.0  0.87430  0.97040  0.35000  1.0000 0.1191601556
H   H66       1.0  0.62570  0.47040  0.65000  1.0000 0.1191601556
H   H67       1.0  0.87430  0.97040  0.15000  1.0000 0.1191601556
H   H68       1.0  0.62570  0.47040  0.85000  1.0000 0.1191601556
H   H69       1.0  0.78110  0.94890  0.47850  1.0000 0.1191601556
H   H70       1.0  0.71890  0.44890  0.52150  1.0000 0.1191601556
H   H71       1.0  0.78110  0.94890  0.02150  1.0000 0.1191601556
H   H72       1.0  0.71890  0.44890  0.97850  1.0000 0.1191601556
H   H73       1.0  0.66200  0.97450  0.44600  1.0000 0.1286485896
H   H74       1.0  0.83800  0.47450  0.55400  1.0000 0.1286485896
H   H75       1.0  0.66200  0.97450  0.05400  1.0000 0.1286485896
H   H76       1.0  0.83800  0.47450  0.94600  1.0000 0.1286485896
H   H77       1.0  0.30960  0.95540  0.40480  1.0000 0.1286485896
H   H78       1.0  0.19040  0.45540  0.59520  1.0000 0.1286485896
H   H79       1.0  0.30960  0.95540  0.09520  1.0000 0.1286485896
H   H80       1.0  0.19040  0.45540  0.90480  1.0000 0.1286485896
H   H81       1.0  0.20140  0.91160  0.44180  1.0000 0.1191601556
H   H82       1.0  0.29860  0.41160  0.55820  1.0000 0.1191601556
H   H83       1.0  0.20140  0.91160  0.05820  1.0000 0.1191601556
H   H84       1.0  0.29860  0.41160  0.94180  1.0000 0.1191601556
H   H85       1.0  0.07810  0.06530  0.37960  1.0000 0.1191601556
H   H86       1.0  0.42190  0.56530  0.62040  1.0000 0.1191601556
H   H87       1.0  0.07810  0.06530  0.12040  1.0000 0.1191601556
H   H88       1.0  0.42190  0.56530  0.87960  1.0000 0.1191601556
H   H89       1.0  0.18390  0.09970  0.33670  1.0000 0.1286485896
H   H90       1.0  0.31610  0.59970  0.66330  1.0000 0.1286485896
H   H91       1.0  0.18390  0.09970  0.16330  1.0000 0.1286485896
H   H92       1.0  0.31610  0.59970  0.83670  1.0000 0.1286485896
H   H93       1.0  0.93020  0.68980  0.58670  1.0000 0.1286485896
H   H94       1.0  0.56980  0.18980  0.41330  1.0000 0.1286485896
H   H95       1.0  0.93020  0.68980  0.91330  1.0000 0.1286485896
H   H96       1.0  0.56980  0.18980  0.08670  1.0000 0.1286485896
H   H97       1.0  0.91790  0.76650  0.52400  1.0000 0.1191601556
H   H98       1.0  0.58210  0.26650  0.47600  1.0000 0.1191601556
H   H99       1.0  0.91790  0.76650  0.97600  1.0000 0.1191601556
H   H100      1.0  0.58210  0.26650  0.02400  1.0000 0.1191601556
H   H101      1.0  0.08640  0.88780  0.57720  1.0000 0.1122453177
H   H102      1.0  0.41360  0.38780  0.42280  1.0000 0.1122453177
H   H103      1.0  0.08640  0.88780  0.92280  1.0000 0.1122453177
H   H104      1.0  0.41360  0.38780  0.07720  1.0000 0.1122453177
H   H105      1.0  0.09420  0.81530  0.64320  1.0000 0.1191601556
H   H106      1.0  0.40580  0.31530  0.35680  1.0000 0.1191601556
H   H107      1.0  0.09420  0.81530  0.85680  1.0000 0.1191601556
H   H108      1.0  0.40580  0.31530  0.14320  1.0000 0.1191601556
H   H109      1.0  0.97950  0.99040  0.38810  1.0000 0.1122453177
H   H110      1.0  0.52050  0.49040  0.61190  1.0000 0.1122453177
H   H111      1.0  0.97950  0.99040  0.11190  1.0000 0.1122453177
H   H112      1.0  0.52050  0.49040  0.88810  1.0000 0.1122453177
H   H113      1.0  0.10830  0.90270  0.49230  1.0000 0.1122453177
H   H114      1.0  0.39170  0.40270  0.50770  1.0000 0.1122453177
H   H115      1.0  0.10830  0.90270  0.00770  1.0000 0.1122453177
H   H116      1.0  0.39170  0.40270  0.99230  1.0000 0.1122453177
H   H117      1.0  0.87970  0.87910  0.49320  1.0000 0.1191601556
H   H118      1.0  0.62030  0.37910  0.50680  1.0000 0.1191601556
H   H119      1.0  0.87970  0.87910  0.00680  1.0000 0.1191601556
H   H120      1.0  0.62030  0.37910  0.99320  1.0000 0.1191601556
C   C1        1.0  0.38110  0.99920  0.85530  1.0000 0.5369906746
C   C2        1.0  0.11890  0.49920  0.14470  1.0000 0.5369906746
C   C3        1.0  0.38110  0.99920  0.64470  1.0000 0.5369906746
C   C4        1.0  0.11890  0.49920  0.35530  1.0000 0.5369906746
C   C5        1.0  0.30380  0.01380  0.87792  1.0000 -0.0075921218
C   C6        1.0  0.19620  0.51380  0.12208  1.0000 -0.0075921218
C   C7        1.0  0.30380  0.01380  0.62208  1.0000 -0.0075921218
C   C8        1.0  0.19620  0.51380  0.37792  1.0000 -0.0075921218
C   C9        1.0  0.23940  0.01250  0.84970  1.0000 -0.0827684212
C   C10       1.0  0.26060  0.51250  0.15030  1.0000 -0.0827684212
C   C11       1.0  0.23940  0.01250  0.65030  1.0000 -0.0827684212
C   C12       1.0  0.26060  0.51250  0.34970  1.0000 -0.0869440686
C   C13       1.0  0.16860  0.02900  0.86980  1.0000 -0.1595530185
C   C14       1.0  0.33140  0.52900  0.13020  1.0000 -0.1595530185
C   C15       1.0  0.16860  0.02900  0.63020  1.0000 -0.1595530185
C   C16       1.0  0.33140  0.52900  0.36980  1.0000 -0.1595530185
C   C17       1.0  0.15990  0.04400  0.91721  1.0000 0.0710740677
C   C18       1.0  0.34010  0.54400  0.08279  1.0000 0.0710740677
C   C19       1.0  0.15990  0.04400  0.58279  1.0000 0.0710740677
C   C20       1.0  0.34010  0.54400  0.41721  1.0000 0.0710740677
C   C21       1.0  0.22340  0.04210  0.94560  1.0000 -0.1595530185
C   C22       1.0  0.27660  0.54210  0.05440  1.0000 -0.1595530185
C   C23       1.0  0.22340  0.04210  0.55440  1.0000 -0.1655051686
C   C24       1.0  0.27660  0.54210  0.44560  1.0000 -0.1595530185
C   C25       1.0  0.29530  0.02680  0.92600  1.0000 -0.0827684212
C   C26       1.0  0.20470  0.52680  0.07400  1.0000 -0.0827684212
C   C27       1.0  0.29530  0.02680  0.57400  1.0000 -0.0827684212
C   C28       1.0  0.20470  0.52680  0.42600  1.0000 -0.0827684212
C   C29       1.0  0.67340  0.94860  0.83492  1.0000 0.5961339496
C   C30       1.0  0.82660  0.44860  0.16508  1.0000 0.5961339496
C   C31       1.0  0.67340  0.94860  0.66508  1.0000 0.5961339496
C   C32       1.0  0.82660  0.44860  0.33492  1.0000 0.5961339496
C   C33       1.0  0.74210  0.97180  0.86442  1.0000 -0.0155284846
C   C34       1.0  0.75790  0.47180  0.13558  1.0000 -0.0155284846
C   C35       1.0  0.74210  0.97180  0.63558  1.0000 -0.0155284846
C   C36       1.0  0.75790  0.47180  0.36442  1.0000 -0.0155284846
C   C37       1.0  0.73790  0.02470  0.89760  1.0000 -0.0869440686
C   C38       1.0  0.76210  0.52470  0.10240  1.0000 -0.0869440686
C   C39       1.0  0.73790  0.02470  0.60240  1.0000 -0.0869440686
C   C40       1.0  0.76210  0.52470  0.39760  1.0000 -0.0869440686
C   C41       1.0  0.80270  0.04980  0.92100  1.0000 -0.1595530185
C   C42       1.0  0.69730  0.54980  0.07900  1.0000 -0.1595530185
C   C43       1.0  0.80270  0.04980  0.57900  1.0000 -0.1595530185
C   C44       1.0  0.69730  0.54980  0.42100  1.0000 -0.1595530185
C   C45       1.0  0.87320  0.01820  0.91379  1.0000 0.0710740677
C   C46       1.0  0.62680  0.51820  0.08621  1.0000 0.0710740677
C   C47       1.0  0.87320  0.01820  0.58621  1.0000 0.0710740677
C   C48       1.0  0.62680  0.51820  0.41379  1.0000 0.0710740677
C   C49       1.0  0.87620  0.95960  0.88317  1.0000 -0.1595530185
C   C50       1.0  0.62380  0.45960  0.11683  1.0000 -0.1595530185
C   C51       1.0  0.87620  0.95960  0.61683  1.0000 -0.1595530185
C   C52       1.0  0.62380  0.45960  0.38317  1.0000 -0.1595530185
C   C53       1.0  0.81230  0.93810  0.85818  1.0000 -0.0827684212
C   C54       1.0  0.68770  0.43810  0.14182  1.0000 -0.0827684212
C   C55       1.0  0.81230  0.93810  0.64182  1.0000 -0.0827684212
C   C56       1.0  0.68770  0.43810  0.35818  1.0000 -0.0827684212
C   C57       1.0  0.97530  0.30830  0.16265  1.0000 0.5924792014
C   C58       1.0  0.52470  0.80830  0.83735  1.0000 0.5924792014
C   C59       1.0  0.97530  0.30830  0.33735  1.0000 0.5924792014
C   C60       1.0  0.52470  0.80830  0.66265  1.0000 0.5924792014
C   C61       1.0  0.98470  0.25670  0.12250  1.0000 -0.0284035947
C   C62       1.0  0.51530  0.75670  0.87750  1.0000 -0.0284035947
C   C63       1.0  0.98470  0.25670  0.37750  1.0000 -0.0284035947
C   C64       1.0  0.51530  0.75670  0.62250  1.0000 -0.0284035947
C   C65       1.0  0.03880  0.27000  0.08520  1.0000 -0.0827684212
C   C66       1.0  0.46120  0.77000  0.91480  1.0000 -0.0827684212
C   C67       1.0  0.03880  0.27000  0.41480  1.0000 -0.0827684212
C   C68       1.0  0.46120  0.77000  0.58520  1.0000 -0.0827684212
C   C69       1.0  0.04530  0.22440  0.04744  1.0000 -0.1427274771
C   C70       1.0  0.45470  0.72440  0.95256  1.0000 -0.1427274771
C   C71       1.0  0.04530  0.22440  0.45256  1.0000 -0.1427274771
C   C72       1.0  0.45470  0.72440  0.54744  1.0000 -0.1427274771
C   C73       1.0  0.99931  0.16510  0.04276  1.0000 0.0710740677
C   C74       1.0  0.50069  0.66510  0.95724  1.0000 0.0710740677
C   C75       1.0  0.99931  0.16510  0.45724  1.0000 0.0710740677
C   C76       1.0  0.50069  0.66510  0.54276  1.0000 0.0710740677
C   C77       1.0  0.94570  0.15160  0.07949  1.0000 -0.1595530185
C   C78       1.0  0.55430  0.65160  0.92051  1.0000 -0.1595530185
C   C79       1.0  0.94570  0.15160  0.42051  1.0000 -0.1595530185
C   C80       1.0  0.55430  0.65160  0.57949  1.0000 -0.1595530185
C   C81       1.0  0.94010  0.19580  0.11872  1.0000 -0.0869440686
C   C82       1.0  0.55990  0.69580  0.88128  1.0000 -0.0869440686
C   C83       1.0  0.94010  0.19580  0.38128  1.0000 -0.0869440686
C   C84       1.0  0.55990  0.69580  0.61872  1.0000 -0.0869440686
C   C85       1.0  0.08260  0.06010  0.93872  1.0000 0.0893664159
C   C86       1.0  0.41740  0.56010  0.06128  1.0000 0.0893664159
C   C87       1.0  0.08260  0.06010  0.56128  1.0000 0.0893664159
C   C88       1.0  0.41740  0.56010  0.43872  1.0000 0.0893664159
C   C89       1.0  0.01680  0.03480  0.91688  1.0000 -0.1986059487
C   C90       1.0  0.48320  0.53480  0.08312  1.0000 -0.1986059487
C   C91       1.0  0.01680  0.03480  0.58312  1.0000 -0.1986059487
C   C92       1.0  0.48320  0.53480  0.41688  1.0000 -0.1986059487
C   C93       1.0  0.94360  0.04690  0.93786  1.0000 0.0893664159
C   C94       1.0  0.55640  0.54690  0.06214  1.0000 0.0893664159
C   C95       1.0  0.94360  0.04690  0.56214  1.0000 0.0893664159
C   C96       1.0  0.55640  0.54690  0.43786  1.0000 0.0893664159
C   C97       1.0  0.93940  0.08840  0.97863  1.0000 -0.1927256264
C   C98       1.0  0.56060  0.58840  0.02137  1.0000 -0.1927256264
C   C99       1.0  0.93940  0.08840  0.52137  1.0000 -0.1927256264
C   C100      1.0  0.56060  0.58840  0.47863  1.0000 -0.1927256264
C   C101      1.0  0.00490  0.11780  0.00010  1.0000 0.0893664159
C   C102      1.0  0.49510  0.61780  0.99990  1.0000 0.0893664159
C   C103      1.0  0.00490  0.11780  0.49990  1.0000 0.0893664159
C   C104      1.0  0.49510  0.61780  0.50010  1.0000 0.0893664159
C   C105      1.0  0.07610  0.10230  0.97932  1.0000 -0.1986059487
C   C106      1.0  0.42390  0.60230  0.02068  1.0000 -0.1986059487
C   C107      1.0  0.07610  0.10230  0.52068  1.0000 -0.1986059487
C   C108      1.0  0.42390  0.60230  0.47932  1.0000 -0.1986059487
C   C109      1.0  0.61890  0.00080  0.35530  1.0000 0.5369906746
C   C110      1.0  0.88110  0.50080  0.64470  1.0000 0.5369906746
C   C111      1.0  0.61890  0.00080  0.14470  1.0000 0.5369906746
C   C112      1.0  0.88110  0.50080  0.85530  1.0000 0.5369906746
C   C113      1.0  0.69620  0.98620  0.37792  1.0000 -0.0075921218
C   C114      1.0  0.80380  0.48620  0.62208  1.0000 -0.0075921218
C   C115      1.0  0.69620  0.98620  0.12208  1.0000 -0.0075921218
C   C116      1.0  0.80380  0.48620  0.87792  1.0000 -0.0075921218
C   C117      1.0  0.76060  0.98750  0.34970  1.0000 -0.0827684212
C   C118      1.0  0.73940  0.48750  0.65030  1.0000 -0.0827684212
C   C119      1.0  0.76060  0.98750  0.15030  1.0000 -0.0827684212
C   C120      1.0  0.73940  0.48750  0.84970  1.0000 -0.0827684212
C   C121      1.0  0.83140  0.97100  0.36980  1.0000 -0.1595530185
C   C122      1.0  0.66860  0.47100  0.63020  1.0000 -0.1595530185
C   C123      1.0  0.83140  0.97100  0.13020  1.0000 -0.1595530185
C   C124      1.0  0.66860  0.47100  0.86980  1.0000 -0.1595530185
C   C125      1.0  0.84010  0.95600  0.41721  1.0000 0.0710740677
C   C126      1.0  0.65990  0.45600  0.58279  1.0000 0.0710740677
C   C127      1.0  0.84010  0.95600  0.08279  1.0000 0.0710740677
C   C128      1.0  0.65990  0.45600  0.91721  1.0000 0.0710740677
C   C129      1.0  0.77660  0.95790  0.44560  1.0000 -0.1595530185
C   C130      1.0  0.72340  0.45790  0.55440  1.0000 -0.1595530185
C   C131      1.0  0.77660  0.95790  0.05440  1.0000 -0.1595530185
C   C132      1.0  0.72340  0.45790  0.94560  1.0000 -0.1595530185
C   C133      1.0  0.70470  0.97320  0.42600  1.0000 -0.0827684212
C   C134      1.0  0.79530  0.47320  0.57400  1.0000 -0.0827684212
C   C135      1.0  0.70470  0.97320  0.07400  1.0000 -0.0827684212
C   C136      1.0  0.79530  0.47320  0.92600  1.0000 -0.0827684212
C   C137      1.0  0.32660  0.05140  0.33492  1.0000 0.5961339496
C   C138      1.0  0.17340  0.55140  0.66508  1.0000 0.5961339496
C   C139      1.0  0.32660  0.05140  0.16508  1.0000 0.5961339496
C   C140      1.0  0.17340  0.55140  0.83492  1.0000 0.5961339496
C   C141      1.0  0.25790  0.02820  0.36442  1.0000 -0.0155284846
C   C142      1.0  0.24210  0.52820  0.63558  1.0000 -0.0155284846
C   C143      1.0  0.25790  0.02820  0.13558  1.0000 -0.0155284846
C   C144      1.0  0.24210  0.52820  0.86442  1.0000 -0.0155284846
C   C145      1.0  0.26210  0.97530  0.39760  1.0000 -0.0869440686
C   C146      1.0  0.23790  0.47530  0.60240  1.0000 -0.0869440686
C   C147      1.0  0.26210  0.97530  0.10240  1.0000 -0.0869440686
C   C148      1.0  0.23790  0.47530  0.89760  1.0000 -0.0869440686
C   C149      1.0  0.19730  0.95020  0.42100  1.0000 -0.1595530185
C   C150      1.0  0.30270  0.45020  0.57900  1.0000 -0.1595530185
C   C151      1.0  0.19730  0.95020  0.07900  1.0000 -0.1595530185
C   C152      1.0  0.30270  0.45020  0.92100  1.0000 -0.1595530185
C   C153      1.0  0.12680  0.98180  0.41379  1.0000 0.0710740677
C   C154      1.0  0.37320  0.48180  0.58621  1.0000 0.0710740677
C   C155      1.0  0.12680  0.98180  0.08621  1.0000 0.0710740677
C   C156      1.0  0.37320  0.48180  0.91379  1.0000 0.0710740677
C   C157      1.0  0.12380  0.04040  0.38317  1.0000 -0.1595530185
C   C158      1.0  0.37620  0.54040  0.61683  1.0000 -0.1595530185
C   C159      1.0  0.12380  0.04040  0.11683  1.0000 -0.1595530185
C   C160      1.0  0.37620  0.54040  0.88317  1.0000 -0.1595530185
C   C161      1.0  0.18770  0.06190  0.35818  1.0000 -0.0827684212
C   C162      1.0  0.31230  0.56190  0.64182  1.0000 -0.0827684212
C   C163      1.0  0.18770  0.06190  0.14182  1.0000 -0.0827684212
C   C164      1.0  0.31230  0.56190  0.85818  1.0000 -0.0827684212
C   C165      1.0  0.02470  0.69170  0.66265  1.0000 0.5924792014
C   C166      1.0  0.47530  0.19170  0.33735  1.0000 0.5924792014
C   C167      1.0  0.02470  0.69170  0.83735  1.0000 0.5924792014
C   C168      1.0  0.47530  0.19170  0.16265  1.0000 0.5924792014
C   C169      1.0  0.01530  0.74330  0.62250  1.0000 -0.0284035947
C   C170      1.0  0.48470  0.24330  0.37750  1.0000 -0.0284035947
C   C171      1.0  0.01530  0.74330  0.87750  1.0000 -0.0284035947
C   C172      1.0  0.48470  0.24330  0.12250  1.0000 -0.0284035947
C   C173      1.0  0.96120  0.73000  0.58520  1.0000 -0.0827684212
C   C174      1.0  0.53880  0.23000  0.41480  1.0000 -0.0827684212
C   C175      1.0  0.96120  0.73000  0.91480  1.0000 -0.0827684212
C   C176      1.0  0.53880  0.23000  0.08520  1.0000 -0.0827684212
C   C177      1.0  0.95470  0.77560  0.54744  1.0000 -0.1427274771
C   C178      1.0  0.54530  0.27560  0.45256  1.0000 -0.1427274771
C   C179      1.0  0.95470  0.77560  0.95256  1.0000 -0.1427274771
C   C180      1.0  0.54530  0.27560  0.04744  1.0000 -0.1427274771
C   C181      1.0  0.00069  0.83490  0.54276  1.0000 0.0710740677
C   C182      1.0  0.49931  0.33490  0.45724  1.0000 0.0710740677
C   C183      1.0  0.00069  0.83490  0.95724  1.0000 0.0710740677
C   C184      1.0  0.49931  0.33490  0.04276  1.0000 0.0710740677
C   C185      1.0  0.05430  0.84840  0.57949  1.0000 -0.1595530185
C   C186      1.0  0.44570  0.34840  0.42051  1.0000 -0.1595530185
C   C187      1.0  0.05430  0.84840  0.92051  1.0000 -0.1595530185
C   C188      1.0  0.44570  0.34840  0.07949  1.0000 -0.1595530185
C   C189      1.0  0.05990  0.80420  0.61872  1.0000 -0.0869440686
C   C190      1.0  0.44010  0.30420  0.38128  1.0000 -0.0869440686
C   C191      1.0  0.05990  0.80420  0.88128  1.0000 -0.0869440686
C   C192      1.0  0.44010  0.30420  0.11872  1.0000 -0.0869440686
C   C193      1.0  0.91740  0.93990  0.43872  1.0000 0.0893664159
C   C194      1.0  0.58260  0.43990  0.56128  1.0000 0.0893664159
C   C195      1.0  0.91740  0.93990  0.06128  1.0000 0.0893664159
C   C196      1.0  0.58260  0.43990  0.93872  1.0000 0.0893664159
C   C197      1.0  0.98320  0.96520  0.41688  1.0000 -0.1986059487
C   C198      1.0  0.51680  0.46520  0.58312  1.0000 -0.1986059487
C   C199      1.0  0.98320  0.96520  0.08312  1.0000 -0.1986059487
C   C200      1.0  0.51680  0.46520  0.91688  1.0000 -0.1986059487
C   C201      1.0  0.05640  0.95310  0.43786  1.0000 0.0893664159
C   C202      1.0  0.44360  0.45310  0.56214  1.0000 0.0893664159
C   C203      1.0  0.05640  0.95310  0.06214  1.0000 0.0893664159
C   C204      1.0  0.44360  0.45310  0.93786  1.0000 0.0893664159
C   C205      1.0  0.06060  0.91160  0.47863  1.0000 -0.1927256264
C   C206      1.0  0.43940  0.41160  0.52137  1.0000 -0.1927256264
C   C207      1.0  0.06060  0.91160  0.02137  1.0000 -0.1927256264
C   C208      1.0  0.43940  0.41160  0.97863  1.0000 -0.1927256264
C   C209      1.0  0.99510  0.88220  0.50010  1.0000 0.0893664159
C   C210      1.0  0.50490  0.38220  0.49990  1.0000 0.0893664159
C   C211      1.0  0.99510  0.88220  0.99990  1.0000 0.0893664159
C   C212      1.0  0.50490  0.38220  0.00010  1.0000 0.0893664159
C   C213      1.0  0.92390  0.89770  0.47932  1.0000 -0.1986059487
C   C214      1.0  0.57610  0.39770  0.52068  1.0000 -0.1986059487
C   C215      1.0  0.92390  0.89770  0.02068  1.0000 -0.1986059487
C   C216      1.0  0.57610  0.39770  0.97932  1.0000 -0.1986059487
O   O1        1.0  0.52550  0.92770  0.75000  1.0000 -0.9034342743
O   O2        1.0  0.97450  0.42770  0.25000  1.0000 -0.9034342743
O   O3        1.0  0.43953  0.00410  0.88127  1.0000 -0.5327791512
O   O4        1.0  0.06047  0.50410  0.11873  1.0000 -0.5327791512
O   O5        1.0  0.43953  0.00410  0.61873  1.0000 -0.5327791512
O   O6        1.0  0.06047  0.50410  0.38127  1.0000 -0.5327791512
O   O7        1.0  0.38491  0.98010  0.81294  1.0000 -0.4863643176
O   O8        1.0  0.11509  0.48010  0.18706  1.0000 -0.4863643176
O   O9        1.0  0.38491  0.98010  0.68706  1.0000 -0.4863643176
O   O10       1.0  0.11509  0.48010  0.31294  1.0000 -0.4863643176
O   O11       1.0  0.68344  0.90770  0.80131  1.0000 -0.5173475124
O   O12       1.0  0.81656  0.40770  0.19869  1.0000 -0.5173475124
O   O13       1.0  0.68344  0.90770  0.69869  1.0000 -0.5173475124
O   O14       1.0  0.81656  0.40770  0.30131  1.0000 -0.5173475124
O   O15       1.0  0.60979  0.97210  0.84866  1.0000 -0.5479310654
O   O16       1.0  0.89021  0.47210  0.15134  1.0000 -0.5479310654
O   O17       1.0  0.60979  0.97210  0.65134  1.0000 -0.5479310654
O   O18       1.0  0.89021  0.47210  0.34866  1.0000 -0.5479310654
O   O19       1.0  0.93084  0.29303  0.19600  1.0000 -0.5327791512
O   O20       1.0  0.56916  0.79303  0.80400  1.0000 -0.5327791512
O   O21       1.0  0.93084  0.29303  0.30400  1.0000 -0.5327791512
O   O22       1.0  0.56916  0.79303  0.69600  1.0000 -0.5327791512
O   O23       1.0  0.01320  0.36460  0.15979  1.0000 -0.5132785566
O   O24       1.0  0.48680  0.86460  0.84021  1.0000 -0.5132785566
O   O25       1.0  0.01320  0.36460  0.34021  1.0000 -0.5132785566
O   O26       1.0  0.48680  0.86460  0.65979  1.0000 -0.5132785566
O   O27       1.0  0.47450  0.07230  0.25000  1.0000 -0.9034342743
O   O28       1.0  0.02550  0.57230  0.75000  1.0000 -0.9034342743
O   O29       1.0  0.56047  0.99590  0.38127  1.0000 -0.5327791512
O   O30       1.0  0.93953  0.49590  0.61873  1.0000 -0.5327791512
O   O31       1.0  0.56047  0.99590  0.11873  1.0000 -0.5327791512
O   O32       1.0  0.93953  0.49590  0.88127  1.0000 -0.5327791512
O   O33       1.0  0.61509  0.01990  0.31294  1.0000 -0.4863643176
O   O34       1.0  0.88491  0.51990  0.68706  1.0000 -0.4863643176
O   O35       1.0  0.61509  0.01990  0.18706  1.0000 -0.4863643176
O   O36       1.0  0.88491  0.51990  0.81294  1.0000 -0.4863643176
O   O37       1.0  0.31656  0.09230  0.30131  1.0000 -0.5173475124
O   O38       1.0  0.18344  0.59230  0.69869  1.0000 -0.5173475124
O   O39       1.0  0.31656  0.09230  0.19869  1.0000 -0.5173475124
O   O40       1.0  0.18344  0.59230  0.80131  1.0000 -0.5173475124
O   O41       1.0  0.39021  0.02790  0.34866  1.0000 -0.5479310654
O   O42       1.0  0.10979  0.52790  0.65134  1.0000 -0.5479310654
O   O43       1.0  0.39021  0.02790  0.15134  1.0000 -0.5479310654
O   O44       1.0  0.10979  0.52790  0.84866  1.0000 -0.5479310654
O   O45       1.0  0.06916  0.70697  0.69600  1.0000 -0.5327791512
O   O46       1.0  0.43084  0.20697  0.30400  1.0000 -0.5327791512
O   O47       1.0  0.06916  0.70697  0.80400  1.0000 -0.5327791512
O   O48       1.0  0.43084  0.20697  0.19600  1.0000 -0.5327791512
O   O49       1.0  0.98680  0.63540  0.65979  1.0000 -0.5132785566
O   O50       1.0  0.51320  0.13540  0.34021  1.0000 -0.5132785566
O   O51       1.0  0.98680  0.63540  0.84021  1.0000 -0.5132785566
O   O52       1.0  0.51320  0.13540  0.15979  1.0000 -0.5132785566
