# DDEC6 charges by PACMAN v1.1 (https://github.com/mtap-research/PACMAN-charge/)
data_2013[Cu][tbo]3[ASR]2
_chemical_formula_sum              "Cu12 H24 C72 O48"
_cell_length_a       18.6087
_cell_length_b       18.6087
_cell_length_c       18.6087
_cell_angle_alpha    60
_cell_angle_beta     60
_cell_angle_gamma    60

_symmetry_space_group_name_H-M    "P 1"
_symmetry_Int_Tables_number       1

loop_
  _symmetry_equiv_pos_as_xyz
  'x, y, z'

loop_
  _atom_site_type_symbol
  _atom_site_label
  _atom_site_symmetry_multiplicity
  _atom_site_fract_x
  _atom_site_fract_y
  _atom_site_fract_z
  _atom_site_occupancy
  _atom_site_charge
Cu  Cu1       1.0  0.57054  0.42946  0.00000  1.0000 0.8404783962
Cu  Cu2       1.0  0.42946  0.57054  0.00000  1.0000 0.8404783962
Cu  Cu3       1.0  0.00000  0.00000  0.57054  1.0000 0.8404783962
Cu  Cu4       1.0  0.00000  0.00000  0.42946  1.0000 0.8404783962
Cu  Cu5       1.0  0.00000  0.57054  0.42946  1.0000 0.8404783962
Cu  Cu6       1.0  0.00000  0.42946  0.57054  1.0000 0.8404783962
Cu  Cu7       1.0  0.57054  0.00000  0.00000  1.0000 0.8404783962
Cu  Cu8       1.0  0.42946  0.00000  0.00000  1.0000 0.8404783962
Cu  Cu9       1.0  0.42946  0.00000  0.57054  1.0000 0.8404783962
Cu  Cu10      1.0  0.57054  0.00000  0.42946  1.0000 0.8404783962
Cu  Cu11      1.0  0.00000  0.57054  0.00000  1.0000 0.8404783962
Cu  Cu12      1.0  0.00000  0.42946  0.00000  1.0000 0.8404783962
H   H1        1.0  0.27148  0.48850  0.96855  1.0000 0.1369983711
H   H2        1.0  0.48850  0.27148  0.27147  1.0000 0.1369983711
H   H3        1.0  0.96855  0.27148  0.27147  1.0000 0.1369983711
H   H4        1.0  0.27147  0.96856  0.48850  1.0000 0.1369983711
H   H5        1.0  0.96855  0.27148  0.48850  1.0000 0.1369983711
H   H6        1.0  0.27148  0.48850  0.27147  1.0000 0.1369983711
H   H7        1.0  0.27148  0.96855  0.27147  1.0000 0.1369983711
H   H8        1.0  0.48850  0.27148  0.96855  1.0000 0.1369983711
H   H9        1.0  0.48850  0.96855  0.27147  1.0000 0.1369983711
H   H10       1.0  0.27147  0.27148  0.48850  1.0000 0.1369983711
H   H11       1.0  0.27148  0.27148  0.96855  1.0000 0.1369983711
H   H12       1.0  0.96855  0.48850  0.27147  1.0000 0.1369983711
H   H13       1.0  0.72852  0.51150  0.72852  1.0000 0.1369983711
H   H14       1.0  0.51150  0.72852  0.03145  1.0000 0.1369983711
H   H15       1.0  0.03145  0.72852  0.51150  1.0000 0.1369983711
H   H16       1.0  0.72852  0.03145  0.72852  1.0000 0.1369983711
H   H17       1.0  0.03145  0.72852  0.72852  1.0000 0.1369983711
H   H18       1.0  0.72852  0.51150  0.03145  1.0000 0.1369983711
H   H19       1.0  0.72852  0.03145  0.51150  1.0000 0.1369983711
H   H20       1.0  0.51150  0.72852  0.72852  1.0000 0.1369983711
H   H21       1.0  0.51150  0.03145  0.72852  1.0000 0.1369983711
H   H22       1.0  0.72852  0.72852  0.03145  1.0000 0.1369983711
H   H23       1.0  0.72852  0.72852  0.51150  1.0000 0.1369983711
H   H24       1.0  0.03145  0.51150  0.72852  1.0000 0.1369983711
C   C1        1.0  0.43375  0.43375  0.96873  1.0000 0.5811451334
C   C2        1.0  0.43375  0.43375  0.16377  1.0000 0.5811451334
C   C3        1.0  0.96873  0.16377  0.43375  1.0000 0.5811451334
C   C4        1.0  0.16377  0.96873  0.43375  1.0000 0.5811451334
C   C5        1.0  0.96873  0.43375  0.43375  1.0000 0.5811451334
C   C6        1.0  0.16377  0.43375  0.43375  1.0000 0.5811451334
C   C7        1.0  0.43375  0.96873  0.16377  1.0000 0.5811451334
C   C8        1.0  0.43375  0.16377  0.96873  1.0000 0.5811451334
C   C9        1.0  0.43375  0.96873  0.43375  1.0000 0.5811451334
C   C10       1.0  0.43375  0.16377  0.43375  1.0000 0.5811451334
C   C11       1.0  0.16377  0.43375  0.96873  1.0000 0.5811451334
C   C12       1.0  0.96873  0.43375  0.16377  1.0000 0.5811451334
C   C13       1.0  0.56625  0.56625  0.83623  1.0000 0.5811451334
C   C14       1.0  0.56625  0.56625  0.03127  1.0000 0.5811451334
C   C15       1.0  0.03127  0.83623  0.56625  1.0000 0.5811451334
C   C16       1.0  0.83623  0.03127  0.56625  1.0000 0.5811451334
C   C17       1.0  0.03127  0.56625  0.83623  1.0000 0.5811451334
C   C18       1.0  0.83623  0.56625  0.03127  1.0000 0.5811451334
C   C19       1.0  0.56625  0.03127  0.56625  1.0000 0.5811451334
C   C20       1.0  0.56625  0.83623  0.56625  1.0000 0.5811451334
C   C21       1.0  0.56625  0.03127  0.83623  1.0000 0.5811451334
C   C22       1.0  0.56625  0.83623  0.03127  1.0000 0.5811451334
C   C23       1.0  0.83623  0.56625  0.56625  1.0000 0.5811451334
C   C24       1.0  0.03127  0.56625  0.56625  1.0000 0.5811451334
C   C25       1.0  0.38729  0.38729  0.96857  1.0000 -0.0296335705
C   C26       1.0  0.38729  0.38729  0.25685  1.0000 -0.0296335705
C   C27       1.0  0.96857  0.25685  0.38729  1.0000 -0.0296335705
C   C28       1.0  0.25685  0.96857  0.38729  1.0000 -0.0296335705
C   C29       1.0  0.96857  0.38729  0.38729  1.0000 -0.0296335705
C   C30       1.0  0.25685  0.38729  0.38729  1.0000 -0.0296335705
C   C31       1.0  0.38729  0.96857  0.25685  1.0000 -0.0296335705
C   C32       1.0  0.38729  0.25685  0.96857  1.0000 -0.0296335705
C   C33       1.0  0.38729  0.96857  0.38729  1.0000 -0.0296335705
C   C34       1.0  0.38729  0.25685  0.38729  1.0000 -0.0296335705
C   C35       1.0  0.25685  0.38729  0.96857  1.0000 -0.0296335705
C   C36       1.0  0.96857  0.38729  0.25685  1.0000 -0.0296335705
C   C37       1.0  0.61271  0.61271  0.74315  1.0000 -0.0296335705
C   C38       1.0  0.61271  0.61271  0.03143  1.0000 -0.0296335705
C   C39       1.0  0.03143  0.74315  0.61271  1.0000 -0.0296335705
C   C40       1.0  0.74315  0.03143  0.61271  1.0000 -0.0296335705
C   C41       1.0  0.03143  0.61271  0.74315  1.0000 -0.0296335705
C   C42       1.0  0.74315  0.61271  0.03143  1.0000 -0.0296335705
C   C43       1.0  0.61271  0.03143  0.61271  1.0000 -0.0296335705
C   C44       1.0  0.61271  0.74315  0.61271  1.0000 -0.0296335705
C   C45       1.0  0.61271  0.03143  0.74315  1.0000 -0.0296335705
C   C46       1.0  0.61271  0.74315  0.03143  1.0000 -0.0296335705
C   C47       1.0  0.74315  0.61271  0.61271  1.0000 -0.0296335705
C   C48       1.0  0.03143  0.61271  0.61271  1.0000 -0.0296335705
C   C49       1.0  0.30033  0.43077  0.96857  1.0000 -0.0912848809
C   C50       1.0  0.43077  0.30033  0.30033  1.0000 -0.0912848809
C   C51       1.0  0.96857  0.30033  0.30033  1.0000 -0.0912848809
C   C52       1.0  0.30033  0.96857  0.43077  1.0000 -0.0912848809
C   C53       1.0  0.96857  0.30033  0.43077  1.0000 -0.0912848809
C   C54       1.0  0.30033  0.43077  0.30033  1.0000 -0.0912848809
C   C55       1.0  0.30033  0.96857  0.30033  1.0000 -0.0912848809
C   C56       1.0  0.43077  0.30033  0.96857  1.0000 -0.0912848809
C   C57       1.0  0.43077  0.96857  0.30033  1.0000 -0.0912848809
C   C58       1.0  0.30033  0.30033  0.43077  1.0000 -0.0912848809
C   C59       1.0  0.30033  0.30033  0.96857  1.0000 -0.0912848809
C   C60       1.0  0.96857  0.43077  0.30033  1.0000 -0.0912848809
C   C61       1.0  0.69967  0.56923  0.69967  1.0000 -0.0912848809
C   C62       1.0  0.56923  0.69967  0.03143  1.0000 -0.0912848809
C   C63       1.0  0.03143  0.69967  0.56923  1.0000 -0.0912848809
C   C64       1.0  0.69967  0.03143  0.69967  1.0000 -0.0912848809
C   C65       1.0  0.03143  0.69967  0.69967  1.0000 -0.0912848809
C   C66       1.0  0.69967  0.56923  0.03143  1.0000 -0.0912848809
C   C67       1.0  0.69967  0.03143  0.56923  1.0000 -0.0912848809
C   C68       1.0  0.56923  0.69967  0.69967  1.0000 -0.0912848809
C   C69       1.0  0.56923  0.03143  0.69967  1.0000 -0.0912848809
C   C70       1.0  0.69967  0.69967  0.03143  1.0000 -0.0912848809
C   C71       1.0  0.69967  0.69967  0.56923  1.0000 -0.0912848809
C   C72       1.0  0.03143  0.56923  0.69967  1.0000 -0.0912848809
O   O1        1.0  0.51102  0.39186  0.96882  1.0000 -0.5087321256
O   O2        1.0  0.39186  0.51102  0.12830  1.0000 -0.5087321256
O   O3        1.0  0.96882  0.12830  0.51102  1.0000 -0.5087321256
O   O4        1.0  0.12830  0.96882  0.39186  1.0000 -0.5087321256
O   O5        1.0  0.96882  0.51102  0.39186  1.0000 -0.5087321256
O   O6        1.0  0.12830  0.39186  0.51102  1.0000 -0.5087321256
O   O7        1.0  0.51102  0.96882  0.12830  1.0000 -0.5087321256
O   O8        1.0  0.39186  0.12830  0.96882  1.0000 -0.5087321256
O   O9        1.0  0.39186  0.96882  0.51102  1.0000 -0.5087321256
O   O10       1.0  0.51102  0.12830  0.39186  1.0000 -0.5087321256
O   O11       1.0  0.12830  0.51102  0.96882  1.0000 -0.5087321256
O   O12       1.0  0.96882  0.39186  0.12830  1.0000 -0.5087321256
O   O13       1.0  0.48898  0.60814  0.87170  1.0000 -0.5087321256
O   O14       1.0  0.60814  0.48898  0.03118  1.0000 -0.5087321256
O   O15       1.0  0.03118  0.87170  0.60814  1.0000 -0.5087321256
O   O16       1.0  0.87170  0.03118  0.48898  1.0000 -0.5087321256
O   O17       1.0  0.03118  0.48898  0.87170  1.0000 -0.5087321256
O   O18       1.0  0.87170  0.60814  0.03118  1.0000 -0.5087321256
O   O19       1.0  0.48898  0.03118  0.60814  1.0000 -0.5087321256
O   O20       1.0  0.60814  0.87170  0.48898  1.0000 -0.5087321256
O   O21       1.0  0.60814  0.03118  0.87170  1.0000 -0.5087321256
O   O22       1.0  0.48898  0.87170  0.03118  1.0000 -0.5087321256
O   O23       1.0  0.87170  0.48898  0.60814  1.0000 -0.5087321256
O   O24       1.0  0.03118  0.60814  0.48898  1.0000 -0.5087321256
O   O25       1.0  0.48898  0.60814  0.03118  1.0000 -0.5087321256
O   O26       1.0  0.60814  0.48898  0.87170  1.0000 -0.5087321256
O   O27       1.0  0.03118  0.87170  0.48898  1.0000 -0.5087321256
O   O28       1.0  0.87170  0.03118  0.60814  1.0000 -0.5087321256
O   O29       1.0  0.03118  0.48898  0.60814  1.0000 -0.5087321256
O   O30       1.0  0.87170  0.60814  0.48898  1.0000 -0.5087321256
O   O31       1.0  0.48898  0.03118  0.87170  1.0000 -0.5087321256
O   O32       1.0  0.60814  0.87170  0.03118  1.0000 -0.5087321256
O   O33       1.0  0.60814  0.03118  0.48898  1.0000 -0.5087321256
O   O34       1.0  0.48898  0.87170  0.60814  1.0000 -0.5087321256
O   O35       1.0  0.87170  0.48898  0.03118  1.0000 -0.5087321256
O   O36       1.0  0.03118  0.60814  0.87170  1.0000 -0.5087321256
O   O37       1.0  0.51102  0.39186  0.12830  1.0000 -0.5087321256
O   O38       1.0  0.39186  0.51102  0.96882  1.0000 -0.5087321256
O   O39       1.0  0.96882  0.12830  0.39186  1.0000 -0.5087321256
O   O40       1.0  0.12830  0.96882  0.51102  1.0000 -0.5087321256
O   O41       1.0  0.96882  0.51102  0.12830  1.0000 -0.5087321256
O   O42       1.0  0.12830  0.39186  0.96882  1.0000 -0.5087321256
O   O43       1.0  0.51102  0.96882  0.39186  1.0000 -0.5087321256
O   O44       1.0  0.39186  0.12830  0.51102  1.0000 -0.5087321256
O   O45       1.0  0.39186  0.96882  0.12830  1.0000 -0.5087321256
O   O46       1.0  0.51102  0.12830  0.96882  1.0000 -0.5087321256
O   O47       1.0  0.12830  0.51102  0.39186  1.0000 -0.5087321256
O   O48       1.0  0.96882  0.39186  0.51102  1.0000 -0.5087321256
