# DDEC6 charges by PACMAN v1.1 (https://github.com/mtap-research/PACMAN-charge/)
data_2013[Zr][nan]3[ASR]1
_chemical_formula_sum              "Zr4 C8 O16"
_cell_length_a       9.80032
_cell_length_b       9.80032
_cell_length_c       9.80032
_cell_angle_alpha    98.4715
_cell_angle_beta     98.4715
_cell_angle_gamma    134.859

_symmetry_space_group_name_H-M    "P 1"
_symmetry_Int_Tables_number       1

loop_
  _symmetry_equiv_pos_as_xyz
  'x, y, z'

loop_
  _atom_site_type_symbol
  _atom_site_label
  _atom_site_symmetry_multiplicity
  _atom_site_fract_x
  _atom_site_fract_y
  _atom_site_fract_z
  _atom_site_occupancy
  _atom_site_charge
Zr  Zr1       1.0  0.80431  0.69942  0.50373  1.0000 1.6698165494
Zr  Zr2       1.0  0.30058  0.80431  0.10489  1.0000 1.6698165494
Zr  Zr3       1.0  0.19569  0.30058  0.49627  1.0000 1.6698165494
Zr  Zr4       1.0  0.69942  0.19569  0.89511  1.0000 1.6698165494
C   C1        1.0  0.45090  0.65630  0.31440  1.0000 0.4842000561
C   C2        1.0  0.13650  0.45090  0.79460  1.0000 0.4861898082
C   C3        1.0  0.34190  0.13650  0.68560  1.0000 0.4842000561
C   C4        1.0  0.65630  0.34190  0.20540  1.0000 0.4861898082
C   C5        1.0  0.54910  0.34370  0.68560  1.0000 0.4842000561
C   C6        1.0  0.86350  0.54910  0.20540  1.0000 0.4842000561
C   C7        1.0  0.65810  0.86350  0.31440  1.0000 0.4842000561
C   C8        1.0  0.34370  0.65810  0.79460  1.0000 0.4842000561
O   O1        1.0  0.46190  0.57440  0.39330  1.0000 -0.6818583576
O   O2        1.0  0.06860  0.46190  0.88750  1.0000 -0.6818583576
O   O3        1.0  0.18110  0.06860  0.60670  1.0000 -0.6818583576
O   O4        1.0  0.57440  0.18110  0.11250  1.0000 -0.6818583576
O   O5        1.0  0.53810  0.42560  0.60670  1.0000 -0.6818583576
O   O6        1.0  0.93140  0.53810  0.11250  1.0000 -0.6818583576
O   O7        1.0  0.81890  0.93140  0.39330  1.0000 -0.6818583576
O   O8        1.0  0.42560  0.81890  0.88750  1.0000 -0.6818583576
O   O9        1.0  0.29080  0.59090  0.23570  1.0000 -0.6377474112
O   O10       1.0  0.05510  0.29080  0.69990  1.0000 -0.6377474112
O   O11       1.0  0.35520  0.05510  0.76430  1.0000 -0.6377474112
O   O12       1.0  0.59090  0.35520  0.30010  1.0000 -0.6377474112
O   O13       1.0  0.70920  0.40910  0.76430  1.0000 -0.6377474112
O   O14       1.0  0.94490  0.70920  0.30010  1.0000 -0.6377474112
O   O15       1.0  0.64480  0.94490  0.23570  1.0000 -0.6377474112
O   O16       1.0  0.40910  0.64480  0.69990  1.0000 -0.6377474112
