# DDEC6 charges by PACMAN v1.1 (https://github.com/mtap-research/PACMAN-charge/)
data_2013[CrMn][lig]3[ASR]1
_chemical_formula_sum              "Mn4 Cr4 C24 O48"
_cell_length_a       18.4382
_cell_length_b       16.2318
_cell_length_c       15.4259
_cell_angle_alpha    71.1904
_cell_angle_beta     56.4417
_cell_angle_gamma    52.3679

_symmetry_space_group_name_H-M    "P 1"
_symmetry_Int_Tables_number       1

loop_
  _symmetry_equiv_pos_as_xyz
  'x, y, z'

loop_
  _atom_site_type_symbol
  _atom_site_label
  _atom_site_symmetry_multiplicity
  _atom_site_fract_x
  _atom_site_fract_y
  _atom_site_fract_z
  _atom_site_occupancy
  _atom_site_charge
Mn  Mn1       1.0  0.66392  0.49516  0.85270  1.0000 1.0045404069
Mn  Mn2       1.0  0.98822  0.85270  0.49516  1.0000 1.0045404069
Mn  Mn3       1.0  0.39730  0.26178  0.58608  1.0000 1.0045404069
Mn  Mn4       1.0  0.75484  0.58608  0.26178  1.0000 1.0045404069
Cr  Cr1       1.0  0.82395  0.26435  0.52981  1.0000 1.2296204202
Cr  Cr2       1.0  0.38189  0.52981  0.26435  1.0000 1.2296204202
Cr  Cr3       1.0  0.72019  0.86811  0.42605  1.0000 1.2296204202
Cr  Cr4       1.0  0.98565  0.42605  0.86811  1.0000 1.2296204202
C   C1        1.0  0.78780  0.31720  0.70580  1.0000 0.5212093152
C   C2        1.0  0.18920  0.70580  0.31720  1.0000 0.5212093152
C   C3        1.0  0.54420  0.06080  0.46220  1.0000 0.5212093152
C   C4        1.0  0.93280  0.46220  0.06080  1.0000 0.5212093152
C   C5        1.0  0.69140  0.40080  0.69040  1.0000 0.5321106546
C   C6        1.0  0.21740  0.69040  0.40080  1.0000 0.5321106546
C   C7        1.0  0.55960  0.03260  0.55860  1.0000 0.5321106546
C   C8        1.0  0.84920  0.55860  0.03260  1.0000 0.5321106546
C   C9        1.0  0.82840  0.41400  0.90800  1.0000 0.5059337251
C   C10       1.0  0.84960  0.90800  0.41400  1.0000 0.5059337251
C   C11       1.0  0.34200  0.40040  0.42160  1.0000 0.5059337251
C   C12       1.0  0.83600  0.42160  0.40040  1.0000 0.5059337251
C   C13       1.0  0.85390  0.47190  0.80430  1.0000 0.5212093152
C   C14       1.0  0.86990  0.80430  0.47190  1.0000 0.5212093152
C   C15       1.0  0.44570  0.38010  0.39610  1.0000 0.5212093152
C   C16       1.0  0.77810  0.39610  0.38010  1.0000 0.5212093152
C   C17       1.0  0.85320  0.07280  0.56100  1.0000 0.5212093152
C   C18       1.0  0.51300  0.56100  0.07280  1.0000 0.5212093152
C   C19       1.0  0.68900  0.73700  0.39680  1.0000 0.5212093152
C   C20       1.0  0.17720  0.39680  0.73700  1.0000 0.5212093152
C   C21       1.0  0.95610  0.05770  0.47370  1.0000 0.5212093152
C   C22       1.0  0.51250  0.47370  0.05770  1.0000 0.5212093152
C   C23       1.0  0.77630  0.73750  0.29390  1.0000 0.5212093152
C   C24       1.0  0.19230  0.29390  0.73750  1.0000 0.5212093152
O   O1        1.0  0.79301  0.33301  0.77419  1.0000 -0.3724818744
O   O2        1.0  0.09979  0.77419  0.33301  1.0000 -0.3724818744
O   O3        1.0  0.47581  0.15021  0.45699  1.0000 -0.3724818744
O   O4        1.0  0.91699  0.45699  0.15021  1.0000 -0.3724818744
O   O5        1.0  0.62260  0.47900  0.74960  1.0000 -0.4107241325
O   O6        1.0  0.14880  0.74960  0.47900  1.0000 -0.4107241325
O   O7        1.0  0.50040  0.10120  0.62740  1.0000 -0.4107241325
O   O8        1.0  0.77100  0.62740  0.10120  1.0000 -0.4107241325
O   O9        1.0  0.85561  0.24141  0.64159  1.0000 -0.5201732434
O   O10       1.0  0.26139  0.64159  0.24141  1.0000 -0.5201732434
O   O11       1.0  0.60841  0.98861  0.39439  1.0000 -0.5201732434
O   O12       1.0  0.00859  0.39439  0.98861  1.0000 -0.5201732434
O   O13       1.0  0.68825  0.38309  0.61971  1.0000 -0.5097586963
O   O14       1.0  0.30895  0.61971  0.38309  1.0000 -0.5097586963
O   O15       1.0  0.63029  0.94105  0.56175  1.0000 -0.5097586963
O   O16       1.0  0.86691  0.56175  0.94105  1.0000 -0.5097586963
O   O17       1.0  0.75335  0.40819  0.94901  1.0000 -0.3317026191
O   O18       1.0  0.88945  0.94901  0.40819  1.0000 -0.3317026191
O   O19       1.0  0.30099  0.36055  0.49665  1.0000 -0.3317026191
O   O20       1.0  0.84181  0.49665  0.36055  1.0000 -0.3317026191
O   O21       1.0  0.79576  0.51196  0.76784  1.0000 -0.3898325779
O   O22       1.0  0.92444  0.76784  0.51196  1.0000 -0.3898325779
O   O23       1.0  0.48216  0.32556  0.45424  1.0000 -0.3898325779
O   O24       1.0  0.73804  0.45424  0.32556  1.0000 -0.3898325779
O   O25       1.0  0.89256  0.37556  0.94304  1.0000 -0.5201732434
O   O26       1.0  0.78884  0.94304  0.37556  1.0000 -0.5201732434
O   O27       1.0  0.30696  0.46116  0.35744  1.0000 -0.5201732434
O   O28       1.0  0.87444  0.35744  0.46116  1.0000 -0.5201732434
O   O29       1.0  0.93578  0.47056  0.76624  1.0000 -0.5048709281
O   O30       1.0  0.82742  0.76624  0.47056  1.0000 -0.5048709281
O   O31       1.0  0.48376  0.42258  0.31422  1.0000 -0.5048709281
O   O32       1.0  0.77944  0.31422  0.42258  1.0000 -0.5048709281
O   O33       1.0  0.84723  0.99643  0.59597  1.0000 -0.3961332805
O   O34       1.0  0.56037  0.59597  0.99643  1.0000 -0.3961332805
O   O35       1.0  0.65403  0.68963  0.40277  1.0000 -0.3961332805
O   O36       1.0  0.25357  0.40277  0.68963  1.0000 -0.3961332805
O   O37       1.0  0.02869  0.97069  0.43451  1.0000 -0.3724818744
O   O38       1.0  0.56611  0.43451  0.97069  1.0000 -0.3724818744
O   O39       1.0  0.81549  0.68389  0.22131  1.0000 -0.3724818744
O   O40       1.0  0.27931  0.22131  0.68389  1.0000 -0.3724818744
O   O41       1.0  0.77786  0.16706  0.59314  1.0000 -0.5097586963
O   O42       1.0  0.46194  0.59314  0.16706  1.0000 -0.5097586963
O   O43       1.0  0.65686  0.78806  0.47214  1.0000 -0.5097586963
O   O44       1.0  0.08294  0.47214  0.78806  1.0000 -0.5048709281
O   O45       1.0  0.95808  0.13988  0.44672  1.0000 -0.5201732434
O   O46       1.0  0.45532  0.44672  0.13988  1.0000 -0.5201732434
O   O47       1.0  0.80328  0.79468  0.29192  1.0000 -0.5201732434
O   O48       1.0  0.11012  0.29192  0.79468  1.0000 -0.5201732434
