# DDEC6 charges by PACMAN v1.1 (https://github.com/mtap-research/PACMAN-charge/)
data_2013[Mo][nan]3[ASR]1
_chemical_formula_sum              "Mo4 P4 H16 C16 O12"
_cell_length_a       11.6941
_cell_length_b       11.6941
_cell_length_c       9.0023
_cell_angle_alpha    70.7738
_cell_angle_beta     109.226
_cell_angle_gamma    126.036

_symmetry_space_group_name_H-M    "P 1"
_symmetry_Int_Tables_number       1

loop_
  _symmetry_equiv_pos_as_xyz
  'x, y, z'

loop_
  _atom_site_type_symbol
  _atom_site_label
  _atom_site_symmetry_multiplicity
  _atom_site_fract_x
  _atom_site_fract_y
  _atom_site_fract_z
  _atom_site_occupancy
  _atom_site_charge
Mo  Mo1       1.0  0.11659  0.58655  0.76367  1.0000 1.2554928202
Mo  Mo2       1.0  0.58655  0.11659  0.73633  1.0000 1.2516862689
Mo  Mo3       1.0  0.88341  0.41345  0.23633  1.0000 1.2516862689
Mo  Mo4       1.0  0.41345  0.88341  0.26367  1.0000 1.2516862689
P   P1        1.0  0.28591  0.90443  0.53892  1.0000 1.3006320137
P   P2        1.0  0.90443  0.28591  0.96108  1.0000 1.3006320137
P   P3        1.0  0.71409  0.09557  0.46108  1.0000 1.3006320137
P   P4        1.0  0.09557  0.71409  0.03892  1.0000 1.3006320137
H   H1        1.0  0.07570  0.82510  0.35540  1.0000 0.1594081361
H   H2        1.0  0.82510  0.07570  0.14460  1.0000 0.1594081361
H   H3        1.0  0.92430  0.17490  0.64460  1.0000 0.1594081361
H   H4        1.0  0.17490  0.92430  0.85540  1.0000 0.1594081361
H   H5        1.0  0.18960  0.99060  0.29760  1.0000 0.1512329194
H   H6        1.0  0.99060  0.18960  0.20240  1.0000 0.1512329194
H   H7        1.0  0.81040  0.00940  0.70240  1.0000 0.1512329194
H   H8        1.0  0.00940  0.81040  0.79760  1.0000 0.1512329194
H   H9        1.0  0.88140  0.76860  0.45010  1.0000 0.1083943013
H   H10       1.0  0.76860  0.88140  0.04990  1.0000 0.1083943013
H   H11       1.0  0.11860  0.23140  0.54990  1.0000 0.1083943013
H   H12       1.0  0.23140  0.11860  0.95010  1.0000 0.1083943013
H   H13       1.0  0.76260  0.83240  0.53660  1.0000 0.1164008181
H   H14       1.0  0.83240  0.76260  0.96340  1.0000 0.1164008181
H   H15       1.0  0.23740  0.16760  0.46340  1.0000 0.1164008181
H   H16       1.0  0.16760  0.23740  0.03660  1.0000 0.1164008181
C   C1        1.0  0.14726  0.91874  0.39120  1.0000 -0.5909408193
C   C2        1.0  0.91874  0.14726  0.10880  1.0000 -0.5909408193
C   C3        1.0  0.85274  0.08126  0.60880  1.0000 -0.5909408193
C   C4        1.0  0.08126  0.85274  0.89120  1.0000 -0.5909408193
C   C5        1.0  0.07060  0.96140  0.44700  1.0000 0.1318292383
C   C6        1.0  0.96140  0.07060  0.05300  1.0000 0.1318292383
C   C7        1.0  0.92940  0.03860  0.55300  1.0000 0.1318292383
C   C8        1.0  0.03860  0.92940  0.94700  1.0000 0.1318292383
C   C9        1.0  0.93017  0.86323  0.47010  1.0000 -0.1802081515
C   C10       1.0  0.86323  0.93017  0.02990  1.0000 -0.1802081515
C   C11       1.0  0.06983  0.13677  0.52990  1.0000 -0.1802081515
C   C12       1.0  0.13677  0.06983  0.97010  1.0000 -0.1802081515
C   C13       1.0  0.85946  0.90094  0.52200  1.0000 -0.1741518092
C   C14       1.0  0.90094  0.85946  0.97800  1.0000 -0.1741518092
C   C15       1.0  0.14054  0.09906  0.47800  1.0000 -0.1741518092
C   C16       1.0  0.09906  0.14054  0.02200  1.0000 -0.1741518092
O   O1        1.0  0.22292  0.79868  0.68839  1.0000 -0.7646871072
O   O2        1.0  0.79868  0.22292  0.81161  1.0000 -0.7664990798
O   O3        1.0  0.77708  0.20132  0.31161  1.0000 -0.7664990798
O   O4        1.0  0.20132  0.77708  0.18839  1.0000 -0.7664990798
O   O5        1.0  0.34891  0.85371  0.47346  1.0000 -0.7664990798
O   O6        1.0  0.85371  0.34891  0.02654  1.0000 -0.7664990798
O   O7        1.0  0.65109  0.14629  0.52654  1.0000 -0.7664990798
O   O8        1.0  0.14629  0.65109  0.97346  1.0000 -0.7664990798
O   O9        1.0  0.39707  0.05347  0.58672  1.0000 -0.7426893872
O   O10       1.0  0.05347  0.39707  0.91328  1.0000 -0.7426893872
O   O11       1.0  0.60293  0.94653  0.41328  1.0000 -0.7426893872
O   O12       1.0  0.94653  0.60293  0.08672  1.0000 -0.7426893872
