# DDEC6 charges by PACMAN v1.1 (https://github.com/mtap-research/PACMAN-charge/)
data_2013[Ce][dia]3[ASR]1
_chemical_formula_sum              "Ce2 H100 C156 N4 O24"
_cell_length_a       10.4834
_cell_length_b       10.4834
_cell_length_c       35.7507
_cell_angle_alpha    90
_cell_angle_beta     90
_cell_angle_gamma    102.273

_symmetry_space_group_name_H-M    "P 1"
_symmetry_Int_Tables_number       1

loop_
  _symmetry_equiv_pos_as_xyz
  'x, y, z'

loop_
  _atom_site_type_symbol
  _atom_site_label
  _atom_site_symmetry_multiplicity
  _atom_site_fract_x
  _atom_site_fract_y
  _atom_site_fract_z
  _atom_site_occupancy
  _atom_site_charge
Ce  Ce1       1.0  0.64079  0.64079  0.00000  1.0000 2.0052599395
Ce  Ce2       1.0  0.14079  0.14079  0.50000  1.0000 2.0052599395
H   H1        1.0  0.53800  0.93700  0.79600  1.0000 0.1104869567
H   H2        1.0  0.93700  0.53800  0.20400  1.0000 0.1104869567
H   H3        1.0  0.43700  0.03800  0.29600  1.0000 0.1104869567
H   H4        1.0  0.03800  0.43700  0.70400  1.0000 0.1104869567
H   H5        1.0  0.47530  0.97310  0.60280  1.0000 0.367893138
H   H6        1.0  0.97310  0.47530  0.39720  1.0000 0.367893138
H   H7        1.0  0.47310  0.97530  0.10280  1.0000 0.367893138
H   H8        1.0  0.97530  0.47310  0.89720  1.0000 0.367893138
H   H9        1.0  0.76790  0.28850  0.81570  1.0000 0.1192648004
H   H10       1.0  0.28850  0.76790  0.18430  1.0000 0.1192648004
H   H11       1.0  0.78850  0.26790  0.31570  1.0000 0.1192648004
H   H12       1.0  0.26790  0.78850  0.68430  1.0000 0.1192648004
H   H13       1.0  0.17120  0.07620  0.64360  1.0000 0.1192648004
H   H14       1.0  0.07620  0.17120  0.35640  1.0000 0.1192648004
H   H15       1.0  0.57620  0.67120  0.14360  1.0000 0.1192648004
H   H16       1.0  0.67120  0.57620  0.85640  1.0000 0.1192648004
H   H17       1.0  0.64220  0.86140  0.83680  1.0000 0.1017984012
H   H18       1.0  0.86140  0.64220  0.16320  1.0000 0.1017984012
H   H19       1.0  0.36140  0.14220  0.33680  1.0000 0.1017984012
H   H20       1.0  0.14220  0.36140  0.66320  1.0000 0.1017984012
H   H21       1.0  0.45540  0.01840  0.74360  1.0000 0.1273051528
H   H22       1.0  0.01840  0.45540  0.25640  1.0000 0.1273051528
H   H23       1.0  0.51840  0.95540  0.24360  1.0000 0.1273051528
H   H24       1.0  0.95540  0.51840  0.75640  1.0000 0.1273051528
H   H25       1.0  0.73760  0.29940  0.69390  1.0000 0.1192648004
H   H26       1.0  0.29940  0.73760  0.30610  1.0000 0.1192648004
H   H27       1.0  0.79940  0.23760  0.19390  1.0000 0.1192648004
H   H28       1.0  0.23760  0.79940  0.80610  1.0000 0.1192648004
H   H29       1.0  0.66990  0.92870  0.70990  1.0000 0.1192648004
H   H30       1.0  0.92870  0.66990  0.29010  1.0000 0.1104869567
H   H31       1.0  0.42870  0.16990  0.20990  1.0000 0.1104869567
H   H32       1.0  0.16990  0.42870  0.79010  1.0000 0.1104869567
H   H33       1.0  0.06630  0.84590  0.61360  1.0000 0.1192648004
H   H34       1.0  0.84590  0.06630  0.38640  1.0000 0.1192648004
H   H35       1.0  0.34590  0.56630  0.11360  1.0000 0.1192648004
H   H36       1.0  0.56630  0.34590  0.88640  1.0000 0.1192648004
H   H37       1.0  0.68160  0.37200  0.76400  1.0000 0.1192648004
H   H38       1.0  0.37200  0.68160  0.23600  1.0000 0.1192648004
H   H39       1.0  0.87200  0.18160  0.26400  1.0000 0.1192648004
H   H40       1.0  0.18160  0.87200  0.73600  1.0000 0.1192648004
H   H41       1.0  0.07390  0.15090  0.74820  1.0000 0.1192648004
H   H42       1.0  0.15090  0.07390  0.25180  1.0000 0.1192648004
H   H43       1.0  0.65090  0.57390  0.24820  1.0000 0.1192648004
H   H44       1.0  0.57390  0.65090  0.75180  1.0000 0.1192648004
H   H45       1.0  0.70560  0.78320  0.89240  1.0000 0.1104869567
H   H46       1.0  0.78320  0.70560  0.10760  1.0000 0.1104869567
H   H47       1.0  0.28320  0.20560  0.39240  1.0000 0.1104869567
H   H48       1.0  0.20560  0.28320  0.60760  1.0000 0.1104869567
H   H49       1.0  0.98480  0.16280  0.63090  1.0000 0.1192648004
H   H50       1.0  0.16280  0.98480  0.36910  1.0000 0.1192648004
H   H51       1.0  0.66280  0.48480  0.13090  1.0000 0.1192648004
H   H52       1.0  0.48480  0.66280  0.86910  1.0000 0.1192648004
H   H53       1.0  0.88340  0.98980  0.72990  1.0000 0.1192648004
H   H54       1.0  0.98980  0.88340  0.27010  1.0000 0.1192648004
H   H55       1.0  0.48980  0.38340  0.22990  1.0000 0.1192648004
H   H56       1.0  0.38340  0.48980  0.77010  1.0000 0.1192648004
H   H57       1.0  0.84710  0.46590  0.65640  1.0000 0.1104869567
H   H58       1.0  0.46590  0.84710  0.34360  1.0000 0.1104869567
H   H59       1.0  0.96590  0.34710  0.15640  1.0000 0.1104869567
H   H60       1.0  0.34710  0.96590  0.84360  1.0000 0.1104869567
H   H61       1.0  0.38900  0.15820  0.65670  1.0000 0.1273051528
H   H62       1.0  0.15820  0.38900  0.34330  1.0000 0.1273051528
H   H63       1.0  0.65820  0.88900  0.15670  1.0000 0.1273051528
H   H64       1.0  0.88900  0.65820  0.84330  1.0000 0.1273051528
H   H65       1.0  0.76970  0.10610  0.61230  1.0000 0.1192648004
H   H66       1.0  0.10610  0.76970  0.38770  1.0000 0.1192648004
H   H67       1.0  0.60610  0.26970  0.11230  1.0000 0.1192648004
H   H68       1.0  0.26970  0.60610  0.88770  1.0000 0.1192648004
H   H69       1.0  0.29170  0.22750  0.76260  1.0000 0.1273051528
H   H70       1.0  0.22750  0.29170  0.23740  1.0000 0.1273051528
H   H71       1.0  0.72750  0.79170  0.26260  1.0000 0.1273051528
H   H72       1.0  0.79170  0.72750  0.73740  1.0000 0.1273051528
H   H73       1.0  0.41960  0.45680  0.69190  1.0000 0.1192648004
H   H74       1.0  0.45680  0.41960  0.30810  1.0000 0.1192648004
H   H75       1.0  0.95680  0.91960  0.19190  1.0000 0.1192648004
H   H76       1.0  0.91960  0.95680  0.80810  1.0000 0.1192648004
H   H77       1.0  0.78560  0.22820  0.87150  1.0000 0.1104869567
H   H78       1.0  0.22820  0.78560  0.12850  1.0000 0.1104869567
H   H79       1.0  0.72820  0.28560  0.37150  1.0000 0.1104869567
H   H80       1.0  0.28560  0.72820  0.62850  1.0000 0.1104869567
H   H81       1.0  0.94980  0.68580  0.65210  1.0000 0.1104869567
H   H82       1.0  0.68580  0.94980  0.34790  1.0000 0.1104869567
H   H83       1.0  0.18580  0.44980  0.15210  1.0000 0.1104869567
H   H84       1.0  0.44980  0.18580  0.84790  1.0000 0.1104869567
H   H85       1.0  0.85440  0.14460  0.92610  1.0000 0.1192648004
H   H86       1.0  0.14460  0.85440  0.07390  1.0000 0.1192648004
H   H87       1.0  0.64460  0.35440  0.42610  1.0000 0.1192648004
H   H88       1.0  0.35440  0.64460  0.57390  1.0000 0.1192648004
H   H89       1.0  0.73970  0.85850  0.55670  1.0000 0.1273051528
H   H90       1.0  0.85850  0.73970  0.44330  1.0000 0.1273051528
H   H91       1.0  0.35850  0.23970  0.05670  1.0000 0.1273051528
H   H92       1.0  0.23970  0.35850  0.94330  1.0000 0.1273051528
H   H93       1.0  0.62230  0.69310  0.59490  1.0000 0.1192648004
H   H94       1.0  0.69310  0.62230  0.40510  1.0000 0.1192648004
H   H95       1.0  0.19310  0.12230  0.09490  1.0000 0.1192648004
H   H96       1.0  0.12230  0.19310  0.90510  1.0000 0.1192648004
H   H97       1.0  0.52910  0.62350  0.65350  1.0000 0.1192648004
H   H98       1.0  0.62350  0.52910  0.34650  1.0000 0.1192648004
H   H99       1.0  0.12350  0.02910  0.15350  1.0000 0.1192648004
H   H100      1.0  0.02910  0.12350  0.84650  1.0000 0.1192648004
C   C1        1.0  0.55430  0.20510  0.74950  1.0000 0.1804186506
C   C2        1.0  0.20510  0.55430  0.25050  1.0000 0.1804186506
C   C3        1.0  0.70510  0.05430  0.24950  1.0000 0.1804186506
C   C4        1.0  0.05430  0.70510  0.75050  1.0000 0.1804186506
C   C5        1.0  0.56570  0.02490  0.78992  1.0000 -0.1393596213
C   C6        1.0  0.02490  0.56570  0.21008  1.0000 -0.1393596213
C   C7        1.0  0.52490  0.06570  0.28992  1.0000 -0.1393596213
C   C8        1.0  0.06570  0.52490  0.71008  1.0000 -0.1393596213
C   C9        1.0  0.70300  0.56720  0.65139  1.0000 0.069875086
C   C10       1.0  0.56720  0.70300  0.34861  1.0000 0.069875086
C   C11       1.0  0.06720  0.20300  0.15139  1.0000 0.069875086
C   C12       1.0  0.20300  0.06720  0.84861  1.0000 0.069875086
C   C13       1.0  0.65870  0.10670  0.81285  1.0000 0.0492782509
C   C14       1.0  0.10670  0.65870  0.18715  1.0000 0.0492782509
C   C15       1.0  0.60670  0.15870  0.31285  1.0000 0.0492782509
C   C16       1.0  0.15870  0.60670  0.68715  1.0000 0.0492782509
C   C17       1.0  0.70260  0.23480  0.80192  1.0000 -0.1218169807
C   C18       1.0  0.23480  0.70260  0.19808  1.0000 -0.1218169807
C   C19       1.0  0.73480  0.20260  0.30192  1.0000 -0.1218169807
C   C20       1.0  0.20260  0.73480  0.69808  1.0000 -0.1218169807
C   C21       1.0  0.70340  0.05340  0.84810  1.0000 0.069875086
C   C22       1.0  0.05340  0.70340  0.15190  1.0000 0.069875086
C   C23       1.0  0.55340  0.20340  0.34810  1.0000 0.069875086
C   C24       1.0  0.20340  0.55340  0.65190  1.0000 0.069875086
C   C25       1.0  0.19530  0.11110  0.66714  1.0000 -0.1307350711
C   C26       1.0  0.11110  0.19530  0.33286  1.0000 -0.1307350711
C   C27       1.0  0.61110  0.69530  0.16714  1.0000 -0.1307350711
C   C28       1.0  0.69530  0.61110  0.83286  1.0000 -0.1307350711
C   C29       1.0  0.70000  0.00900  0.65845  1.0000 -0.0531249633
C   C30       1.0  0.00900  0.70000  0.34155  1.0000 -0.0531249633
C   C31       1.0  0.50900  0.20000  0.15845  1.0000 -0.0531249633
C   C32       1.0  0.20000  0.50900  0.84155  1.0000 -0.0531249633
C   C33       1.0  0.68290  0.91990  0.85493  1.0000 -0.1593934885
C   C34       1.0  0.91990  0.68290  0.14507  1.0000 -0.1593934885
C   C35       1.0  0.41990  0.18290  0.35493  1.0000 -0.1593934885
C   C36       1.0  0.18290  0.41990  0.64507  1.0000 -0.1593934885
C   C37       1.0  0.91480  0.86760  0.58093  1.0000 -0.0201280537
C   C38       1.0  0.86760  0.91480  0.41907  1.0000 -0.0201280537
C   C39       1.0  0.36760  0.41480  0.08093  1.0000 -0.0201280537
C   C40       1.0  0.41480  0.36760  0.91907  1.0000 -0.0201280537
C   C41       1.0  0.78400  0.95540  0.91497  1.0000 -0.0390069597
C   C42       1.0  0.95540  0.78400  0.08503  1.0000 -0.0390069597
C   C43       1.0  0.45540  0.28400  0.41497  1.0000 -0.0390069597
C   C44       1.0  0.28400  0.45540  0.58503  1.0000 -0.0390069597
C   C45       1.0  0.36270  0.20350  0.71089  1.0000 0.1699693585
C   C46       1.0  0.20350  0.36270  0.28911  1.0000 0.1699693585
C   C47       1.0  0.70350  0.86270  0.21089  1.0000 0.1699693585
C   C48       1.0  0.86270  0.70350  0.78911  1.0000 0.1699693585
C   C49       1.0  0.96010  0.07770  0.68245  1.0000 0.0775508946
C   C50       1.0  0.07770  0.96010  0.31755  1.0000 0.0775508946
C   C51       1.0  0.57770  0.46010  0.18245  1.0000 0.0775508946
C   C52       1.0  0.46010  0.57770  0.81755  1.0000 0.0775508946
C   C53       1.0  0.51540  0.07360  0.75862  1.0000 -0.1812336026
C   C54       1.0  0.07360  0.51540  0.24138  1.0000 -0.1812336026
C   C55       1.0  0.57360  0.01540  0.25862  1.0000 -0.1812336026
C   C56       1.0  0.01540  0.57360  0.74138  1.0000 -0.1812336026
C   C57       1.0  0.69540  0.36420  0.68595  1.0000 -0.1812336026
C   C58       1.0  0.36420  0.69540  0.31405  1.0000 -0.1812336026
C   C59       1.0  0.86420  0.19540  0.18595  1.0000 -0.1812336026
C   C60       1.0  0.19540  0.86420  0.81405  1.0000 -0.1812336026
C   C61       1.0  0.73330  0.97510  0.69397  1.0000 -0.0931770676
C   C62       1.0  0.97510  0.73330  0.30603  1.0000 -0.0931770676
C   C63       1.0  0.47510  0.23330  0.19397  1.0000 -0.0931770676
C   C64       1.0  0.23330  0.47510  0.80603  1.0000 -0.0931770676
C   C65       1.0  0.56700  0.35880  0.69658  1.0000 0.1804186506
C   C66       1.0  0.35880  0.56700  0.30342  1.0000 0.1804186506
C   C67       1.0  0.85880  0.06700  0.19658  1.0000 0.1804186506
C   C68       1.0  0.06700  0.85880  0.80342  1.0000 0.1804186506
C   C69       1.0  0.97720  0.81560  0.60979  1.0000 -0.0952875381
C   C70       1.0  0.81560  0.97720  0.39021  1.0000 -0.0931770676
C   C71       1.0  0.31560  0.47720  0.10979  1.0000 -0.0931770676
C   C72       1.0  0.47720  0.31560  0.89021  1.0000 -0.0931770676
C   C73       1.0  0.65130  0.28510  0.77073  1.0000 -0.1812336026
C   C74       1.0  0.28510  0.65130  0.22927  1.0000 -0.1812336026
C   C75       1.0  0.78510  0.15130  0.27073  1.0000 -0.1812336026
C   C76       1.0  0.15130  0.78510  0.72927  1.0000 -0.1812336026
C   C77       1.0  0.13660  0.15460  0.72964  1.0000 -0.1307350711
C   C78       1.0  0.15460  0.13660  0.27036  1.0000 -0.1307350711
C   C79       1.0  0.65460  0.63660  0.22964  1.0000 -0.1307350711
C   C80       1.0  0.63660  0.65460  0.77036  1.0000 -0.1307350711
C   C81       1.0  0.72200  0.87280  0.88822  1.0000 -0.0931770676
C   C82       1.0  0.87280  0.72200  0.11178  1.0000 -0.0931770676
C   C83       1.0  0.37280  0.22200  0.38822  1.0000 -0.0931770676
C   C84       1.0  0.22200  0.37280  0.61178  1.0000 -0.0931770676
C   C85       1.0  0.92270  0.11490  0.64689  1.0000 -0.1393596213
C   C86       1.0  0.11490  0.92270  0.35311  1.0000 -0.1393596213
C   C87       1.0  0.61490  0.42270  0.14689  1.0000 -0.1393596213
C   C88       1.0  0.42270  0.61490  0.85311  1.0000 -0.1393596213
C   C89       1.0  0.56430  0.96630  0.64523  1.0000 0.5366284931
C   C90       1.0  0.96630  0.56430  0.35477  1.0000 0.5366284931
C   C91       1.0  0.46630  0.06430  0.14523  1.0000 0.5366284931
C   C92       1.0  0.06430  0.46630  0.85477  1.0000 0.5366284931
C   C93       1.0  0.86200  0.01100  0.70573  1.0000 -0.1489029852
C   C94       1.0  0.01100  0.86200  0.29427  1.0000 -0.1489029852
C   C95       1.0  0.51100  0.36200  0.20573  1.0000 -0.1489029852
C   C96       1.0  0.36200  0.51100  0.79427  1.0000 -0.1489029852
C   C97       1.0  0.76170  0.46550  0.66352  1.0000 -0.1307350711
C   C98       1.0  0.46550  0.76170  0.33648  1.0000 -0.1307350711
C   C99       1.0  0.96550  0.26170  0.16352  1.0000 -0.1307350711
C   C100      1.0  0.26170  0.96550  0.83648  1.0000 -0.1307350711
C   C101      1.0  0.32620  0.15760  0.67506  1.0000 -0.1593934885
C   C102      1.0  0.15760  0.32620  0.32494  1.0000 -0.1593934885
C   C103      1.0  0.65760  0.82620  0.17506  1.0000 -0.1593934885
C   C104      1.0  0.82620  0.65760  0.82494  1.0000 -0.1593934885
C   C105      1.0  0.79350  0.08030  0.63572  1.0000 -0.0931770676
C   C106      1.0  0.08030  0.79350  0.36428  1.0000 -0.0931770676
C   C107      1.0  0.58030  0.29350  0.13572  1.0000 -0.0931770676
C   C108      1.0  0.29350  0.58030  0.86428  1.0000 -0.0931770676
C   C109      1.0  0.26750  0.19970  0.73840  1.0000 -0.1812336026
C   C110      1.0  0.19970  0.26750  0.26160  1.0000 -0.1812336026
C   C111      1.0  0.69970  0.76750  0.23840  1.0000 -0.1812336026
C   C112      1.0  0.76750  0.69970  0.76160  1.0000 -0.1812336026
C   C113      1.0  0.77540  0.67240  0.62729  1.0000 0.069875086
C   C114      1.0  0.67240  0.77540  0.37271  1.0000 0.069875086
C   C115      1.0  0.17240  0.27540  0.12729  1.0000 0.069875086
C   C116      1.0  0.27540  0.17240  0.87271  1.0000 0.069875086
C   C117      1.0  0.50510  0.45830  0.68465  1.0000 -0.1856534248
C   C118      1.0  0.45830  0.50510  0.31535  1.0000 -0.1856534248
C   C119      1.0  0.95830  0.00510  0.18465  1.0000 -0.1856534248
C   C120      1.0  0.00510  0.95830  0.81535  1.0000 -0.1856534248
C   C121      1.0  0.76900  0.13840  0.87535  1.0000 -0.1489029852
C   C122      1.0  0.13840  0.76900  0.12465  1.0000 -0.1489029852
C   C123      1.0  0.63840  0.26900  0.37535  1.0000 -0.1489029852
C   C124      1.0  0.26900  0.63840  0.62465  1.0000 -0.1489029852
C   C125      1.0  0.90730  0.71930  0.63277  1.0000 -0.1393596213
C   C126      1.0  0.71930  0.90730  0.36723  1.0000 -0.1393596213
C   C127      1.0  0.21930  0.40730  0.13277  1.0000 -0.1393596213
C   C128      1.0  0.40730  0.21930  0.86723  1.0000 -0.1393596213
C   C129      1.0  0.80940  0.08780  0.90829  1.0000 -0.0931770676
C   C130      1.0  0.08780  0.80940  0.09171  1.0000 -0.0931770676
C   C131      1.0  0.58780  0.30940  0.40829  1.0000 -0.0931770676
C   C132      1.0  0.30940  0.58780  0.59171  1.0000 -0.0931770676
C   C133      1.0  0.09830  0.11510  0.69377  1.0000 0.0492782509
C   C134      1.0  0.11510  0.09830  0.30623  1.0000 0.0492782509
C   C135      1.0  0.61510  0.59830  0.19377  1.0000 0.0492782509
C   C136      1.0  0.59830  0.61510  0.80623  1.0000 0.0492782509
C   C137      1.0  0.78230  0.82310  0.57562  1.0000 -0.0931770676
C   C138      1.0  0.82310  0.78230  0.42438  1.0000 -0.0931770676
C   C139      1.0  0.32310  0.28230  0.07562  1.0000 -0.0931770676
C   C140      1.0  0.28230  0.32310  0.92438  1.0000 -0.0931770676
C   C141      1.0  0.71130  0.72390  0.59870  1.0000 -0.1393596213
C   C142      1.0  0.72390  0.71130  0.40130  1.0000 -0.1393596213
C   C143      1.0  0.22390  0.21130  0.09870  1.0000 -0.1393596213
C   C144      1.0  0.21130  0.22390  0.90130  1.0000 -0.1393596213
C   C145      1.0  0.82340  0.89980  0.94995  1.0000 0.6045131171
C   C146      1.0  0.89980  0.82340  0.05005  1.0000 0.6045131171
C   C147      1.0  0.39980  0.32340  0.44995  1.0000 0.6045131171
C   C148      1.0  0.32340  0.39980  0.55005  1.0000 0.6051929081
C   C149      1.0  0.57200  0.55980  0.66180  1.0000 -0.1218169807
C   C150      1.0  0.55980  0.57200  0.33820  1.0000 -0.1218169807
C   C151      1.0  0.05980  0.07200  0.16180  1.0000 -0.1218169807
C   C152      1.0  0.07200  0.05980  0.83820  1.0000 -0.1218169807
C   C153      1.0  0.99050  0.97230  0.55600  1.0000 0.5634228373
C   C154      1.0  0.97230  0.99050  0.44400  1.0000 0.5634228373
C   C155      1.0  0.47230  0.49050  0.05600  1.0000 0.5634228373
C   C156      1.0  0.49050  0.47230  0.94400  1.0000 0.5634228373
N   N1        1.0  0.49810  0.25650  0.71864  1.0000 -0.1698390944
N   N2        1.0  0.25650  0.49810  0.28136  1.0000 -0.1698390944
N   N3        1.0  0.75650  0.99810  0.21864  1.0000 -0.1698390944
N   N4        1.0  0.99810  0.75650  0.78136  1.0000 -0.1698390944
O   O1        1.0  0.54340  0.01540  0.61169  1.0000 -0.4249130404
O   O2        1.0  0.01540  0.54340  0.38831  1.0000 -0.4265035009
O   O3        1.0  0.51540  0.04340  0.11169  1.0000 -0.4249130404
O   O4        1.0  0.04340  0.51540  0.88831  1.0000 -0.4265035009
O   O5        1.0  0.93500  0.03940  0.53534  1.0000 -0.5807459271
O   O6        1.0  0.03940  0.93500  0.46466  1.0000 -0.5807459271
O   O7        1.0  0.53940  0.43500  0.03534  1.0000 -0.5807459271
O   O8        1.0  0.43500  0.53940  0.96466  1.0000 -0.5807459271
O   O9        1.0  0.47850  0.89390  0.66271  1.0000 -0.5041770702
O   O10       1.0  0.89390  0.47850  0.33729  1.0000 -0.5041770702
O   O11       1.0  0.39390  0.97850  0.16271  1.0000 -0.5041770702
O   O12       1.0  0.97850  0.39390  0.83729  1.0000 -0.5041770702
O   O13       1.0  0.78840  0.77820  0.95678  1.0000 -0.6507144338
O   O14       1.0  0.77820  0.78840  0.04322  1.0000 -0.6507144338
O   O15       1.0  0.27820  0.28840  0.45678  1.0000 -0.6507144338
O   O16       1.0  0.28840  0.27820  0.54322  1.0000 -0.6507144338
O   O17       1.0  0.89660  0.98300  0.97177  1.0000 -0.4809603235
O   O18       1.0  0.98300  0.89660  0.02823  1.0000 -0.4809603235
O   O19       1.0  0.48300  0.39660  0.47177  1.0000 -0.4809603235
O   O20       1.0  0.39660  0.48300  0.52823  1.0000 -0.4809603235
O   O21       1.0  0.11540  0.99580  0.55653  1.0000 -0.613920874
O   O22       1.0  0.99580  0.11540  0.44347  1.0000 -0.613920874
O   O23       1.0  0.49580  0.61540  0.05653  1.0000 -0.613920874
O   O24       1.0  0.61540  0.49580  0.94347  1.0000 -0.613920874
