# DDEC6 charges by PACMAN v1.1 (https://github.com/mtap-research/PACMAN-charge/)
data_2013[Co][lvt]3[ASR]2
_chemical_formula_sum              "Co8 H40 C32 N24 O16"
_cell_length_a       14.7928
_cell_length_b       14.7928
_cell_length_c       14.7928
_cell_angle_alpha    112.136
_cell_angle_beta     112.136
_cell_angle_gamma    104.264

_symmetry_space_group_name_H-M    "P 1"
_symmetry_Int_Tables_number       1

loop_
  _symmetry_equiv_pos_as_xyz
  'x, y, z'

loop_
  _atom_site_type_symbol
  _atom_site_label
  _atom_site_symmetry_multiplicity
  _atom_site_fract_x
  _atom_site_fract_y
  _atom_site_fract_z
  _atom_site_occupancy
  _atom_site_charge
Co  Co1       1.0  0.80150  0.96551  0.68333  1.0000 0.659611214
Co  Co2       1.0  0.71551  0.53218  0.66401  1.0000 0.659611214
Co  Co3       1.0  0.28218  0.11817  0.31667  1.0000 0.659611214
Co  Co4       1.0  0.86817  0.05150  0.33599  1.0000 0.659611214
Co  Co5       1.0  0.94850  0.28449  0.81667  1.0000 0.659611214
Co  Co6       1.0  0.03449  0.71782  0.83599  1.0000 0.659611214
Co  Co7       1.0  0.46782  0.13183  0.18333  1.0000 0.659611214
Co  Co8       1.0  0.88183  0.19850  0.16401  1.0000 0.659611214
H   H1        1.0  0.05160  0.99680  0.88840  1.0000 0.1204282549
H   H2        1.0  0.74680  0.35840  0.44520  1.0000 0.1204282549
H   H3        1.0  0.10840  0.16320  0.11160  1.0000 0.1204282549
H   H4        1.0  0.91320  0.30160  0.55480  1.0000 0.1204282549
H   H5        1.0  0.69840  0.25320  0.61160  1.0000 0.1204282549
H   H6        1.0  0.00320  0.89160  0.05480  1.0000 0.1204282549
H   H7        1.0  0.64160  0.08680  0.38840  1.0000 0.1204282549
H   H8        1.0  0.83680  0.94840  0.94520  1.0000 0.1204282549
H   H9        1.0  0.06600  0.92380  0.79040  1.0000 0.1089636236
H   H10       1.0  0.67380  0.38340  0.35780  1.0000 0.1089636236
H   H11       1.0  0.13340  0.27560  0.20960  1.0000 0.1089636236
H   H12       1.0  0.02560  0.31600  0.64220  1.0000 0.1089636236
H   H13       1.0  0.68400  0.32620  0.70960  1.0000 0.1089636236
H   H14       1.0  0.07620  0.86660  0.14220  1.0000 0.1089636236
H   H15       1.0  0.61660  0.97440  0.29040  1.0000 0.1089636236
H   H16       1.0  0.72440  0.93400  0.85780  1.0000 0.1089636236
H   H17       1.0  0.60450  0.73510  0.67900  1.0000 0.1040930953
H   H18       1.0  0.48510  0.30610  0.63060  1.0000 0.1040930953
H   H19       1.0  0.05610  0.92550  0.32100  1.0000 0.1040930953
H   H20       1.0  0.67550  0.85450  0.36940  1.0000 0.1040930953
H   H21       1.0  0.14550  0.51490  0.82100  1.0000 0.1040930953
H   H22       1.0  0.26490  0.94390  0.86940  1.0000 0.1040930953
H   H23       1.0  0.69390  0.32450  0.17900  1.0000 0.1040930953
H   H24       1.0  0.07450  0.39550  0.13060  1.0000 0.1040930953
H   H25       1.0  0.59850  0.70040  0.56170  1.0000 0.1204282549
H   H26       1.0  0.45040  0.38870  0.60190  1.0000 0.1204282549
H   H27       1.0  0.13870  0.03680  0.43830  1.0000 0.1204282549
H   H28       1.0  0.78680  0.84850  0.39810  1.0000 0.1204282549
H   H29       1.0  0.15150  0.54960  0.93830  1.0000 0.1204282549
H   H30       1.0  0.29960  0.86130  0.89810  1.0000 0.1204282549
H   H31       1.0  0.61130  0.21320  0.06170  1.0000 0.1204282549
H   H32       1.0  0.96320  0.40150  0.10190  1.0000 0.1204282549
H   H33       1.0  0.94100  0.94700  0.67800  1.0000 0.3097062446
H   H34       1.0  0.69700  0.51900  0.50600  1.0000 0.3097062446
H   H35       1.0  0.26900  0.26300  0.32200  1.0000 0.3097062446
H   H36       1.0  0.01300  0.19100  0.49400  1.0000 0.3097062446
H   H37       1.0  0.80900  0.30300  0.82200  1.0000 0.3097062446
H   H38       1.0  0.05300  0.73100  0.99400  1.0000 0.3097062446
H   H39       1.0  0.48100  0.98700  0.17800  1.0000 0.3097062446
H   H40       1.0  0.73700  0.05900  0.00600  1.0000 0.3097062446
C   C1        1.0  0.91620  0.84940  0.76700  1.0000 0.2660122923
C   C2        1.0  0.59940  0.33240  0.43320  1.0000 0.2660122923
C   C3        1.0  0.08240  0.14920  0.23300  1.0000 0.2660122923
C   C4        1.0  0.89920  0.16620  0.56680  1.0000 0.2660122923
C   C5        1.0  0.83380  0.40060  0.73300  1.0000 0.2660122923
C   C6        1.0  0.15060  0.91760  0.06680  1.0000 0.2660122923
C   C7        1.0  0.66760  0.10080  0.26700  1.0000 0.2660122923
C   C8        1.0  0.85080  0.08380  0.93320  1.0000 0.2660122923
C   C9        1.0  0.74930  0.74640  0.69110  1.0000 0.3001774773
C   C10       1.0  0.49640  0.30530  0.49710  1.0000 0.3001774773
C   C11       1.0  0.05530  0.05820  0.30890  1.0000 0.3001774773
C   C12       1.0  0.80820  0.99930  0.50290  1.0000 0.3001774773
C   C13       1.0  0.00070  0.50360  0.80890  1.0000 0.3001774773
C   C14       1.0  0.25360  0.94470  0.00290  1.0000 0.3001774773
C   C15       1.0  0.69470  0.19180  0.19110  1.0000 0.3001774773
C   C16       1.0  0.94180  0.25070  0.99710  1.0000 0.3001774773
C   C17       1.0  0.01500  0.94670  0.80650  1.0000 -0.091360637
C   C18       1.0  0.69670  0.39020  0.43170  1.0000 -0.091360637
C   C19       1.0  0.14020  0.20850  0.19350  1.0000 -0.091360637
C   C20       1.0  0.95850  0.26500  0.56830  1.0000 -0.091360637
C   C21       1.0  0.73500  0.30330  0.69350  1.0000 -0.091360637
C   C22       1.0  0.05330  0.85980  0.06830  1.0000 -0.091360637
C   C23       1.0  0.60980  0.04150  0.30650  1.0000 -0.091360637
C   C24       1.0  0.79150  0.98500  0.93170  1.0000 -0.091360637
C   C25       1.0  0.62740  0.69610  0.62990  1.0000 -0.091360637
C   C26       1.0  0.44610  0.31620  0.56870  1.0000 -0.091360637
C   C27       1.0  0.06620  0.99750  0.37010  1.0000 -0.091360637
C   C28       1.0  0.74750  0.87740  0.43130  1.0000 -0.091360637
C   C29       1.0  0.12260  0.55390  0.87010  1.0000 -0.091360637
C   C30       1.0  0.30390  0.93380  0.93130  1.0000 -0.091360637
C   C31       1.0  0.68380  0.25250  0.12990  1.0000 -0.091360637
C   C32       1.0  0.00250  0.37260  0.06870  1.0000 -0.091360637
N   N1        1.0  0.81640  0.84550  0.71770  1.0000 -0.4409282878
N   N2        1.0  0.59550  0.37780  0.52910  1.0000 -0.4409282878
N   N3        1.0  0.12780  0.09870  0.28230  1.0000 -0.4409282878
N   N4        1.0  0.84870  0.06640  0.47090  1.0000 -0.4409282878
N   N5        1.0  0.93360  0.40450  0.78230  1.0000 -0.4409282878
N   N6        1.0  0.15450  0.87220  0.97090  1.0000 -0.4409282878
N   N7        1.0  0.62220  0.15130  0.21770  1.0000 -0.4409282878
N   N8        1.0  0.90130  0.18360  0.02910  1.0000 -0.4409282878
N   N9        1.0  0.91290  0.76110  0.77080  1.0000 -0.2613264434
N   N10       1.0  0.51110  0.24030  0.34820  1.0000 -0.2613264434
N   N11       1.0  0.99030  0.14210  0.22920  1.0000 -0.2613264434
N   N12       1.0  0.89210  0.16290  0.65180  1.0000 -0.2613264434
N   N13       1.0  0.83710  0.48890  0.72920  1.0000 -0.2613264434
N   N14       1.0  0.23890  0.00970  0.15180  1.0000 -0.2613264434
N   N15       1.0  0.75970  0.10790  0.27080  1.0000 -0.2613264434
N   N16       1.0  0.85790  0.08710  0.84820  1.0000 -0.2613264434
N   N17       1.0  0.80260  0.69290  0.72070  1.0000 -0.248534128
N   N18       1.0  0.44290  0.22220  0.39030  1.0000 -0.248534128
N   N19       1.0  0.97220  0.08190  0.27930  1.0000 -0.248534128
N   N20       1.0  0.83190  0.05260  0.60970  1.0000 -0.248534128
N   N21       1.0  0.94740  0.55710  0.77930  1.0000 -0.248534128
N   N22       1.0  0.30710  0.02780  0.10970  1.0000 -0.248534128
N   N23       1.0  0.77780  0.16810  0.22070  1.0000 -0.248534128
N   N24       1.0  0.91810  0.19740  0.89030  1.0000 -0.248534128
O   O1        1.0  0.97980  0.99830  0.74730  1.0000 -0.3775472082
O   O2        1.0  0.74830  0.50100  0.51850  1.0000 -0.3775472082
O   O3        1.0  0.25100  0.23250  0.25270  1.0000 -0.3775472082
O   O4        1.0  0.98250  0.22980  0.48150  1.0000 -0.3775472082
O   O5        1.0  0.77020  0.25170  0.75270  1.0000 -0.3775472082
O   O6        1.0  0.00170  0.74900  0.98150  1.0000 -0.3775472082
O   O7        1.0  0.49900  0.01750  0.24730  1.0000 -0.3775472082
O   O8        1.0  0.76750  0.02020  0.01850  1.0000 -0.3775472082
O   O9        1.0  0.58730  0.58590  0.59960  1.0000 -0.4783631154
O   O10       1.0  0.33590  0.23630  0.49860  1.0000 -0.4783631154
O   O11       1.0  0.98630  0.98770  0.40040  1.0000 -0.4783631154
O   O12       1.0  0.73770  0.83730  0.50140  1.0000 -0.4783631154
O   O13       1.0  0.16270  0.66410  0.90040  1.0000 -0.4783631154
O   O14       1.0  0.41410  0.01370  0.00140  1.0000 -0.4783631154
O   O15       1.0  0.76370  0.26230  0.09960  1.0000 -0.4783631154
O   O16       1.0  0.01230  0.41270  0.99860  1.0000 -0.4783631154
