# DDEC6 charges by PACMAN v1.1 (https://github.com/mtap-research/PACMAN-charge/)
data_2013[Mn][pcu]3[ASR]4
_chemical_formula_sum              "Mn6 H48 C84 O24"
_cell_length_a       12.1687
_cell_length_b       18.2501
_cell_length_c       13.943
_cell_angle_alpha    90
_cell_angle_beta     113.169
_cell_angle_gamma    90

_symmetry_space_group_name_H-M    "P 1"
_symmetry_Int_Tables_number       1

loop_
  _symmetry_equiv_pos_as_xyz
  'x, y, z'

loop_
  _atom_site_type_symbol
  _atom_site_label
  _atom_site_symmetry_multiplicity
  _atom_site_fract_x
  _atom_site_fract_y
  _atom_site_fract_z
  _atom_site_occupancy
  _atom_site_charge
Mn  Mn1       1.0  0.32687  0.51938  0.58238  1.0000 1.0021117073
Mn  Mn2       1.0  0.17313  0.01938  0.41762  1.0000 1.0021117073
Mn  Mn3       1.0  0.67313  0.48062  0.41762  1.0000 1.0021117073
Mn  Mn4       1.0  0.82687  0.98062  0.58238  1.0000 1.0021117073
Mn  Mn5       1.0  0.00000  0.50000  0.50000  1.0000 1.1046141428
Mn  Mn6       1.0  0.50000  0.00000  0.50000  1.0000 1.105720405
H   H1        1.0  0.34610  0.70160  0.79200  1.0000 0.1210038375
H   H2        1.0  0.15390  0.20160  0.20800  1.0000 0.1210038375
H   H3        1.0  0.65390  0.29840  0.20800  1.0000 0.1210038375
H   H4        1.0  0.84610  0.79840  0.79200  1.0000 0.1210038375
H   H5        1.0  0.36610  0.77200  0.93700  1.0000 0.1086757852
H   H6        1.0  0.13390  0.27200  0.06300  1.0000 0.1086757852
H   H7        1.0  0.63390  0.22800  0.06300  1.0000 0.1086757852
H   H8        1.0  0.86610  0.72800  0.93700  1.0000 0.1086757852
H   H9        1.0  0.05480  0.69000  0.93150  1.0000 0.1086757852
H   H10       1.0  0.44520  0.19000  0.06850  1.0000 0.1086757852
H   H11       1.0  0.94520  0.31000  0.06850  1.0000 0.1086757852
H   H12       1.0  0.55480  0.81000  0.93150  1.0000 0.1086757852
H   H13       1.0  0.03120  0.62250  0.78310  1.0000 0.1086757852
H   H14       1.0  0.46880  0.12250  0.21690  1.0000 0.1086757852
H   H15       1.0  0.96880  0.37750  0.21690  1.0000 0.1086757852
H   H16       1.0  0.53120  0.87750  0.78310  1.0000 0.1086757852
H   H17       1.0  0.06020  0.80630  0.01440  1.0000 0.1086757852
H   H18       1.0  0.43980  0.30630  0.98560  1.0000 0.1086757852
H   H19       1.0  0.93980  0.19370  0.98560  1.0000 0.1086757852
H   H20       1.0  0.56020  0.69370  0.01440  1.0000 0.1086757852
H   H21       1.0  0.09390  0.87070  0.16760  1.0000 0.1210038375
H   H22       1.0  0.40610  0.37070  0.83240  1.0000 0.1210038375
H   H23       1.0  0.90610  0.12930  0.83240  1.0000 0.1210038375
H   H24       1.0  0.59390  0.62930  0.16760  1.0000 0.1210038375
H   H25       1.0  0.44540  0.82100  0.27530  1.0000 0.1210038375
H   H26       1.0  0.05460  0.32100  0.72470  1.0000 0.1210038375
H   H27       1.0  0.55460  0.17900  0.72470  1.0000 0.1210038375
H   H28       1.0  0.94540  0.67900  0.27530  1.0000 0.1210038375
H   H29       1.0  0.41340  0.75820  0.12120  1.0000 0.1210038375
H   H30       1.0  0.08660  0.25820  0.87880  1.0000 0.1210038375
H   H31       1.0  0.58660  0.24180  0.87880  1.0000 0.1210038375
H   H32       1.0  0.91340  0.74180  0.12120  1.0000 0.1210038375
H   H33       1.0  0.24950  0.41660  0.24740  1.0000 0.1210038375
H   H34       1.0  0.25050  0.91660  0.75260  1.0000 0.1210038375
H   H35       1.0  0.75050  0.58340  0.75260  1.0000 0.1210038375
H   H36       1.0  0.74950  0.08340  0.24740  1.0000 0.1210038375
H   H37       1.0  0.15730  0.42290  0.06660  1.0000 0.1086757852
H   H38       1.0  0.34270  0.92290  0.93340  1.0000 0.1086757852
H   H39       1.0  0.84270  0.57710  0.93340  1.0000 0.1086757852
H   H40       1.0  0.65730  0.07710  0.06660  1.0000 0.1086757852
H   H41       1.0  0.91270  0.56390  0.08970  1.0000 0.1086757852
H   H42       1.0  0.58730  0.06390  0.91030  1.0000 0.1086757852
H   H43       1.0  0.08730  0.43610  0.91030  1.0000 0.1086757852
H   H44       1.0  0.41270  0.93610  0.08970  1.0000 0.1086757852
H   H45       1.0  0.99980  0.55360  0.27040  1.0000 0.1210038375
H   H46       1.0  0.50020  0.05360  0.72960  1.0000 0.1210038375
H   H47       1.0  0.00020  0.44640  0.72960  1.0000 0.1210038375
H   H48       1.0  0.49980  0.94640  0.27040  1.0000 0.1210038375
C   C1        1.0  0.18765  0.65357  0.77397  1.0000 -0.0126996781
C   C2        1.0  0.31235  0.15357  0.22603  1.0000 -0.0126996781
C   C3        1.0  0.81235  0.34643  0.22603  1.0000 -0.0126996781
C   C4        1.0  0.68765  0.84643  0.77397  1.0000 -0.0126996781
C   C5        1.0  0.28675  0.69904  0.82023  1.0000 -0.099098301
C   C6        1.0  0.21325  0.19904  0.17977  1.0000 -0.099098301
C   C7        1.0  0.71325  0.30096  0.17977  1.0000 -0.099098301
C   C8        1.0  0.78675  0.80096  0.82023  1.0000 -0.099098301
C   C9        1.0  0.29900  0.74058  0.90720  1.0000 -0.1581213917
C   C10       1.0  0.20100  0.24058  0.09280  1.0000 -0.1581213917
C   C11       1.0  0.70100  0.25942  0.09280  1.0000 -0.1581213917
C   C12       1.0  0.79900  0.75942  0.90720  1.0000 -0.1581213917
C   C13       1.0  0.21450  0.73702  0.95165  1.0000 0.0717170578
C   C14       1.0  0.28550  0.23702  0.04835  1.0000 0.0717170578
C   C15       1.0  0.78550  0.26298  0.04835  1.0000 0.0717170578
C   C16       1.0  0.71450  0.76298  0.95165  1.0000 0.0717170578
C   C17       1.0  0.11438  0.69246  0.90351  1.0000 -0.1486102897
C   C18       1.0  0.38562  0.19246  0.09649  1.0000 -0.1486102897
C   C19       1.0  0.88562  0.30754  0.09649  1.0000 -0.1486102897
C   C20       1.0  0.61438  0.80754  0.90351  1.0000 -0.1486102897
C   C21       1.0  0.10063  0.65182  0.81542  1.0000 -0.0926937425
C   C22       1.0  0.39937  0.15182  0.18458  1.0000 -0.0926937425
C   C23       1.0  0.89937  0.34818  0.18458  1.0000 -0.0926937425
C   C24       1.0  0.60063  0.84818  0.81542  1.0000 -0.0926937425
C   C25       1.0  0.23381  0.77679  0.05018  1.0000 0.0717170578
C   C26       1.0  0.26619  0.27679  0.94982  1.0000 0.0717170578
C   C27       1.0  0.76619  0.22321  0.94982  1.0000 0.0717170578
C   C28       1.0  0.73381  0.72321  0.05018  1.0000 0.0717170578
C   C29       1.0  0.13901  0.80991  0.06641  1.0000 -0.1581213917
C   C30       1.0  0.36099  0.30991  0.93359  1.0000 -0.1581213917
C   C31       1.0  0.86099  0.19009  0.93359  1.0000 -0.1581213917
C   C32       1.0  0.63901  0.69009  0.06641  1.0000 -0.1581213917
C   C33       1.0  0.15920  0.84813  0.15802  1.0000 -0.0926937425
C   C34       1.0  0.34080  0.34813  0.84198  1.0000 -0.0926937425
C   C35       1.0  0.84080  0.15187  0.84198  1.0000 -0.0926937425
C   C36       1.0  0.65920  0.65187  0.15802  1.0000 -0.0926937425
C   C37       1.0  0.27306  0.85392  0.23570  1.0000 -0.0239397115
C   C38       1.0  0.22694  0.35392  0.76430  1.0000 -0.0239397115
C   C39       1.0  0.72694  0.14608  0.76430  1.0000 -0.0239397115
C   C40       1.0  0.77306  0.64608  0.23570  1.0000 -0.0239397115
C   C41       1.0  0.36733  0.81901  0.22172  1.0000 -0.0926937425
C   C42       1.0  0.13267  0.31901  0.77828  1.0000 -0.0926937425
C   C43       1.0  0.63267  0.18099  0.77828  1.0000 -0.0926937425
C   C44       1.0  0.86733  0.68099  0.22172  1.0000 -0.0926937425
C   C45       1.0  0.34799  0.78130  0.12996  1.0000 -0.1581213917
C   C46       1.0  0.15201  0.28130  0.87004  1.0000 -0.1581213917
C   C47       1.0  0.65201  0.21870  0.87004  1.0000 -0.1581213917
C   C48       1.0  0.84799  0.71870  0.12996  1.0000 -0.1581213917
C   C49       1.0  0.17742  0.60550  0.68225  1.0000 0.5879852814
C   C50       1.0  0.32258  0.10550  0.31775  1.0000 0.5879852814
C   C51       1.0  0.82258  0.39450  0.31775  1.0000 0.5879852814
C   C52       1.0  0.67742  0.89450  0.68225  1.0000 0.5879852814
C   C53       1.0  0.29465  0.90136  0.33080  1.0000 0.5814361242
C   C54       1.0  0.20535  0.40136  0.66920  1.0000 0.5814361242
C   C55       1.0  0.70535  0.09864  0.66920  1.0000 0.5814361242
C   C56       1.0  0.79465  0.59864  0.33080  1.0000 0.5814361242
C   C57       1.0  0.13449  0.48539  0.27699  1.0000 -0.0239397115
C   C58       1.0  0.36551  0.98539  0.72301  1.0000 -0.0239397115
C   C59       1.0  0.86551  0.51461  0.72301  1.0000 -0.0239397115
C   C60       1.0  0.63449  0.01461  0.27699  1.0000 -0.0239397115
C   C61       1.0  0.18068  0.44646  0.21549  1.0000 -0.099098301
C   C62       1.0  0.31932  0.94646  0.78451  1.0000 -0.099098301
C   C63       1.0  0.81932  0.55354  0.78451  1.0000 -0.099098301
C   C64       1.0  0.68068  0.05354  0.21549  1.0000 -0.099098301
C   C65       1.0  0.12644  0.45114  0.10765  1.0000 -0.1581213917
C   C66       1.0  0.37356  0.95114  0.89235  1.0000 -0.1581213917
C   C67       1.0  0.87356  0.54886  0.89235  1.0000 -0.1581213917
C   C68       1.0  0.62644  0.04886  0.10765  1.0000 -0.1581213917
C   C69       1.0  0.02779  0.49620  0.05798  1.0000 0.0803022576
C   C70       1.0  0.47221  0.99620  0.94202  1.0000 0.0803022576
C   C71       1.0  0.97221  0.50380  0.94202  1.0000 0.0803022576
C   C72       1.0  0.52779  0.00380  0.05798  1.0000 0.0803022576
C   C73       1.0  0.98128  0.53384  0.12123  1.0000 -0.1486102897
C   C74       1.0  0.51872  0.03384  0.87877  1.0000 -0.1486102897
C   C75       1.0  0.01872  0.46616  0.87877  1.0000 -0.1486102897
C   C76       1.0  0.48128  0.96616  0.12123  1.0000 -0.1486102897
C   C77       1.0  0.03352  0.52807  0.22909  1.0000 -0.0849704179
C   C78       1.0  0.46648  0.02807  0.77091  1.0000 -0.0926937425
C   C79       1.0  0.96648  0.47193  0.77091  1.0000 -0.0849704179
C   C80       1.0  0.53352  0.97193  0.22909  1.0000 -0.0849704179
C   C81       1.0  0.19669  0.48526  0.39292  1.0000 0.5814361242
C   C82       1.0  0.30331  0.98526  0.60708  1.0000 0.5814361242
C   C83       1.0  0.80331  0.51474  0.60708  1.0000 0.5814361242
C   C84       1.0  0.69669  0.01474  0.39292  1.0000 0.5814361242
O   O1        1.0  0.27341  0.59499  0.67026  1.0000 -0.5794351208
O   O2        1.0  0.22659  0.09499  0.32974  1.0000 -0.5794351208
O   O3        1.0  0.72659  0.40501  0.32974  1.0000 -0.5794351208
O   O4        1.0  0.77341  0.90501  0.67026  1.0000 -0.5794351208
O   O5        1.0  0.07685  0.58007  0.62702  1.0000 -0.5493894177
O   O6        1.0  0.42315  0.08007  0.37298  1.0000 -0.5493894177
O   O7        1.0  0.92315  0.41993  0.37298  1.0000 -0.5493894177
O   O8        1.0  0.57685  0.91993  0.62702  1.0000 -0.5493894177
O   O9        1.0  0.20268  0.92583  0.33994  1.0000 -0.5602253378
O   O10       1.0  0.29732  0.42583  0.66006  1.0000 -0.5602253378
O   O11       1.0  0.79732  0.07417  0.66006  1.0000 -0.5602253378
O   O12       1.0  0.70268  0.57417  0.33994  1.0000 -0.5602253378
O   O13       1.0  0.40099  0.91300  0.39108  1.0000 -0.5602253378
O   O14       1.0  0.09901  0.41300  0.60892  1.0000 -0.5493894177
O   O15       1.0  0.59901  0.08700  0.60892  1.0000 -0.5602253378
O   O16       1.0  0.90099  0.58700  0.39108  1.0000 -0.5602253378
O   O17       1.0  0.29999  0.45986  0.43472  1.0000 -0.5279013026
O   O18       1.0  0.20001  0.95986  0.56528  1.0000 -0.5279013026
O   O19       1.0  0.70001  0.54014  0.56528  1.0000 -0.5279013026
O   O20       1.0  0.79999  0.04014  0.43472  1.0000 -0.5279013026
O   O21       1.0  0.14493  0.51554  0.44682  1.0000 -0.5794351208
O   O22       1.0  0.35507  0.01554  0.55318  1.0000 -0.5794351208
O   O23       1.0  0.85507  0.48446  0.55318  1.0000 -0.5794351208
O   O24       1.0  0.64493  0.98446  0.44682  1.0000 -0.5794351208
