# DDEC6 charges by PACMAN v1.1 (https://github.com/mtap-research/PACMAN-charge/)
data_2013[Zn][esg]3[ASR]1
_chemical_formula_sum              "Zn8 H104 C136 N16 O32"
_cell_length_a       21.1095
_cell_length_b       21.1095
_cell_length_c       29.269
_cell_angle_alpha    58.8949
_cell_angle_beta     121.105
_cell_angle_gamma    141.233

_symmetry_space_group_name_H-M    "P 1"
_symmetry_Int_Tables_number       1

loop_
  _symmetry_equiv_pos_as_xyz
  'x, y, z'

loop_
  _atom_site_type_symbol
  _atom_site_label
  _atom_site_symmetry_multiplicity
  _atom_site_fract_x
  _atom_site_fract_y
  _atom_site_fract_z
  _atom_site_occupancy
  _atom_site_charge
Zn  Zn1       1.0  0.53880  0.51782  0.05490  1.0000 0.8245282646
Zn  Zn2       1.0  0.51782  0.53880  0.44510  1.0000 0.8245282646
Zn  Zn3       1.0  0.46120  0.48218  0.94510  1.0000 0.8245282646
Zn  Zn4       1.0  0.48218  0.46120  0.55490  1.0000 0.8245282646
Zn  Zn5       1.0  0.70208  0.51478  0.32373  1.0000 0.7393688734
Zn  Zn6       1.0  0.51478  0.70208  0.17627  1.0000 0.7393688734
Zn  Zn7       1.0  0.29792  0.48522  0.67627  1.0000 0.7393688734
Zn  Zn8       1.0  0.48522  0.29792  0.82373  1.0000 0.7393688734
H   H1        1.0  0.73910  0.61210  0.13860  1.0000 0.1303622301
H   H2        1.0  0.61210  0.73910  0.36140  1.0000 0.1303622301
H   H3        1.0  0.26090  0.38790  0.86140  1.0000 0.1303622301
H   H4        1.0  0.38790  0.26090  0.63860  1.0000 0.1303622301
H   H5        1.0  0.71670  0.67290  0.13120  1.0000 0.1215368355
H   H6        1.0  0.67290  0.71670  0.36880  1.0000 0.1215368355
H   H7        1.0  0.28330  0.32710  0.86880  1.0000 0.1215368355
H   H8        1.0  0.32710  0.28330  0.63120  1.0000 0.1215368355
H   H9        1.0  0.54910  0.58430  0.12920  1.0000 0.1303622301
H   H10       1.0  0.58430  0.54910  0.37080  1.0000 0.1303622301
H   H11       1.0  0.45090  0.41570  0.87080  1.0000 0.1303622301
H   H12       1.0  0.41570  0.45090  0.62920  1.0000 0.1303622301
H   H13       1.0  0.46490  0.46290  0.14600  1.0000 0.1215368355
H   H14       1.0  0.46290  0.46490  0.35400  1.0000 0.1215368355
H   H15       1.0  0.53510  0.53710  0.85400  1.0000 0.1215368355
H   H16       1.0  0.53710  0.53510  0.64600  1.0000 0.1215368355
H   H17       1.0  0.49770  0.36690  0.16100  1.0000 0.1215368355
H   H18       1.0  0.36690  0.49770  0.33900  1.0000 0.1215368355
H   H19       1.0  0.50230  0.63310  0.83900  1.0000 0.1215368355
H   H20       1.0  0.63310  0.50230  0.66100  1.0000 0.1215368355
H   H21       1.0  0.60930  0.42630  0.16260  1.0000 0.1215368355
H   H22       1.0  0.42630  0.60930  0.33740  1.0000 0.1215368355
H   H23       1.0  0.39070  0.57370  0.83740  1.0000 0.1215368355
H   H24       1.0  0.57370  0.39070  0.66260  1.0000 0.1215368355
H   H25       1.0  0.77980  0.66960  0.21980  1.0000 0.1303622301
H   H26       1.0  0.66960  0.77980  0.28020  1.0000 0.1303622301
H   H27       1.0  0.22020  0.33040  0.78020  1.0000 0.1303622301
H   H28       1.0  0.33040  0.22020  0.71980  1.0000 0.1303622301
H   H29       1.0  0.78480  0.59360  0.22830  1.0000 0.1215368355
H   H30       1.0  0.59360  0.78480  0.27170  1.0000 0.1215368355
H   H31       1.0  0.21520  0.40640  0.77170  1.0000 0.1215368355
H   H32       1.0  0.40640  0.21520  0.72830  1.0000 0.1215368355
H   H33       1.0  0.52340  0.47540  0.23060  1.0000 0.1103501792
H   H34       1.0  0.47540  0.52340  0.26940  1.0000 0.1103501792
H   H35       1.0  0.47660  0.52460  0.76940  1.0000 0.1103501792
H   H36       1.0  0.52460  0.47660  0.73060  1.0000 0.1103501792
H   H37       1.0  0.61380  0.59600  0.21440  1.0000 0.1215368355
H   H38       1.0  0.59600  0.61380  0.28560  1.0000 0.1215368355
H   H39       1.0  0.38620  0.40400  0.78560  1.0000 0.1215368355
H   H40       1.0  0.40400  0.38620  0.71440  1.0000 0.1215368355
H   H41       1.0  0.64930  0.41590  0.25030  1.0000 0.1215368355
H   H42       1.0  0.41590  0.64930  0.24970  1.0000 0.1215368355
H   H43       1.0  0.35070  0.58410  0.74970  1.0000 0.1215368355
H   H44       1.0  0.58410  0.35070  0.75030  1.0000 0.1215368355
H   H45       1.0  0.54180  0.36720  0.24730  1.0000 0.1103501792
H   H46       1.0  0.36720  0.54180  0.25270  1.0000 0.1103501792
H   H47       1.0  0.45820  0.63280  0.75270  1.0000 0.1103501792
H   H48       1.0  0.63280  0.45820  0.74730  1.0000 0.1103501792
H   H49       1.0  0.50760  0.72940  0.01430  1.0000 0.1397283218
H   H50       1.0  0.72940  0.50760  0.48570  1.0000 0.1397283218
H   H51       1.0  0.49240  0.27060  0.98570  1.0000 0.1397283218
H   H52       1.0  0.27060  0.49240  0.51430  1.0000 0.1397283218
H   H53       1.0  0.43500  0.69340  0.86800  1.0000 0.1215368355
H   H54       1.0  0.69340  0.43500  0.63200  1.0000 0.1215368355
H   H55       1.0  0.56500  0.30660  0.13200  1.0000 0.1215368355
H   H56       1.0  0.30660  0.56500  0.36800  1.0000 0.1215368355
H   H57       1.0  0.85860  0.80160  0.04050  1.0000 0.1215368355
H   H58       1.0  0.80160  0.85860  0.45950  1.0000 0.1215368355
H   H59       1.0  0.14140  0.19840  0.95950  1.0000 0.1215368355
H   H60       1.0  0.19840  0.14140  0.54050  1.0000 0.1215368355
H   H61       1.0  0.75690  0.73530  0.89780  1.0000 0.1303622301
H   H62       1.0  0.73530  0.75690  0.60220  1.0000 0.1303622301
H   H63       1.0  0.24310  0.26470  0.10220  1.0000 0.1303622301
H   H64       1.0  0.26470  0.24310  0.39780  1.0000 0.1303622301
H   H65       1.0  0.42970  0.81290  0.82450  1.0000 0.1215368355
H   H66       1.0  0.81290  0.42970  0.67550  1.0000 0.1215368355
H   H67       1.0  0.57030  0.18710  0.17550  1.0000 0.1215368355
H   H68       1.0  0.18710  0.57030  0.32450  1.0000 0.1215368355
H   H69       1.0  0.02710  0.93890  0.02890  1.0000 0.1215368355
H   H70       1.0  0.93890  0.02710  0.47110  1.0000 0.1215368355
H   H71       1.0  0.97290  0.06110  0.97110  1.0000 0.1215368355
H   H72       1.0  0.06110  0.97290  0.52890  1.0000 0.1215368355
H   H73       1.0  0.50960  0.86680  0.00450  1.0000 0.3134923603
H   H74       1.0  0.86680  0.50960  0.49550  1.0000 0.3134923603
H   H75       1.0  0.49040  0.13320  0.99550  1.0000 0.3134923603
H   H76       1.0  0.13320  0.49040  0.50450  1.0000 0.3134923603
H   H77       1.0  0.91890  0.87270  0.84550  1.0000 0.2806510504
H   H78       1.0  0.87270  0.91890  0.65450  1.0000 0.2806510504
H   H79       1.0  0.08110  0.12730  0.15450  1.0000 0.2806510504
H   H80       1.0  0.12730  0.08110  0.34550  1.0000 0.2806510504
H   H81       1.0  0.51130  0.01990  0.96310  1.0000 0.1303622301
H   H82       1.0  0.01990  0.51130  0.53690  1.0000 0.1303622301
H   H83       1.0  0.48870  0.98010  0.03690  1.0000 0.1303622301
H   H84       1.0  0.98010  0.48870  0.46310  1.0000 0.1303622301
H   H85       1.0  0.44440  0.98120  0.79620  1.0000 0.1215368355
H   H86       1.0  0.98120  0.44440  0.70380  1.0000 0.1215368355
H   H87       1.0  0.55560  0.01880  0.20380  1.0000 0.1215368355
H   H88       1.0  0.01880  0.55560  0.29620  1.0000 0.1215368355
H   H89       1.0  0.20910  0.10270  0.98450  1.0000 0.1303622301
H   H90       1.0  0.10270  0.20910  0.51550  1.0000 0.1303622301
H   H91       1.0  0.79090  0.89730  0.01550  1.0000 0.1303622301
H   H92       1.0  0.89730  0.79090  0.48450  1.0000 0.1303622301
H   H93       1.0  0.10670  0.02430  0.82250  1.0000 0.1397283218
H   H94       1.0  0.02430  0.10670  0.67750  1.0000 0.1397283218
H   H95       1.0  0.89330  0.97570  0.17750  1.0000 0.1397283218
H   H96       1.0  0.97570  0.89330  0.32250  1.0000 0.1397283218
H   H97       1.0  0.45090  0.09530  0.79770  1.0000 0.1215368355
H   H98       1.0  0.09530  0.45090  0.70230  1.0000 0.1215368355
H   H99       1.0  0.54910  0.90470  0.20230  1.0000 0.1215368355
H   H100      1.0  0.90470  0.54910  0.29770  1.0000 0.1215368355
H   H101      1.0  0.33150  0.20770  0.93390  1.0000 0.1215368355
H   H102      1.0  0.20770  0.33150  0.56610  1.0000 0.1215368355
H   H103      1.0  0.66850  0.79230  0.06610  1.0000 0.1215368355
H   H104      1.0  0.79230  0.66850  0.43390  1.0000 0.1215368355
C   C1        1.0  0.70200  0.61000  0.15030  1.0000 -0.1192204008
C   C2        1.0  0.61000  0.70200  0.34970  1.0000 -0.1192204008
C   C3        1.0  0.29800  0.39000  0.84970  1.0000 -0.1192204008
C   C4        1.0  0.39000  0.29800  0.65030  1.0000 -0.1192204008
C   C5        1.0  0.53867  0.52433  0.15200  1.0000 -0.1192204008
C   C6        1.0  0.52433  0.53867  0.34800  1.0000 -0.1192204008
C   C7        1.0  0.46133  0.47567  0.84800  1.0000 -0.1192204008
C   C8        1.0  0.47567  0.46133  0.65200  1.0000 -0.1192204008
C   C9        1.0  0.57090  0.42770  0.17020  1.0000 -0.1192204008
C   C10       1.0  0.42770  0.57090  0.32980  1.0000 -0.1192204008
C   C11       1.0  0.42910  0.57230  0.82980  1.0000 -0.1192204008
C   C12       1.0  0.57230  0.42910  0.67020  1.0000 -0.1192204008
C   C13       1.0  0.48310  0.62750  0.97030  1.0000 0.5703305777
C   C14       1.0  0.62750  0.48310  0.52970  1.0000 0.5703305777
C   C15       1.0  0.51690  0.37250  0.02970  1.0000 0.5703305777
C   C16       1.0  0.37250  0.51690  0.47030  1.0000 0.5703305777
C   C17       1.0  0.68317  0.65823  0.98080  1.0000 0.5703305777
C   C18       1.0  0.65823  0.68317  0.51920  1.0000 0.5703305777
C   C19       1.0  0.31683  0.34177  0.01920  1.0000 0.5703305777
C   C20       1.0  0.34177  0.31683  0.48080  1.0000 0.5703305777
C   C21       1.0  0.74000  0.60460  0.21310  1.0000 -0.12934416
C   C22       1.0  0.60460  0.74000  0.28690  1.0000 -0.12934416
C   C23       1.0  0.26000  0.39540  0.78690  1.0000 -0.12934416
C   C24       1.0  0.39540  0.26000  0.71310  1.0000 -0.12934416
C   C25       1.0  0.58060  0.53060  0.21200  1.0000 -0.1476543982
C   C26       1.0  0.53060  0.58060  0.28800  1.0000 -0.1476543982
C   C27       1.0  0.41940  0.46940  0.78800  1.0000 -0.1476543982
C   C28       1.0  0.46940  0.41940  0.71200  1.0000 -0.1476543982
C   C29       1.0  0.60270  0.42530  0.23150  1.0000 -0.12934416
C   C30       1.0  0.42530  0.60270  0.26850  1.0000 -0.12934416
C   C31       1.0  0.39730  0.57470  0.76850  1.0000 -0.12934416
C   C32       1.0  0.57470  0.39730  0.73150  1.0000 -0.12934416
C   C33       1.0  0.47437  0.70183  0.94430  1.0000 -0.0408271209
C   C34       1.0  0.70183  0.47437  0.55570  1.0000 -0.0408271209
C   C35       1.0  0.52563  0.29817  0.05570  1.0000 -0.0408271209
C   C36       1.0  0.29817  0.52563  0.44430  1.0000 -0.0408271209
C   C37       1.0  0.79210  0.75190  0.97180  1.0000 -0.0190061497
C   C38       1.0  0.75190  0.79210  0.52820  1.0000 -0.0190061497
C   C39       1.0  0.20790  0.24810  0.02820  1.0000 -0.0190061497
C   C40       1.0  0.24810  0.20790  0.47180  1.0000 -0.0190061497
C   C41       1.0  0.49140  0.74620  0.97640  1.0000 -0.1968385254
C   C42       1.0  0.74620  0.49140  0.52360  1.0000 -0.1968385254
C   C43       1.0  0.50860  0.25380  0.02360  1.0000 -0.1968385254
C   C44       1.0  0.25380  0.50860  0.47640  1.0000 -0.1968385254
C   C45       1.0  0.44920  0.72680  0.88850  1.0000 -0.12934416
C   C46       1.0  0.72680  0.44920  0.61150  1.0000 -0.12934416
C   C47       1.0  0.55080  0.27320  0.11150  1.0000 -0.12934416
C   C48       1.0  0.27320  0.55080  0.38850  1.0000 -0.12934416
C   C49       1.0  0.87310  0.81590  0.00960  1.0000 -0.1415215821
C   C50       1.0  0.81590  0.87310  0.49040  1.0000 -0.1415215821
C   C51       1.0  0.12690  0.18410  0.99040  1.0000 -0.1415215821
C   C52       1.0  0.18410  0.12690  0.50960  1.0000 -0.1415215821
C   C53       1.0  0.81040  0.77520  0.92400  1.0000 -0.2124258813
C   C54       1.0  0.77520  0.81040  0.57600  1.0000 -0.2124258813
C   C55       1.0  0.18960  0.22480  0.07600  1.0000 -0.2124258813
C   C56       1.0  0.22480  0.18960  0.42400  1.0000 -0.2124258813
C   C57       1.0  0.48328  0.81592  0.94970  1.0000 0.1703788664
C   C58       1.0  0.81592  0.48328  0.55030  1.0000 0.1703788664
C   C59       1.0  0.51672  0.18408  0.05030  1.0000 0.1703788664
C   C60       1.0  0.18408  0.51672  0.44970  1.0000 0.1703788664
C   C61       1.0  0.44430  0.79610  0.86250  1.0000 -0.12934416
C   C62       1.0  0.79610  0.44430  0.63750  1.0000 -0.12934416
C   C63       1.0  0.55570  0.20390  0.13750  1.0000 -0.12934416
C   C64       1.0  0.20390  0.55570  0.36250  1.0000 -0.12934416
C   C65       1.0  0.97380  0.89980  0.00230  1.0000 -0.1415215821
C   C66       1.0  0.89980  0.97380  0.49770  1.0000 -0.1415215821
C   C67       1.0  0.02620  0.10020  0.99770  1.0000 -0.1415215821
C   C68       1.0  0.10020  0.02620  0.50230  1.0000 -0.1415215821
C   C69       1.0  0.91290  0.86130  0.91620  1.0000 0.1703788664
C   C70       1.0  0.86130  0.91290  0.58380  1.0000 0.1703788664
C   C71       1.0  0.08710  0.13870  0.08380  1.0000 0.1703788664
C   C72       1.0  0.13870  0.08710  0.41620  1.0000 0.1703788664
C   C73       1.0  0.46210  0.84610  0.89370  1.0000 -0.0408271209
C   C74       1.0  0.84610  0.46210  0.60630  1.0000 -0.0408271209
C   C75       1.0  0.53790  0.15390  0.10630  1.0000 -0.0408271209
C   C76       1.0  0.15390  0.53790  0.39370  1.0000 -0.0408271209
C   C77       1.0  0.99320  0.92380  0.95540  1.0000 -0.0190061497
C   C78       1.0  0.92380  0.99320  0.54460  1.0000 -0.0190061497
C   C79       1.0  0.00680  0.07620  0.04460  1.0000 -0.0190061497
C   C80       1.0  0.07620  0.00680  0.45540  1.0000 -0.0190061497
C   C81       1.0  0.48603  0.93897  0.92800  1.0000 0.1703788664
C   C82       1.0  0.93897  0.48603  0.57200  1.0000 0.1703788664
C   C83       1.0  0.51397  0.06103  0.07200  1.0000 0.1648186024
C   C84       1.0  0.06103  0.51397  0.42800  1.0000 0.1703788664
C   C85       1.0  0.46570  0.92630  0.87770  1.0000 -0.0022712294
C   C86       1.0  0.92630  0.46570  0.62230  1.0000 -0.0022712294
C   C87       1.0  0.53430  0.07370  0.12230  1.0000 -0.0022712294
C   C88       1.0  0.07370  0.53430  0.37770  1.0000 -0.0022712294
C   C89       1.0  0.08810  0.00610  0.93350  1.0000 -0.0289270331
C   C90       1.0  0.00610  0.08810  0.56650  1.0000 -0.0289270331
C   C91       1.0  0.91190  0.99390  0.06650  1.0000 -0.0289270331
C   C92       1.0  0.99390  0.91190  0.43350  1.0000 -0.0289270331
C   C93       1.0  0.05960  0.98620  0.88580  1.0000 0.1303622301
C   C94       1.0  0.98620  0.05960  0.61420  1.0000 0.1303622301
C   C95       1.0  0.94040  0.01380  0.11420  1.0000 0.1303622301
C   C96       1.0  0.01380  0.94040  0.38580  1.0000 0.1397283218
C   C97       1.0  0.49572  0.01048  0.92980  1.0000 -0.1968385254
C   C98       1.0  0.01048  0.49572  0.57020  1.0000 -0.1968385254
C   C99       1.0  0.50428  0.98952  0.07020  1.0000 -0.1968385254
C   C100      1.0  0.98952  0.50428  0.42980  1.0000 -0.1968385254
C   C101      1.0  0.45520  0.98720  0.82930  1.0000 -0.1415215821
C   C102      1.0  0.98720  0.45520  0.67070  1.0000 -0.1415215821
C   C103      1.0  0.54480  0.01280  0.17070  1.0000 -0.1415215821
C   C104      1.0  0.01280  0.54480  0.32930  1.0000 -0.1415215821
C   C105      1.0  0.18920  0.08840  0.95180  1.0000 -0.1415215821
C   C106      1.0  0.08840  0.18920  0.54820  1.0000 -0.1415215821
C   C107      1.0  0.81080  0.91160  0.04820  1.0000 -0.1415215821
C   C108      1.0  0.91160  0.81080  0.45180  1.0000 -0.1415215821
C   C109      1.0  0.12780  0.04200  0.85410  1.0000 -0.2124258813
C   C110      1.0  0.04200  0.12780  0.64590  1.0000 -0.2124258813
C   C111      1.0  0.87220  0.95800  0.14590  1.0000 -0.2124258813
C   C112      1.0  0.95800  0.87220  0.35410  1.0000 -0.2124258813
C   C113      1.0  0.48200  0.06680  0.88190  1.0000 -0.0190061497
C   C114      1.0  0.06680  0.48200  0.61810  1.0000 -0.0143661492
C   C115      1.0  0.51800  0.93320  0.11810  1.0000 -0.0143661492
C   C116      1.0  0.93320  0.51800  0.38190  1.0000 -0.0143661492
C   C117      1.0  0.46070  0.05670  0.82990  1.0000 -0.1415215821
C   C118      1.0  0.05670  0.46070  0.67010  1.0000 -0.1476543982
C   C119      1.0  0.53930  0.94330  0.17010  1.0000 -0.1415215821
C   C120      1.0  0.94330  0.53930  0.32990  1.0000 -0.1476543982
C   C121      1.0  0.26260  0.15080  0.92190  1.0000 -0.1476543982
C   C122      1.0  0.15080  0.26260  0.57810  1.0000 -0.1476543982
C   C123      1.0  0.73740  0.84920  0.07810  1.0000 -0.1476543982
C   C124      1.0  0.84920  0.73740  0.42190  1.0000 -0.1476543982
C   C125      1.0  0.23130  0.12690  0.87360  1.0000 0.0096402087
C   C126      1.0  0.12690  0.23130  0.62640  1.0000 0.0096402087
C   C127      1.0  0.76870  0.87310  0.12640  1.0000 0.0096402087
C   C128      1.0  0.87310  0.76870  0.37360  1.0000 0.0096402087
C   C129      1.0  0.49050  0.14470  0.88190  1.0000 0.5636594172
C   C130      1.0  0.14470  0.49050  0.61810  1.0000 0.5636594172
C   C131      1.0  0.50950  0.85530  0.11810  1.0000 0.5636594172
C   C132      1.0  0.85530  0.50950  0.38190  1.0000 0.5636594172
C   C133      1.0  0.31670  0.19230  0.84390  1.0000 0.5208683486
C   C134      1.0  0.19230  0.31670  0.65610  1.0000 0.5208683486
C   C135      1.0  0.68330  0.80770  0.15610  1.0000 0.5208683486
C   C136      1.0  0.80770  0.68330  0.34390  1.0000 0.5208683486
N   N1        1.0  0.59127  0.52053  0.13669  1.0000 -0.0882571705
N   N2        1.0  0.52053  0.59127  0.36331  1.0000 -0.0882571705
N   N3        1.0  0.40873  0.47947  0.86331  1.0000 -0.0882571705
N   N4        1.0  0.47947  0.40873  0.63669  1.0000 -0.0882571705
N   N5        1.0  0.65416  0.52224  0.23905  1.0000 -0.0882571705
N   N6        1.0  0.52224  0.65416  0.26095  1.0000 -0.0882571705
N   N7        1.0  0.34584  0.47776  0.76095  1.0000 -0.0882571705
N   N8        1.0  0.47776  0.34584  0.73905  1.0000 -0.0882571705
N   N9        1.0  0.49652  0.87188  0.97032  1.0000 -0.2883873259
N   N10       1.0  0.87188  0.49652  0.52968  1.0000 -0.2883873259
N   N11       1.0  0.50348  0.12812  0.02968  1.0000 -0.2883873259
N   N12       1.0  0.12812  0.50348  0.47032  1.0000 -0.2883873259
N   N13       1.0  0.95280  0.89840  0.87380  1.0000 -0.3059932117
N   N14       1.0  0.89840  0.95280  0.62620  1.0000 -0.3059932117
N   N15       1.0  0.04720  0.10160  0.12620  1.0000 -0.3059932117
N   N16       1.0  0.10160  0.04720  0.37380  1.0000 -0.3059932117
O   O1        1.0  0.51407  0.61053  0.02114  1.0000 -0.5292829026
O   O2        1.0  0.61053  0.51407  0.47886  1.0000 -0.5292829026
O   O3        1.0  0.48593  0.38947  0.97886  1.0000 -0.5292829026
O   O4        1.0  0.38947  0.48593  0.52114  1.0000 -0.5292829026
O   O5        1.0  0.67127  0.63733  0.02700  1.0000 -0.5611006815
O   O6        1.0  0.63733  0.67127  0.47300  1.0000 -0.5611006815
O   O7        1.0  0.32873  0.36267  0.97300  1.0000 -0.5611006815
O   O8        1.0  0.36267  0.32873  0.52700  1.0000 -0.5611006815
O   O9        1.0  0.54245  0.41895  0.05958  1.0000 -0.5611006815
O   O10       1.0  0.41895  0.54245  0.44042  1.0000 -0.5611006815
O   O11       1.0  0.45755  0.58105  0.94042  1.0000 -0.5611006815
O   O12       1.0  0.58105  0.45755  0.55958  1.0000 -0.5611006815
O   O13       1.0  0.38594  0.38986  0.05649  1.0000 -0.5396809553
O   O14       1.0  0.38986  0.38594  0.44351  1.0000 -0.5396809553
O   O15       1.0  0.61406  0.61014  0.94351  1.0000 -0.5396809553
O   O16       1.0  0.61014  0.61406  0.55649  1.0000 -0.5396809553
O   O17       1.0  0.79652  0.50788  0.33723  1.0000 -0.5611006815
O   O18       1.0  0.50788  0.79652  0.16277  1.0000 -0.5611006815
O   O19       1.0  0.20348  0.49212  0.66277  1.0000 -0.5611006815
O   O20       1.0  0.49212  0.20348  0.83723  1.0000 -0.5611006815
O   O21       1.0  0.73637  0.59303  0.36350  1.0000 -0.5292829026
O   O22       1.0  0.59303  0.73637  0.13650  1.0000 -0.5292829026
O   O23       1.0  0.26363  0.40697  0.63650  1.0000 -0.5292829026
O   O24       1.0  0.40697  0.26363  0.86350  1.0000 -0.5292829026
O   O25       1.0  0.50138  0.15202  0.92520  1.0000 -0.5611006815
O   O26       1.0  0.15202  0.50138  0.57480  1.0000 -0.5611006815
O   O27       1.0  0.49862  0.84798  0.07480  1.0000 -0.5611006815
O   O28       1.0  0.84798  0.49862  0.42520  1.0000 -0.5611006815
O   O29       1.0  0.28920  0.16200  0.80490  1.0000 -0.5396809553
O   O30       1.0  0.16200  0.28920  0.69510  1.0000 -0.5396809553
O   O31       1.0  0.71080  0.83800  0.19510  1.0000 -0.5396809553
O   O32       1.0  0.83800  0.71080  0.30490  1.0000 -0.5396809553
