# DDEC6 charges by PACMAN v1.1 (https://github.com/mtap-research/PACMAN-charge/)
data_2013[Cu][lvt]3[ASR]1
_chemical_formula_sum              "Cu8 H88 C160 O32"
_cell_length_a       21.9042
_cell_length_b       21.9042
_cell_length_c       21.9042
_cell_angle_alpha    99.8725
_cell_angle_beta     99.8725
_cell_angle_gamma    131.078

_symmetry_space_group_name_H-M    "P 1"
_symmetry_Int_Tables_number       1

loop_
  _symmetry_equiv_pos_as_xyz
  'x, y, z'

loop_
  _atom_site_type_symbol
  _atom_site_label
  _atom_site_symmetry_multiplicity
  _atom_site_fract_x
  _atom_site_fract_y
  _atom_site_fract_z
  _atom_site_occupancy
  _atom_site_charge
Cu  Cu1       1.0  0.88719  0.61100  0.72381  1.0000 0.8653305716
Cu  Cu2       1.0  0.88719  0.16338  0.27619  1.0000 0.8653305716
Cu  Cu3       1.0  0.99508  0.78129  0.78621  1.0000 0.7957633085
Cu  Cu4       1.0  0.99508  0.20887  0.21379  1.0000 0.7936133888
Cu  Cu5       1.0  0.38900  0.11281  0.27619  1.0000 0.8635855562
Cu  Cu6       1.0  0.83662  0.11281  0.72381  1.0000 0.8635855562
Cu  Cu7       1.0  0.21871  0.00492  0.21379  1.0000 0.7936133888
Cu  Cu8       1.0  0.79113  0.00492  0.78621  1.0000 0.7936133888
H   H1        1.0  0.85570  0.53700  0.89370  1.0000 0.1290759894
H   H2        1.0  0.64330  0.96200  0.10630  1.0000 0.1290759894
H   H3        1.0  0.85570  0.96200  0.31870  1.0000 0.1290759894
H   H4        1.0  0.64330  0.53700  0.68130  1.0000 0.1290759894
H   H5        1.0  0.86260  0.51820  0.99420  1.0000 0.118424018
H   H6        1.0  0.52400  0.86840  0.00580  1.0000 0.118424018
H   H7        1.0  0.86260  0.86840  0.34440  1.0000 0.118424018
H   H8        1.0  0.52400  0.51820  0.65560  1.0000 0.118424018
H   H9        1.0  0.04610  0.78020  0.09270  1.0000 0.118424018
H   H10       1.0  0.68750  0.95340  0.90730  1.0000 0.118424018
H   H11       1.0  0.04610  0.95340  0.26590  1.0000 0.118424018
H   H12       1.0  0.68750  0.78020  0.73410  1.0000 0.118424018
H   H13       1.0  0.03730  0.79570  0.99080  1.0000 0.1290759894
H   H14       1.0  0.80490  0.04650  0.00920  1.0000 0.1290759894
H   H15       1.0  0.03730  0.04650  0.24160  1.0000 0.1290759894
H   H16       1.0  0.80490  0.79570  0.75840  1.0000 0.1290759894
H   H17       1.0  0.96430  0.72910  0.16480  1.0000 0.118424018
H   H18       1.0  0.56430  0.79950  0.83520  1.0000 0.118424018
H   H19       1.0  0.96430  0.79950  0.23520  1.0000 0.118424018
H   H20       1.0  0.56430  0.72910  0.76480  1.0000 0.118424018
H   H21       1.0  0.95410  0.60010  0.27900  1.0000 0.1101549572
H   H22       1.0  0.32110  0.67510  0.72100  1.0000 0.1101549572
H   H23       1.0  0.95410  0.67510  0.35400  1.0000 0.1101549572
H   H24       1.0  0.32110  0.60010  0.64600  1.0000 0.1101549572
H   H25       1.0  0.94230  0.53080  0.09390  1.0000 0.1101549572
H   H26       1.0  0.43690  0.84840  0.90610  1.0000 0.1101549572
H   H27       1.0  0.94230  0.84840  0.41150  1.0000 0.1101549572
H   H28       1.0  0.43690  0.53080  0.58850  1.0000 0.1101549572
H   H29       1.0  0.01050  0.49700  0.14030  1.0000 0.1101549572
H   H30       1.0  0.35670  0.87020  0.85970  1.0000 0.1101549572
H   H31       1.0  0.01050  0.87020  0.51350  1.0000 0.1101549572
H   H32       1.0  0.35670  0.49700  0.48650  1.0000 0.1101549572
H   H33       1.0  0.01960  0.40480  0.16560  1.0000 0.118424018
H   H34       1.0  0.23920  0.85400  0.83440  1.0000 0.118424018
H   H35       1.0  0.01960  0.85400  0.61480  1.0000 0.118424018
H   H36       1.0  0.23920  0.40480  0.38520  1.0000 0.118424018
H   H37       1.0  0.87370  0.35170  0.27160  1.0000 0.1290759894
H   H38       1.0  0.08010  0.60210  0.72840  1.0000 0.1290759894
H   H39       1.0  0.87370  0.60210  0.52200  1.0000 0.1290759894
H   H40       1.0  0.08010  0.35170  0.47800  1.0000 0.1290759894
H   H41       1.0  0.87460  0.45250  0.25430  1.0000 0.118424018
H   H42       1.0  0.19820  0.62030  0.74570  1.0000 0.118424018
H   H43       1.0  0.87460  0.62030  0.42210  1.0000 0.118424018
H   H44       1.0  0.19820  0.45250  0.57790  1.0000 0.118424018
H   H45       1.0  0.46300  0.35670  0.31870  1.0000 0.1290759894
H   H46       1.0  0.03800  0.14430  0.68130  1.0000 0.1290759894
H   H47       1.0  0.03800  0.35670  0.89370  1.0000 0.1290759894
H   H48       1.0  0.46300  0.14430  0.10630  1.0000 0.1290759894
H   H49       1.0  0.48180  0.47600  0.34440  1.0000 0.118424018
H   H50       1.0  0.13160  0.13740  0.65560  1.0000 0.118424018
H   H51       1.0  0.13160  0.47600  0.99420  1.0000 0.118424018
H   H52       1.0  0.48180  0.13740  0.00580  1.0000 0.118424018
H   H53       1.0  0.21980  0.31250  0.26590  1.0000 0.118424018
H   H54       1.0  0.04660  0.95390  0.73410  1.0000 0.118424018
H   H55       1.0  0.04660  0.31250  0.09270  1.0000 0.118424018
H   H56       1.0  0.21980  0.95390  0.90730  1.0000 0.118424018
H   H57       1.0  0.20430  0.19510  0.24160  1.0000 0.1290759894
H   H58       1.0  0.95350  0.96270  0.75840  1.0000 0.1290759894
H   H59       1.0  0.95350  0.19510  0.99080  1.0000 0.1290759894
H   H60       1.0  0.20430  0.96270  0.00920  1.0000 0.1290759894
H   H61       1.0  0.27090  0.43570  0.23520  1.0000 0.118424018
H   H62       1.0  0.20050  0.03570  0.76480  1.0000 0.118424018
H   H63       1.0  0.20050  0.43570  0.16480  1.0000 0.118424018
H   H64       1.0  0.27090  0.03570  0.83520  1.0000 0.118424018
H   H65       1.0  0.39990  0.67890  0.35400  1.0000 0.1101549572
H   H66       1.0  0.32490  0.04590  0.64600  1.0000 0.1101549572
H   H67       1.0  0.32490  0.67890  0.27900  1.0000 0.1101549572
H   H68       1.0  0.39990  0.04590  0.72100  1.0000 0.1101549572
H   H69       1.0  0.46920  0.56310  0.41150  1.0000 0.1101549572
H   H70       1.0  0.15160  0.05770  0.58850  1.0000 0.1101549572
H   H71       1.0  0.15160  0.56310  0.09390  1.0000 0.1101549572
H   H72       1.0  0.46920  0.05770  0.90610  1.0000 0.1101549572
H   H73       1.0  0.50300  0.64330  0.51350  1.0000 0.1101549572
H   H74       1.0  0.12980  0.98950  0.48650  1.0000 0.1101549572
H   H75       1.0  0.12980  0.64330  0.14030  1.0000 0.1101549572
H   H76       1.0  0.50300  0.98950  0.85970  1.0000 0.1101549572
H   H77       1.0  0.59520  0.76080  0.61480  1.0000 0.118424018
H   H78       1.0  0.14600  0.98040  0.38520  1.0000 0.118424018
H   H79       1.0  0.14600  0.76080  0.16560  1.0000 0.118424018
H   H80       1.0  0.59520  0.98040  0.83440  1.0000 0.118424018
H   H81       1.0  0.64830  0.91990  0.52200  1.0000 0.1290759894
H   H82       1.0  0.39790  0.12630  0.47800  1.0000 0.1290759894
H   H83       1.0  0.39790  0.91990  0.27160  1.0000 0.1290759894
H   H84       1.0  0.64830  0.12630  0.72840  1.0000 0.1290759894
H   H85       1.0  0.54750  0.80180  0.42210  1.0000 0.118424018
H   H86       1.0  0.37970  0.12540  0.57790  1.0000 0.118424018
H   H87       1.0  0.37970  0.80180  0.25430  1.0000 0.118424018
H   H88       1.0  0.54750  0.12540  0.74570  1.0000 0.118424018
C   C1        1.0  0.94444  0.68085  0.86649  1.0000 0.5768475522
C   C2        1.0  0.81436  0.07795  0.13351  1.0000 0.5768475522
C   C3        1.0  0.94444  0.07795  0.26359  1.0000 0.5768475522
C   C4        1.0  0.81436  0.68085  0.73641  1.0000 0.5768475522
C   C5        1.0  0.94741  0.66860  0.93261  1.0000 -0.022554838
C   C6        1.0  0.73599  0.01480  0.06739  1.0000 -0.022554838
C   C7        1.0  0.94741  0.01480  0.27881  1.0000 -0.022554838
C   C8        1.0  0.73599  0.66860  0.72119  1.0000 -0.022554838
C   C9        1.0  0.89423  0.58574  0.93377  1.0000 -0.0874873867
C   C10       1.0  0.65197  0.96046  0.06623  1.0000 -0.0874873867
C   C11       1.0  0.89423  0.96046  0.30849  1.0000 -0.0874873867
C   C12       1.0  0.65197  0.58574  0.69151  1.0000 -0.0874873867
C   C13       1.0  0.89783  0.57447  0.99410  1.0000 -0.1487153058
C   C14       1.0  0.58037  0.90373  0.00590  1.0000 -0.1487153058
C   C15       1.0  0.89783  0.90373  0.32336  1.0000 -0.1487153058
C   C16       1.0  0.58037  0.57447  0.67664  1.0000 -0.1487153058
C   C17       1.0  0.95321  0.64602  0.05423  1.0000 0.0728739508
C   C18       1.0  0.59179  0.89898  0.94577  1.0000 0.0728739508
C   C19       1.0  0.95321  0.89898  0.30719  1.0000 0.0728739508
C   C20       1.0  0.59179  0.64602  0.69281  1.0000 0.0728739508
C   C21       1.0  0.00745  0.73090  0.05295  1.0000 -0.1577010021
C   C22       1.0  0.67795  0.95450  0.94705  1.0000 -0.1577010021
C   C23       1.0  0.00745  0.95450  0.27655  1.0000 -0.1577010021
C   C24       1.0  0.67795  0.73090  0.72345  1.0000 -0.1577010021
C   C25       1.0  0.00245  0.73991  0.99176  1.0000 -0.0874873867
C   C26       1.0  0.74815  0.01069  0.00824  1.0000 -0.0874873867
C   C27       1.0  0.00245  0.01069  0.26254  1.0000 -0.0874873867
C   C28       1.0  0.74815  0.73991  0.73746  1.0000 -0.0874873867
C   C29       1.0  0.95763  0.63552  0.12095  1.0000 0.0821258931
C   C30       1.0  0.51457  0.83668  0.87905  1.0000 0.0821258931
C   C31       1.0  0.95763  0.83668  0.32211  1.0000 0.0821258931
C   C32       1.0  0.51457  0.63552  0.67789  1.0000 0.0821258931
C   C33       1.0  0.96099  0.68640  0.17159  1.0000 -0.2006380145
C   C34       1.0  0.51481  0.78940  0.82841  1.0000 -0.2006380145
C   C35       1.0  0.96099  0.78940  0.27459  1.0000 -0.2006380145
C   C36       1.0  0.51481  0.68640  0.72541  1.0000 -0.2006380145
C   C37       1.0  0.95952  0.67565  0.23237  1.0000 0.0821258931
C   C38       1.0  0.44328  0.72715  0.76763  1.0000 0.0821258931
C   C39       1.0  0.95952  0.72715  0.28387  1.0000 0.0821258931
C   C40       1.0  0.44328  0.67565  0.71613  1.0000 0.0821258931
C   C41       1.0  0.95462  0.60902  0.23904  1.0000 -0.2006380145
C   C42       1.0  0.36998  0.71558  0.76096  1.0000 -0.2006380145
C   C43       1.0  0.95462  0.71558  0.34560  1.0000 -0.2006380145
C   C44       1.0  0.36998  0.60902  0.65440  1.0000 -0.2006380145
C   C45       1.0  0.95060  0.55793  0.18973  1.0000 0.0852178655
C   C46       1.0  0.36820  0.76087  0.81027  1.0000 0.0852178655
C   C47       1.0  0.95060  0.76087  0.39267  1.0000 0.0852178655
C   C48       1.0  0.36820  0.55793  0.60733  1.0000 0.0852178655
C   C49       1.0  0.94895  0.56794  0.12889  1.0000 -0.209023656
C   C50       1.0  0.43905  0.82006  0.87111  1.0000 -0.209023656
C   C51       1.0  0.94895  0.82006  0.38101  1.0000 -0.209023656
C   C52       1.0  0.43905  0.56794  0.61899  1.0000 -0.209023656
C   C53       1.0  0.94562  0.48838  0.19800  1.0000 0.0728739508
C   C54       1.0  0.29038  0.74762  0.80200  1.0000 0.0728739508
C   C55       1.0  0.94562  0.74762  0.45724  1.0000 0.0728739508
C   C56       1.0  0.29038  0.48838  0.54276  1.0000 0.0728739508
C   C57       1.0  0.98520  0.47027  0.16907  1.0000 -0.1577010021
C   C58       1.0  0.30120  0.81613  0.83093  1.0000 -0.1577010021
C   C59       1.0  0.98520  0.81613  0.51493  1.0000 -0.1577010021
C   C60       1.0  0.30120  0.47027  0.48507  1.0000 -0.1577010021
C   C61       1.0  0.98760  0.41209  0.18229  1.0000 -0.0973410389
C   C62       1.0  0.22980  0.80531  0.81771  1.0000 -0.0973410389
C   C63       1.0  0.98760  0.80531  0.57551  1.0000 -0.0973410389
C   C64       1.0  0.22980  0.41209  0.42449  1.0000 -0.0973410389
C   C65       1.0  0.94521  0.36592  0.21853  1.0000 -0.0060128809
C   C66       1.0  0.14739  0.72668  0.78147  1.0000 -0.0060128809
C   C67       1.0  0.94521  0.72668  0.57929  1.0000 -0.0060128809
C   C68       1.0  0.14739  0.36592  0.42071  1.0000 -0.0060128809
C   C69       1.0  0.90302  0.38202  0.24584  1.0000 -0.0973410389
C   C70       1.0  0.13618  0.65718  0.75416  1.0000 -0.0973410389
C   C71       1.0  0.90302  0.65718  0.52100  1.0000 -0.0973410389
C   C72       1.0  0.13618  0.38202  0.47900  1.0000 -0.0973410389
C   C73       1.0  0.90360  0.44252  0.23532  1.0000 -0.1487153058
C   C74       1.0  0.20720  0.66828  0.76468  1.0000 -0.1487153058
C   C75       1.0  0.90360  0.66828  0.46108  1.0000 -0.1487153058
C   C76       1.0  0.20720  0.44252  0.53892  1.0000 -0.1487153058
C   C77       1.0  0.94387  0.29798  0.22805  1.0000 0.5768475522
C   C78       1.0  0.06993  0.71582  0.77195  1.0000 0.5768475522
C   C79       1.0  0.94387  0.71582  0.64589  1.0000 0.5768475522
C   C80       1.0  0.06993  0.29798  0.35411  1.0000 0.5768475522
C   C81       1.0  0.31915  0.18564  0.26359  1.0000 0.5768475522
C   C82       1.0  0.92205  0.05556  0.73641  1.0000 0.5768475522
C   C83       1.0  0.92205  0.18564  0.86649  1.0000 0.5768475522
C   C84       1.0  0.31915  0.05556  0.13351  1.0000 0.5768475522
C   C85       1.0  0.33140  0.26401  0.27881  1.0000 -0.022554838
C   C86       1.0  0.98520  0.05259  0.72119  1.0000 -0.022554838
C   C87       1.0  0.98520  0.26401  0.93261  1.0000 -0.022554838
C   C88       1.0  0.33140  0.05259  0.06739  1.0000 -0.022554838
C   C89       1.0  0.41426  0.34803  0.30849  1.0000 -0.0874873867
C   C90       1.0  0.03954  0.10577  0.69151  1.0000 -0.0874873867
C   C91       1.0  0.03954  0.34803  0.93377  1.0000 -0.0874873867
C   C92       1.0  0.41426  0.10577  0.06623  1.0000 -0.0874873867
C   C93       1.0  0.42553  0.41963  0.32336  1.0000 -0.1487153058
C   C94       1.0  0.09627  0.10217  0.67664  1.0000 -0.1487153058
C   C95       1.0  0.09627  0.41963  0.99410  1.0000 -0.1487153058
C   C96       1.0  0.42553  0.10217  0.00590  1.0000 -0.1487153058
C   C97       1.0  0.35398  0.40821  0.30719  1.0000 0.0728739508
C   C98       1.0  0.10102  0.04679  0.69281  1.0000 0.0728739508
C   C99       1.0  0.10102  0.40821  0.05423  1.0000 0.0728739508
C   C100      1.0  0.35398  0.04679  0.94577  1.0000 0.0728739508
C   C101      1.0  0.26910  0.32205  0.27655  1.0000 -0.1577010021
C   C102      1.0  0.04550  0.99255  0.72345  1.0000 -0.1577010021
C   C103      1.0  0.04550  0.32205  0.05295  1.0000 -0.1577010021
C   C104      1.0  0.26910  0.99255  0.94705  1.0000 -0.1577010021
C   C105      1.0  0.26009  0.25185  0.26254  1.0000 -0.0874873867
C   C106      1.0  0.98931  0.99755  0.73746  1.0000 -0.0874873867
C   C107      1.0  0.98931  0.25185  0.99176  1.0000 -0.0874873867
C   C108      1.0  0.26009  0.99755  0.00824  1.0000 -0.0874873867
C   C109      1.0  0.36448  0.48543  0.32211  1.0000 0.0852178655
C   C110      1.0  0.16332  0.04237  0.67789  1.0000 0.0821258931
C   C111      1.0  0.16332  0.48543  0.12095  1.0000 0.0852178655
C   C112      1.0  0.36448  0.04237  0.87905  1.0000 0.0821258931
C   C113      1.0  0.31360  0.48519  0.27459  1.0000 -0.2006380145
C   C114      1.0  0.21060  0.03901  0.72541  1.0000 -0.2006380145
C   C115      1.0  0.21060  0.48519  0.17159  1.0000 -0.2006380145
C   C116      1.0  0.31360  0.03901  0.82841  1.0000 -0.2006380145
C   C117      1.0  0.32435  0.55672  0.28387  1.0000 0.0821258931
C   C118      1.0  0.27285  0.04048  0.71613  1.0000 0.0821258931
C   C119      1.0  0.27285  0.55672  0.23237  1.0000 0.0821258931
C   C120      1.0  0.32435  0.04048  0.76763  1.0000 0.0821258931
C   C121      1.0  0.39098  0.63002  0.34560  1.0000 -0.2006380145
C   C122      1.0  0.28442  0.04538  0.65440  1.0000 -0.2006380145
C   C123      1.0  0.28442  0.63002  0.23904  1.0000 -0.2006380145
C   C124      1.0  0.39098  0.04538  0.76096  1.0000 -0.2006380145
C   C125      1.0  0.44207  0.63180  0.39267  1.0000 0.0852178655
C   C126      1.0  0.23913  0.04940  0.60733  1.0000 0.0852178655
C   C127      1.0  0.23913  0.63180  0.18973  1.0000 0.0852178655
C   C128      1.0  0.44207  0.04940  0.81027  1.0000 0.0852178655
C   C129      1.0  0.43206  0.56095  0.38101  1.0000 -0.209023656
C   C130      1.0  0.17994  0.05105  0.61899  1.0000 -0.209023656
C   C131      1.0  0.17994  0.56095  0.12889  1.0000 -0.209023656
C   C132      1.0  0.43206  0.05105  0.87111  1.0000 -0.209023656
C   C133      1.0  0.51162  0.70962  0.45724  1.0000 0.0728739508
C   C134      1.0  0.25238  0.05438  0.54276  1.0000 0.0728739508
C   C135      1.0  0.25238  0.70962  0.19800  1.0000 0.0728739508
C   C136      1.0  0.51162  0.05438  0.80200  1.0000 0.0728739508
C   C137      1.0  0.52973  0.69880  0.51493  1.0000 -0.1577010021
C   C138      1.0  0.18387  0.01480  0.48507  1.0000 -0.1577010021
C   C139      1.0  0.18387  0.69880  0.16907  1.0000 -0.1577010021
C   C140      1.0  0.52973  0.01480  0.83093  1.0000 -0.1577010021
C   C141      1.0  0.58791  0.77020  0.57551  1.0000 -0.0973410389
C   C142      1.0  0.19469  0.01240  0.42449  1.0000 -0.0973410389
C   C143      1.0  0.19469  0.77020  0.18229  1.0000 -0.0973410389
C   C144      1.0  0.58791  0.01240  0.81771  1.0000 -0.0973410389
C   C145      1.0  0.63408  0.85261  0.57929  1.0000 -0.0060128809
C   C146      1.0  0.27332  0.05479  0.42071  1.0000 -0.0060128809
C   C147      1.0  0.27332  0.85261  0.21853  1.0000 -0.0060128809
C   C148      1.0  0.63408  0.05479  0.78147  1.0000 -0.0060128809
C   C149      1.0  0.61798  0.86382  0.52100  1.0000 -0.0973410389
C   C150      1.0  0.34282  0.09698  0.47900  1.0000 -0.0973410389
C   C151      1.0  0.34282  0.86382  0.24584  1.0000 -0.0973410389
C   C152      1.0  0.61798  0.09698  0.75416  1.0000 -0.0973410389
C   C153      1.0  0.55748  0.79280  0.46108  1.0000 -0.1487153058
C   C154      1.0  0.33172  0.09640  0.53892  1.0000 -0.1487153058
C   C155      1.0  0.33172  0.79280  0.23532  1.0000 -0.1487153058
C   C156      1.0  0.55748  0.09640  0.76468  1.0000 -0.1487153058
C   C157      1.0  0.70202  0.93007  0.64589  1.0000 0.5768475522
C   C158      1.0  0.28418  0.05613  0.35411  1.0000 0.5768475522
C   C159      1.0  0.28418  0.93007  0.22805  1.0000 0.5741392321
C   C160      1.0  0.70202  0.05613  0.77195  1.0000 0.5741392321
O   O1        1.0  0.98820  0.75649  0.86811  1.0000 -0.5028233544
O   O2        1.0  0.88838  0.12009  0.13189  1.0000 -0.5028233544
O   O3        1.0  0.98820  0.12009  0.23171  1.0000 -0.5028233544
O   O4        1.0  0.88838  0.75649  0.76829  1.0000 -0.5028233544
O   O5        1.0  0.89452  0.60973  0.81403  1.0000 -0.5355984175
O   O6        1.0  0.79570  0.08049  0.18597  1.0000 -0.5355984175
O   O7        1.0  0.89452  0.08049  0.28479  1.0000 -0.5355984175
O   O8        1.0  0.79570  0.60973  0.71521  1.0000 -0.5355984175
O   O9        1.0  0.98767  0.29081  0.20450  1.0000 -0.5115321629
O   O10       1.0  0.08631  0.78317  0.79550  1.0000 -0.5115321629
O   O11       1.0  0.98767  0.78317  0.69686  1.0000 -0.5115321629
O   O12       1.0  0.08631  0.29081  0.30314  1.0000 -0.5115321629
O   O13       1.0  0.89788  0.25410  0.25960  1.0000 -0.5168151611
O   O14       1.0  0.99450  0.63828  0.74040  1.0000 -0.5168151611
O   O15       1.0  0.89788  0.63828  0.64378  1.0000 -0.5168151611
O   O16       1.0  0.99450  0.25410  0.35622  1.0000 -0.5168151611
O   O17       1.0  0.24351  0.11162  0.23171  1.0000 -0.5028233544
O   O18       1.0  0.87991  0.01180  0.76829  1.0000 -0.5028233544
O   O19       1.0  0.87991  0.11162  0.86811  1.0000 -0.5028233544
O   O20       1.0  0.24351  0.01180  0.13189  1.0000 -0.5028233544
O   O21       1.0  0.39027  0.20430  0.28479  1.0000 -0.5355984175
O   O22       1.0  0.91951  0.10548  0.71521  1.0000 -0.5355984175
O   O23       1.0  0.91951  0.20430  0.81403  1.0000 -0.5355984175
O   O24       1.0  0.39027  0.10548  0.18597  1.0000 -0.5355984175
O   O25       1.0  0.70919  0.91369  0.69686  1.0000 -0.5115321629
O   O26       1.0  0.21683  0.01233  0.30314  1.0000 -0.5115321629
O   O27       1.0  0.21683  0.91369  0.20450  1.0000 -0.5115321629
O   O28       1.0  0.70919  0.01233  0.79550  1.0000 -0.5115321629
O   O29       1.0  0.74590  0.00550  0.64378  1.0000 -0.5168151611
O   O30       1.0  0.36172  0.10212  0.35622  1.0000 -0.5168151611
O   O31       1.0  0.36172  0.00550  0.25960  1.0000 -0.5168151611
O   O32       1.0  0.74590  0.10212  0.74040  1.0000 -0.5168151611
