# DDEC6 charges by PACMAN v1.1 (https://github.com/mtap-research/PACMAN-charge/)
data_2013[Mn][bcu]3[ASR]2
_chemical_formula_sum              "Mn14 H96 C168 S12 O80"
_cell_length_a       18.0352
_cell_length_b       25.8676
_cell_length_c       18.3566
_cell_angle_alpha    90
_cell_angle_beta     120.507
_cell_angle_gamma    90

_symmetry_space_group_name_H-M    "P 1"
_symmetry_Int_Tables_number       1

loop_
  _symmetry_equiv_pos_as_xyz
  'x, y, z'

loop_
  _atom_site_type_symbol
  _atom_site_label
  _atom_site_symmetry_multiplicity
  _atom_site_fract_x
  _atom_site_fract_y
  _atom_site_fract_z
  _atom_site_occupancy
  _atom_site_charge
Mn  Mn1       1.0  0.00000  0.00000  0.00000  1.0000 1.203118899
Mn  Mn2       1.0  0.00000  0.50000  0.50000  1.0000 1.203118899
Mn  Mn3       1.0  0.12532  0.08314  0.19842  1.0000 1.0771661068
Mn  Mn4       1.0  0.87468  0.58314  0.30158  1.0000 1.0771661068
Mn  Mn5       1.0  0.87468  0.91686  0.80158  1.0000 1.0771661068
Mn  Mn6       1.0  0.12532  0.41686  0.69842  1.0000 1.0741554682
Mn  Mn7       1.0  0.78655  0.00004  0.89318  1.0000 1.1174011315
Mn  Mn8       1.0  0.21345  0.50004  0.60682  1.0000 1.1174011315
Mn  Mn9       1.0  0.21345  0.99996  0.10682  1.0000 1.1174011315
Mn  Mn10      1.0  0.78655  0.49996  0.39318  1.0000 1.1174011315
Mn  Mn11      1.0  0.87466  0.08320  0.07292  1.0000 1.0771661068
Mn  Mn12      1.0  0.12534  0.58320  0.42708  1.0000 1.0741554682
Mn  Mn13      1.0  0.12534  0.91680  0.92708  1.0000 1.0741554682
Mn  Mn14      1.0  0.87466  0.41680  0.57292  1.0000 1.0771661068
H   H1        1.0  0.00020  0.03850  0.29490  1.0000 0.1298073286
H   H2        1.0  0.99980  0.53850  0.20510  1.0000 0.1298073286
H   H3        1.0  0.99980  0.96150  0.70510  1.0000 0.1298073286
H   H4        1.0  0.00020  0.46150  0.79490  1.0000 0.1298073286
H   H5        1.0  0.99990  0.00380  0.41030  1.0000 0.136933403
H   H6        1.0  0.00010  0.50380  0.08970  1.0000 0.136933403
H   H7        1.0  0.00010  0.99620  0.58970  1.0000 0.136933403
H   H8        1.0  0.99990  0.49620  0.91030  1.0000 0.136933403
H   H9        1.0  0.00090  0.86190  0.31960  1.0000 0.1197269992
H   H10       1.0  0.99910  0.36190  0.18040  1.0000 0.1197269992
H   H11       1.0  0.99910  0.13810  0.68040  1.0000 0.1197269992
H   H12       1.0  0.00090  0.63810  0.81960  1.0000 0.1197269992
H   H13       1.0  0.00030  0.89860  0.20700  1.0000 0.1298073286
H   H14       1.0  0.99970  0.39860  0.29300  1.0000 0.1298073286
H   H15       1.0  0.99970  0.10140  0.79300  1.0000 0.1298073286
H   H16       1.0  0.00030  0.60140  0.70700  1.0000 0.1298073286
H   H17       1.0  0.87140  0.82820  0.38710  1.0000 0.1298073286
H   H18       1.0  0.12860  0.32820  0.11290  1.0000 0.1298073286
H   H19       1.0  0.12860  0.17180  0.61290  1.0000 0.1298073286
H   H20       1.0  0.87140  0.67180  0.88710  1.0000 0.1298073286
H   H21       1.0  0.87130  0.74080  0.36870  1.0000 0.136933403
H   H22       1.0  0.12870  0.24080  0.13130  1.0000 0.136933403
H   H23       1.0  0.12870  0.25920  0.63130  1.0000 0.136933403
H   H24       1.0  0.87130  0.75920  0.86870  1.0000 0.136933403
H   H25       1.0  0.12880  0.74050  0.49610  1.0000 0.136933403
H   H26       1.0  0.87120  0.24050  0.00390  1.0000 0.136933403
H   H27       1.0  0.87120  0.25950  0.50390  1.0000 0.136933403
H   H28       1.0  0.12880  0.75950  0.99610  1.0000 0.136933403
H   H29       1.0  0.12890  0.82850  0.51670  1.0000 0.1298073286
H   H30       1.0  0.87110  0.32850  0.98330  1.0000 0.1298073286
H   H31       1.0  0.87110  0.17150  0.48330  1.0000 0.1298073286
H   H32       1.0  0.12890  0.67150  0.01670  1.0000 0.1298073286
H   H33       1.0  0.80690  0.97560  0.21400  1.0000 0.1197269992
H   H34       1.0  0.19310  0.47560  0.28600  1.0000 0.1197269992
H   H35       1.0  0.19310  0.02440  0.78600  1.0000 0.1197269992
H   H36       1.0  0.80690  0.52440  0.71400  1.0000 0.1197269992
H   H37       1.0  0.76550  0.91670  0.28210  1.0000 0.1298073286
H   H38       1.0  0.23450  0.41670  0.21790  1.0000 0.1298073286
H   H39       1.0  0.23450  0.08330  0.71790  1.0000 0.1298073286
H   H40       1.0  0.76550  0.58330  0.78210  1.0000 0.1298073286
H   H41       1.0  0.66240  0.82700  0.07870  1.0000 0.1197269992
H   H42       1.0  0.33760  0.32700  0.42130  1.0000 0.1197269992
H   H43       1.0  0.33760  0.17300  0.92130  1.0000 0.1197269992
H   H44       1.0  0.66240  0.67300  0.57870  1.0000 0.1197269992
H   H45       1.0  0.70810  0.88410  0.00710  1.0000 0.1298073286
H   H46       1.0  0.29190  0.38410  0.49290  1.0000 0.1298073286
H   H47       1.0  0.29190  0.11590  0.99290  1.0000 0.1298073286
H   H48       1.0  0.70810  0.61590  0.50710  1.0000 0.1298073286
H   H49       1.0  0.59170  0.89740  0.27670  1.0000 0.1298073286
H   H50       1.0  0.40830  0.39740  0.22330  1.0000 0.1298073286
H   H51       1.0  0.40830  0.10260  0.72330  1.0000 0.1298073286
H   H52       1.0  0.59170  0.60260  0.77670  1.0000 0.1298073286
H   H53       1.0  0.45560  0.93400  0.21700  1.0000 0.1298073286
H   H54       1.0  0.54440  0.43400  0.28300  1.0000 0.1298073286
H   H55       1.0  0.54440  0.06600  0.78300  1.0000 0.1298073286
H   H56       1.0  0.45560  0.56600  0.71700  1.0000 0.1298073286
H   H57       1.0  0.36710  0.82900  0.03330  1.0000 0.136933403
H   H58       1.0  0.63290  0.32900  0.46670  1.0000 0.136933403
H   H59       1.0  0.63290  0.17100  0.96670  1.0000 0.136933403
H   H60       1.0  0.36710  0.67100  0.53330  1.0000 0.136933403
H   H61       1.0  0.50680  0.79630  0.08950  1.0000 0.1197269992
H   H62       1.0  0.49320  0.29630  0.41050  1.0000 0.1197269992
H   H63       1.0  0.49320  0.20370  0.91050  1.0000 0.1197269992
H   H64       1.0  0.50680  0.70370  0.58950  1.0000 0.1197269992
H   H65       1.0  0.54750  0.93280  0.76180  1.0000 0.1298073286
H   H66       1.0  0.45250  0.43280  0.73820  1.0000 0.1298073286
H   H67       1.0  0.45250  0.06720  0.23820  1.0000 0.1298073286
H   H68       1.0  0.54750  0.56720  0.26180  1.0000 0.1298073286
H   H69       1.0  0.40950  0.89710  0.68740  1.0000 0.1298073286
H   H70       1.0  0.59050  0.39710  0.81260  1.0000 0.1298073286
H   H71       1.0  0.59050  0.10290  0.31260  1.0000 0.1298073286
H   H72       1.0  0.40950  0.60290  0.18740  1.0000 0.1298073286
H   H73       1.0  0.49070  0.79740  0.57960  1.0000 0.1197269992
H   H74       1.0  0.50930  0.29740  0.92040  1.0000 0.1197269992
H   H75       1.0  0.50930  0.20260  0.42040  1.0000 0.1197269992
H   H76       1.0  0.49070  0.70260  0.07960  1.0000 0.1197269992
H   H77       1.0  0.63390  0.82810  0.66690  1.0000 0.136933403
H   H78       1.0  0.36610  0.32810  0.83310  1.0000 0.136933403
H   H79       1.0  0.36610  0.17190  0.33310  1.0000 0.136933403
H   H80       1.0  0.63390  0.67190  0.16690  1.0000 0.136933403
H   H81       1.0  0.23450  0.91690  0.51550  1.0000 0.1298073286
H   H82       1.0  0.76550  0.41690  0.98450  1.0000 0.1298073286
H   H83       1.0  0.76550  0.08310  0.48450  1.0000 0.1298073286
H   H84       1.0  0.23450  0.58310  0.01550  1.0000 0.1298073286
H   H85       1.0  0.19280  0.97510  0.40490  1.0000 0.1197269992
H   H86       1.0  0.80720  0.47510  0.09510  1.0000 0.1197269992
H   H87       1.0  0.80720  0.02490  0.59510  1.0000 0.1197269992
H   H88       1.0  0.19280  0.52490  0.90490  1.0000 0.1197269992
H   H89       1.0  0.29410  0.88490  0.29940  1.0000 0.1298073286
H   H90       1.0  0.70590  0.38490  0.20060  1.0000 0.1298073286
H   H91       1.0  0.70590  0.11510  0.70060  1.0000 0.1298073286
H   H92       1.0  0.29410  0.61510  0.79940  1.0000 0.1298073286
H   H93       1.0  0.33890  0.82730  0.41710  1.0000 0.1197269992
H   H94       1.0  0.66110  0.32730  0.08290  1.0000 0.1197269992
H   H95       1.0  0.66110  0.17270  0.58290  1.0000 0.1197269992
H   H96       1.0  0.33890  0.67270  0.91710  1.0000 0.1197269992
C   C1        1.0  0.00020  0.99622  0.16450  1.0000 0.5793383206
C   C2        1.0  0.99980  0.49622  0.33550  1.0000 0.5793383206
C   C3        1.0  0.99980  0.00378  0.83550  1.0000 0.5793383206
C   C4        1.0  0.00020  0.50378  0.66450  1.0000 0.5793383206
C   C5        1.0  0.99980  0.97305  0.23870  1.0000 -0.0311264302
C   C6        1.0  0.00020  0.47305  0.26130  1.0000 -0.0243597617
C   C7        1.0  0.00020  0.02695  0.76130  1.0000 -0.0243597617
C   C8        1.0  0.99980  0.52695  0.73870  1.0000 -0.0311264302
C   C9        1.0  0.00000  0.00270  0.30010  1.0000 -0.0902658877
C   C10       1.0  0.00000  0.50270  0.19990  1.0000 -0.0902658877
C   C11       1.0  1.00000  0.99730  0.69990  1.0000 -0.0902658877
C   C12       1.0  0.00000  0.49730  0.80010  1.0000 -0.0902658877
C   C13       1.0  0.99990  0.98249  0.36950  1.0000 -0.0902658877
C   C14       1.0  0.00010  0.48249  0.13050  1.0000 -0.0902658877
C   C15       1.0  0.00010  0.01751  0.63050  1.0000 -0.0902658877
C   C16       1.0  0.99990  0.51751  0.86950  1.0000 -0.0902658877
C   C17       1.0  0.99990  0.92861  0.37610  1.0000 -0.0811861225
C   C18       1.0  0.00010  0.42861  0.12390  1.0000 -0.0811861225
C   C19       1.0  0.00010  0.07139  0.62390  1.0000 -0.0811861225
C   C20       1.0  0.99990  0.57139  0.87610  1.0000 -0.0811861225
C   C21       1.0  0.00040  0.89773  0.31480  1.0000 -0.1097974488
C   C22       1.0  0.99960  0.39773  0.18520  1.0000 -0.1097974488
C   C23       1.0  0.99960  0.10227  0.68520  1.0000 -0.1097974488
C   C24       1.0  0.00040  0.60227  0.81480  1.0000 -0.1097974488
C   C25       1.0  0.00020  0.91975  0.24790  1.0000 -0.0902658877
C   C26       1.0  0.99980  0.41975  0.25210  1.0000 -0.0902658877
C   C27       1.0  0.99980  0.08025  0.75210  1.0000 -0.0902658877
C   C28       1.0  0.00020  0.58025  0.74790  1.0000 -0.0902658877
C   C29       1.0  0.00000  0.83693  0.45480  1.0000 -0.0902658877
C   C30       1.0  0.00000  0.33693  0.04520  1.0000 -0.0902658877
C   C31       1.0  0.00000  0.16307  0.54520  1.0000 -0.0902658877
C   C32       1.0  0.00000  0.66307  0.95480  1.0000 -0.0902658877
C   C33       1.0  0.92330  0.81048  0.40960  1.0000 -0.0995149228
C   C34       1.0  0.07670  0.31048  0.09040  1.0000 -0.0995149228
C   C35       1.0  0.07670  0.18952  0.59040  1.0000 -0.0995149228
C   C36       1.0  0.92330  0.68952  0.90960  1.0000 -0.0995149228
C   C37       1.0  0.92330  0.75839  0.39760  1.0000 -0.0717742373
C   C38       1.0  0.07670  0.25839  0.10240  1.0000 -0.0717742373
C   C39       1.0  0.07670  0.24161  0.60240  1.0000 -0.0717742373
C   C40       1.0  0.92330  0.74161  0.89760  1.0000 -0.0717742373
C   C41       1.0  0.99990  0.73137  0.42800  1.0000 -0.0311264302
C   C42       1.0  0.00010  0.23137  0.07200  1.0000 -0.0311264302
C   C43       1.0  0.00010  0.26863  0.57200  1.0000 -0.0311264302
C   C44       1.0  0.99990  0.76863  0.92800  1.0000 -0.0311264302
C   C45       1.0  0.07680  0.75818  0.47380  1.0000 -0.0811861225
C   C46       1.0  0.92320  0.25818  0.02620  1.0000 -0.0811861225
C   C47       1.0  0.92320  0.24182  0.52620  1.0000 -0.0811861225
C   C48       1.0  0.07680  0.74182  0.97380  1.0000 -0.0811861225
C   C49       1.0  0.07700  0.81079  0.48670  1.0000 -0.0995149228
C   C50       1.0  0.92300  0.31079  0.01330  1.0000 -0.0995149228
C   C51       1.0  0.92300  0.18921  0.51330  1.0000 -0.0995149228
C   C52       1.0  0.07700  0.68921  0.98670  1.0000 -0.0995149228
C   C53       1.0  0.00030  0.67495  0.41250  1.0000 0.5793383206
C   C54       1.0  0.99970  0.17495  0.08750  1.0000 0.5793383206
C   C55       1.0  0.99970  0.32505  0.58750  1.0000 0.5793383206
C   C56       1.0  0.00030  0.82505  0.91250  1.0000 0.5793383206
C   C57       1.0  0.79280  0.97360  0.06110  1.0000 0.5651766743
C   C58       1.0  0.20720  0.47360  0.43890  1.0000 0.5651766743
C   C59       1.0  0.20720  0.02640  0.93890  1.0000 0.5651766743
C   C60       1.0  0.79280  0.52640  0.56110  1.0000 0.5651766743
C   C61       1.0  0.76190  0.93700  0.10430  1.0000 -0.0097167091
C   C62       1.0  0.23810  0.43700  0.39570  1.0000 -0.0097167091
C   C63       1.0  0.23810  0.06300  0.89570  1.0000 -0.0097167091
C   C64       1.0  0.76190  0.56300  0.60430  1.0000 -0.0097167091
C   C65       1.0  0.77830  0.94560  0.18590  1.0000 -0.0902658877
C   C66       1.0  0.22170  0.44560  0.31410  1.0000 -0.0902658877
C   C67       1.0  0.22170  0.05440  0.81410  1.0000 -0.0902658877
C   C68       1.0  0.77830  0.55440  0.68590  1.0000 -0.0902658877
C   C69       1.0  0.75270  0.91030  0.22700  1.0000 -0.0995149228
C   C70       1.0  0.24730  0.41030  0.27300  1.0000 -0.0995149228
C   C71       1.0  0.24730  0.08970  0.77300  1.0000 -0.0995149228
C   C72       1.0  0.75270  0.58970  0.72700  1.0000 -0.0995149228
C   C73       1.0  0.70910  0.86700  0.18610  1.0000 -0.0902658877
C   C74       1.0  0.29090  0.36700  0.31390  1.0000 -0.0902658877
C   C75       1.0  0.29090  0.13300  0.81390  1.0000 -0.0902658877
C   C76       1.0  0.70910  0.63300  0.68610  1.0000 -0.0902658877
C   C77       1.0  0.69210  0.85700  0.10560  1.0000 -0.0995149228
C   C78       1.0  0.30790  0.35700  0.39440  1.0000 -0.0995149228
C   C79       1.0  0.30790  0.14300  0.89440  1.0000 -0.0995149228
C   C80       1.0  0.69210  0.64300  0.60560  1.0000 -0.0995149228
C   C81       1.0  0.71880  0.89150  0.06120  1.0000 -0.0995149228
C   C82       1.0  0.28120  0.39150  0.43880  1.0000 -0.0995149228
C   C83       1.0  0.28120  0.10850  0.93880  1.0000 -0.0995149228
C   C84       1.0  0.71880  0.60850  0.56120  1.0000 -0.0995149228
C   C85       1.0  0.56210  0.84570  0.18630  1.0000 -0.0717742373
C   C86       1.0  0.43790  0.34570  0.31370  1.0000 -0.0717742373
C   C87       1.0  0.43790  0.15430  0.81370  1.0000 -0.0717742373
C   C88       1.0  0.56210  0.65430  0.68630  1.0000 -0.0717742373
C   C89       1.0  0.54690  0.88460  0.22590  1.0000 -0.1097974488
C   C90       1.0  0.45310  0.38460  0.27410  1.0000 -0.1097974488
C   C91       1.0  0.45310  0.11540  0.77410  1.0000 -0.1097974488
C   C92       1.0  0.54690  0.61540  0.72590  1.0000 -0.1097974488
C   C93       1.0  0.46530  0.90570  0.19170  1.0000 -0.0811861225
C   C94       1.0  0.53470  0.40570  0.30830  1.0000 -0.0811861225
C   C95       1.0  0.53470  0.09430  0.80830  1.0000 -0.0811861225
C   C96       1.0  0.46530  0.59430  0.69170  1.0000 -0.0811861225
C   C97       1.0  0.39810  0.88370  0.11870  1.0000 -0.0097167091
C   C98       1.0  0.60190  0.38370  0.38130  1.0000 -0.0097167091
C   C99       1.0  0.60190  0.11630  0.88130  1.0000 -0.0097167091
C   C100      1.0  0.39810  0.61630  0.61870  1.0000 -0.0097167091
C   C101      1.0  0.41250  0.84380  0.08160  1.0000 -0.0717742373
C   C102      1.0  0.58750  0.34380  0.41840  1.0000 -0.0717742373
C   C103      1.0  0.58750  0.15620  0.91840  1.0000 -0.0717742373
C   C104      1.0  0.41250  0.65620  0.58160  1.0000 -0.0717742373
C   C105      1.0  0.49640  0.82400  0.11540  1.0000 -0.0902658877
C   C106      1.0  0.50360  0.32400  0.38460  1.0000 -0.0902658877
C   C107      1.0  0.50360  0.17600  0.88460  1.0000 -0.0902658877
C   C108      1.0  0.49640  0.67600  0.61540  1.0000 -0.0902658877
C   C109      1.0  0.30940  0.90790  0.07980  1.0000 0.5793383206
C   C110      1.0  0.69060  0.40790  0.42020  1.0000 0.5793383206
C   C111      1.0  0.69060  0.09210  0.92020  1.0000 0.5793383206
C   C112      1.0  0.30940  0.59210  0.57980  1.0000 0.5793383206
C   C113      1.0  0.69080  0.90780  0.77120  1.0000 0.5863898481
C   C114      1.0  0.30920  0.40780  0.72880  1.0000 0.5863898481
C   C115      1.0  0.30920  0.09220  0.22880  1.0000 0.5863898481
C   C116      1.0  0.69080  0.59220  0.27120  1.0000 0.5863898481
C   C117      1.0  0.60220  0.88350  0.72030  1.0000 -0.0097167091
C   C118      1.0  0.39780  0.38350  0.77970  1.0000 -0.0097167091
C   C119      1.0  0.39780  0.11650  0.27970  1.0000 -0.0097167091
C   C120      1.0  0.60220  0.61650  0.22030  1.0000 -0.0097167091
C   C121      1.0  0.53690  0.90450  0.72650  1.0000 -0.0811861225
C   C122      1.0  0.46310  0.40450  0.77350  1.0000 -0.0811861225
C   C123      1.0  0.46310  0.09550  0.27350  1.0000 -0.0811861225
C   C124      1.0  0.53690  0.59550  0.22650  1.0000 -0.0811861225
C   C125      1.0  0.45340  0.88410  0.68010  1.0000 -0.0995149228
C   C126      1.0  0.54660  0.38410  0.81990  1.0000 -0.0995149228
C   C127      1.0  0.54660  0.11590  0.31990  1.0000 -0.0995149228
C   C128      1.0  0.45340  0.61590  0.18010  1.0000 -0.0995149228
C   C129      1.0  0.43800  0.84570  0.62530  1.0000 -0.0717742373
C   C130      1.0  0.56200  0.34570  0.87470  1.0000 -0.0717742373
C   C131      1.0  0.56200  0.15430  0.37470  1.0000 -0.0717742373
C   C132      1.0  0.43800  0.65430  0.12530  1.0000 -0.0717742373
C   C133      1.0  0.50220  0.82420  0.61770  1.0000 -0.0902658877
C   C134      1.0  0.49780  0.32420  0.88230  1.0000 -0.0902658877
C   C135      1.0  0.49780  0.17580  0.38230  1.0000 -0.0902658877
C   C136      1.0  0.50220  0.67580  0.11770  1.0000 -0.0902658877
C   C137      1.0  0.58850  0.84340  0.66920  1.0000 -0.0717742373
C   C138      1.0  0.41150  0.34340  0.83080  1.0000 -0.0717742373
C   C139      1.0  0.41150  0.15660  0.33080  1.0000 -0.0717742373
C   C140      1.0  0.58850  0.65660  0.16920  1.0000 -0.0717742373
C   C141      1.0  0.29110  0.86730  0.47700  1.0000 -0.0995149228
C   C142      1.0  0.70890  0.36730  0.02300  1.0000 -0.0995149228
C   C143      1.0  0.70890  0.13270  0.52300  1.0000 -0.0995149228
C   C144      1.0  0.29110  0.63270  0.97700  1.0000 -0.0995149228
C   C145      1.0  0.24760  0.91030  0.47350  1.0000 -0.0995149228
C   C146      1.0  0.75240  0.41030  0.02650  1.0000 -0.0995149228
C   C147      1.0  0.75240  0.08970  0.52650  1.0000 -0.0995149228
C   C148      1.0  0.24760  0.58970  0.97350  1.0000 -0.0995149228
C   C149      1.0  0.22190  0.94510  0.40590  1.0000 -0.0811861225
C   C150      1.0  0.77810  0.44510  0.09410  1.0000 -0.0811861225
C   C151      1.0  0.77810  0.05490  0.59410  1.0000 -0.0811861225
C   C152      1.0  0.22190  0.55490  0.90590  1.0000 -0.0811861225
C   C153      1.0  0.23780  0.93670  0.34130  1.0000 -0.0097167091
C   C154      1.0  0.76220  0.43670  0.15870  1.0000 -0.0097167091
C   C155      1.0  0.76220  0.06330  0.65870  1.0000 -0.0097167091
C   C156      1.0  0.23780  0.56330  0.84130  1.0000 -0.0097167091
C   C157      1.0  0.28230  0.89200  0.34220  1.0000 -0.0902658877
C   C158      1.0  0.71770  0.39200  0.15780  1.0000 -0.0902658877
C   C159      1.0  0.71770  0.10800  0.65780  1.0000 -0.0902658877
C   C160      1.0  0.28230  0.60800  0.84220  1.0000 -0.0902658877
C   C161      1.0  0.30900  0.85730  0.41400  1.0000 -0.0995149228
C   C162      1.0  0.69100  0.35730  0.08600  1.0000 -0.0995149228
C   C163      1.0  0.69100  0.14270  0.58600  1.0000 -0.0995149228
C   C164      1.0  0.30900  0.64270  0.91400  1.0000 -0.0995149228
C   C165      1.0  0.20800  0.97430  0.26790  1.0000 0.5634408678
C   C166      1.0  0.79200  0.47430  0.23210  1.0000 0.5634408678
C   C167      1.0  0.79200  0.02570  0.73210  1.0000 0.5634408678
C   C168      1.0  0.20800  0.52570  0.76790  1.0000 0.5634408678
S   S1        1.0  0.00014  0.90386  0.46593  1.0000 0.950481165
S   S2        1.0  0.99986  0.40386  0.03407  1.0000 0.950481165
S   S3        1.0  0.99986  0.09614  0.53407  1.0000 0.950481165
S   S4        1.0  0.00014  0.59614  0.96593  1.0000 0.950481165
S   S5        1.0  0.66791  0.82377  0.22820  1.0000 0.950481165
S   S6        1.0  0.33209  0.32377  0.27180  1.0000 0.950481165
S   S7        1.0  0.33209  0.17623  0.77180  1.0000 0.9588417496
S   S8        1.0  0.66791  0.67623  0.72820  1.0000 0.9588417496
S   S9        1.0  0.33239  0.82386  0.55999  1.0000 0.9588417496
S   S10       1.0  0.66761  0.32386  0.94001  1.0000 0.9588417496
S   S11       1.0  0.66761  0.17614  0.44001  1.0000 0.9588417496
S   S12       1.0  0.33239  0.67614  0.05999  1.0000 0.9588417496
O   O1        1.0  0.89452  0.04786  0.97873  1.0000 -0.7093756909
O   O2        1.0  0.10548  0.54786  0.52127  1.0000 -0.7093756909
O   O3        1.0  0.10548  0.95214  0.02127  1.0000 -0.7172640775
O   O4        1.0  0.89452  0.45214  0.47873  1.0000 -0.7172640775
O   O5        1.0  0.10565  0.04811  0.08492  1.0000 -0.7093756909
O   O6        1.0  0.89435  0.54811  0.41508  1.0000 -0.7093756909
O   O7        1.0  0.89435  0.95189  0.91508  1.0000 -0.7093756909
O   O8        1.0  0.10565  0.45189  0.58492  1.0000 -0.7093756909
O   O9        1.0  0.00040  0.96758  0.10990  1.0000 -0.4453186308
O   O10       1.0  0.99960  0.46758  0.39010  1.0000 -0.4434839899
O   O11       1.0  0.99960  0.03242  0.89010  1.0000 -0.4434839899
O   O12       1.0  0.00040  0.53242  0.60990  1.0000 -0.4434839899
O   O13       1.0  0.07010  0.65311  0.44080  1.0000 -0.5007217611
O   O14       1.0  0.92990  0.15311  0.05920  1.0000 -0.5007217611
O   O15       1.0  0.92990  0.34689  0.55920  1.0000 -0.5007217611
O   O16       1.0  0.07010  0.84689  0.94080  1.0000 -0.5007217611
O   O17       1.0  0.24900  0.88629  0.01870  1.0000 -0.5007217611
O   O18       1.0  0.75100  0.38629  0.48130  1.0000 -0.5007217611
O   O19       1.0  0.75100  0.11371  0.98130  1.0000 -0.5007217611
O   O20       1.0  0.24900  0.61371  0.51870  1.0000 -0.5007217611
O   O21       1.0  0.81580  0.01703  0.09540  1.0000 -0.54251065
O   O22       1.0  0.18420  0.51703  0.40460  1.0000 -0.54251065
O   O23       1.0  0.18420  0.98297  0.90460  1.0000 -0.54251065
O   O24       1.0  0.81580  0.48297  0.59540  1.0000 -0.54251065
O   O25       1.0  0.00020  0.04624  0.16290  1.0000 -0.5875639384
O   O26       1.0  0.99980  0.54624  0.33710  1.0000 -0.5875639384
O   O27       1.0  0.99980  0.95376  0.83710  1.0000 -0.5875639384
O   O28       1.0  0.00020  0.45376  0.66290  1.0000 -0.5875639384
O   O29       1.0  0.93010  0.65322  0.37100  1.0000 -0.5007217611
O   O30       1.0  0.06990  0.15322  0.12900  1.0000 -0.5007217611
O   O31       1.0  0.06990  0.34678  0.62900  1.0000 -0.5007217611
O   O32       1.0  0.93010  0.84678  0.87100  1.0000 -0.5007217611
O   O33       1.0  0.75080  0.88561  0.76890  1.0000 -0.5007217611
O   O34       1.0  0.24920  0.38561  0.73110  1.0000 -0.5123430852
O   O35       1.0  0.24920  0.11439  0.23110  1.0000 -0.5007217611
O   O36       1.0  0.75080  0.61439  0.26890  1.0000 -0.5007217611
O   O37       1.0  0.18390  0.01695  0.27890  1.0000 -0.533063582
O   O38       1.0  0.81610  0.51695  0.22110  1.0000 -0.533063582
O   O39       1.0  0.81610  0.98305  0.72110  1.0000 -0.533063582
O   O40       1.0  0.18390  0.48305  0.77890  1.0000 -0.533063582
O   O41       1.0  0.30430  0.94820  0.11230  1.0000 -0.5123430852
O   O42       1.0  0.69570  0.44820  0.38770  1.0000 -0.51644387
O   O43       1.0  0.69570  0.05180  0.88770  1.0000 -0.5123430852
O   O44       1.0  0.30430  0.55180  0.61230  1.0000 -0.5123430852
O   O45       1.0  0.69540  0.94830  0.80820  1.0000 -0.51644387
O   O46       1.0  0.30460  0.44830  0.69180  1.0000 -0.51644387
O   O47       1.0  0.30460  0.05170  0.19180  1.0000 -0.51644387
O   O48       1.0  0.69540  0.55170  0.30820  1.0000 -0.51644387
O   O49       1.0  0.78890  0.95812  0.99580  1.0000 -0.4822353859
O   O50       1.0  0.21110  0.45812  0.50420  1.0000 -0.4822353859
O   O51       1.0  0.21110  0.04188  0.00420  1.0000 -0.4822353859
O   O52       1.0  0.78890  0.54188  0.49580  1.0000 -0.4822353859
O   O53       1.0  0.21100  0.95819  0.20750  1.0000 -0.4706485932
O   O54       1.0  0.78900  0.45819  0.29250  1.0000 -0.4706485932
O   O55       1.0  0.78900  0.04181  0.79250  1.0000 -0.4706485932
O   O56       1.0  0.21100  0.54181  0.70750  1.0000 -0.4706485932
O   O57       1.0  0.07980  0.91909  0.53940  1.0000 -0.5007217611
O   O58       1.0  0.92020  0.41909  0.96060  1.0000 -0.5007217611
O   O59       1.0  0.92020  0.08091  0.46060  1.0000 -0.5007217611
O   O60       1.0  0.07980  0.58091  0.03940  1.0000 -0.5007217611
O   O61       1.0  0.92100  0.91918  0.46000  1.0000 -0.5007217611
O   O62       1.0  0.07900  0.41918  0.04000  1.0000 -0.5007217611
O   O63       1.0  0.07900  0.08082  0.54000  1.0000 -0.5007217611
O   O64       1.0  0.92100  0.58082  0.96000  1.0000 -0.5007217611
O   O65       1.0  0.71490  0.83130  0.31880  1.0000 -0.5007217611
O   O66       1.0  0.28510  0.33130  0.18120  1.0000 -0.5007217611
O   O67       1.0  0.28510  0.16870  0.68120  1.0000 -0.4893640314
O   O68       1.0  0.71490  0.66870  0.81880  1.0000 -0.5007217611
O   O69       1.0  0.66520  0.77321  0.19500  1.0000 -0.4893640314
O   O70       1.0  0.33480  0.27321  0.30500  1.0000 -0.4893640314
O   O71       1.0  0.33480  0.22679  0.80500  1.0000 -0.4893640314
O   O72       1.0  0.66520  0.72679  0.69500  1.0000 -0.4893640314
O   O73       1.0  0.28650  0.82970  0.60230  1.0000 -0.4706485932
O   O74       1.0  0.71350  0.32970  0.89770  1.0000 -0.4706485932
O   O75       1.0  0.71350  0.17030  0.39770  1.0000 -0.4706485932
O   O76       1.0  0.28650  0.67030  0.10230  1.0000 -0.4706485932
O   O77       1.0  0.33530  0.77263  0.53020  1.0000 -0.5007217611
O   O78       1.0  0.66470  0.27263  0.96980  1.0000 -0.5007217611
O   O79       1.0  0.66470  0.22737  0.46980  1.0000 -0.5007217611
O   O80       1.0  0.33530  0.72737  0.03020  1.0000 -0.5007217611
