# DDEC6 charges by PACMAN v1.1 (https://github.com/mtap-research/PACMAN-charge/)
data_2013[Ni][flu]3[ASR]1
_chemical_formula_sum              "Ni8 H28 C64 O36"
_cell_length_a       14.726
_cell_length_b       9.221
_cell_length_c       22.4033
_cell_angle_alpha    90
_cell_angle_beta     130.763
_cell_angle_gamma    90

_symmetry_space_group_name_H-M    "P 1"
_symmetry_Int_Tables_number       1

loop_
  _symmetry_equiv_pos_as_xyz
  'x, y, z'

loop_
  _atom_site_type_symbol
  _atom_site_label
  _atom_site_symmetry_multiplicity
  _atom_site_fract_x
  _atom_site_fract_y
  _atom_site_fract_z
  _atom_site_occupancy
  _atom_site_charge
Ni  Ni1       1.0  0.98581  0.83756  0.00486  1.0000 1.0106460458
Ni  Ni2       1.0  0.01419  0.33756  0.49514  1.0000 1.0106460458
Ni  Ni3       1.0  0.01419  0.16244  0.99514  1.0000 1.0106460458
Ni  Ni4       1.0  0.98581  0.66244  0.50486  1.0000 1.0106460458
Ni  Ni5       1.0  0.15614  0.90655  0.96149  1.0000 1.0042356003
Ni  Ni6       1.0  0.84386  0.40655  0.53851  1.0000 1.0106460458
Ni  Ni7       1.0  0.84386  0.09345  0.03851  1.0000 1.0106460458
Ni  Ni8       1.0  0.15614  0.59345  0.46149  1.0000 1.0106460458
H   H1        1.0  0.94730  0.97530  0.89340  1.0000 0.4294353548
H   H2        1.0  0.05270  0.47530  0.60660  1.0000 0.4294353548
H   H3        1.0  0.05270  0.02470  0.10660  1.0000 0.4294353548
H   H4        1.0  0.94730  0.52470  0.39340  1.0000 0.4294353548
H   H5        1.0  0.46230  0.81780  0.16540  1.0000 0.1325758496
H   H6        1.0  0.53770  0.31780  0.33460  1.0000 0.1325758496
H   H7        1.0  0.53770  0.18220  0.83460  1.0000 0.1325758496
H   H8        1.0  0.46230  0.68220  0.66540  1.0000 0.1325758496
H   H9        1.0  0.65080  0.76740  0.28210  1.0000 0.1325758496
H   H10       1.0  0.34920  0.26740  0.21790  1.0000 0.1325758496
H   H11       1.0  0.34920  0.23260  0.71790  1.0000 0.1325758496
H   H12       1.0  0.65080  0.73260  0.78210  1.0000 0.1325758496
H   H13       1.0  0.50570  0.58160  0.36410  1.0000 0.1384926039
H   H14       1.0  0.49430  0.08160  0.13590  1.0000 0.1384926039
H   H15       1.0  0.49430  0.41840  0.63590  1.0000 0.1384926039
H   H16       1.0  0.50570  0.91840  0.86410  1.0000 0.1384926039
H   H17       1.0  0.33470  0.66160  0.34860  1.0000 0.1325758496
H   H18       1.0  0.66530  0.16160  0.15140  1.0000 0.1325758496
H   H19       1.0  0.66530  0.33840  0.65140  1.0000 0.1325758496
H   H20       1.0  0.33470  0.83840  0.84860  1.0000 0.1325758496
H   H21       1.0  0.04470  0.40490  0.23350  1.0000 0.1451275025
H   H22       1.0  0.95530  0.90490  0.26650  1.0000 0.1451275025
H   H23       1.0  0.95530  0.59510  0.76650  1.0000 0.1451275025
H   H24       1.0  0.04470  0.09510  0.73350  1.0000 0.1451275025
H   H25       1.0  0.19250  0.49480  0.13750  1.0000 0.1384926039
H   H26       1.0  0.80750  0.99480  0.36250  1.0000 0.1384926039
H   H27       1.0  0.80750  0.50520  0.86250  1.0000 0.1384926039
H   H28       1.0  0.19250  0.00520  0.63750  1.0000 0.1384926039
C   C1        1.0  0.37990  0.65360  0.25220  1.0000 0.0710282952
C   C2        1.0  0.62010  0.15360  0.24780  1.0000 0.0710282952
C   C3        1.0  0.62010  0.34640  0.74780  1.0000 0.0710282952
C   C4        1.0  0.37990  0.84640  0.75220  1.0000 0.0710282952
C   C5        1.0  0.36700  0.72730  0.19180  1.0000 -0.0409556877
C   C6        1.0  0.63300  0.22730  0.30820  1.0000 -0.0409556877
C   C7        1.0  0.63300  0.27270  0.80820  1.0000 -0.0409556877
C   C8        1.0  0.36700  0.77270  0.69180  1.0000 -0.0409556877
C   C9        1.0  0.47020  0.76890  0.20490  1.0000 -0.0960523643
C   C10       1.0  0.52980  0.26890  0.29510  1.0000 -0.0960523643
C   C11       1.0  0.52980  0.23110  0.79510  1.0000 -0.0960523643
C   C12       1.0  0.47020  0.73110  0.70490  1.0000 -0.0960523643
C   C13       1.0  0.58380  0.73930  0.27520  1.0000 -0.0892815095
C   C14       1.0  0.41620  0.23930  0.22480  1.0000 -0.0892815095
C   C15       1.0  0.41620  0.26070  0.72480  1.0000 -0.0892815095
C   C16       1.0  0.58380  0.76070  0.77520  1.0000 -0.0892815095
C   C17       1.0  0.59780  0.66800  0.33510  1.0000 0.0013154867
C   C18       1.0  0.40220  0.16800  0.16490  1.0000 0.0013154867
C   C19       1.0  0.40220  0.33200  0.66490  1.0000 0.0013154867
C   C20       1.0  0.59780  0.83200  0.83510  1.0000 0.0013154867
C   C21       1.0  0.49630  0.62750  0.32340  1.0000 -0.1477164503
C   C22       1.0  0.50370  0.12750  0.17660  1.0000 -0.1477164503
C   C23       1.0  0.50370  0.37250  0.67660  1.0000 -0.1477164503
C   C24       1.0  0.49630  0.87250  0.82340  1.0000 -0.1477164503
C   C25       1.0  0.27970  0.59050  0.24420  1.0000 0.0710282952
C   C26       1.0  0.72030  0.09050  0.25580  1.0000 0.0710282952
C   C27       1.0  0.72030  0.40950  0.75580  1.0000 0.0710282952
C   C28       1.0  0.27970  0.90950  0.74420  1.0000 0.0710282952
C   C29       1.0  0.27740  0.60420  0.30520  1.0000 -0.1276342105
C   C30       1.0  0.72260  0.10420  0.19480  1.0000 -0.1276342105
C   C31       1.0  0.72260  0.39580  0.69480  1.0000 -0.1276342105
C   C32       1.0  0.27740  0.89580  0.80520  1.0000 -0.1276342105
C   C33       1.0  0.19070  0.53290  0.30250  1.0000 -0.0050164348
C   C34       1.0  0.80930  0.03290  0.19750  1.0000 -0.0037399141
C   C35       1.0  0.80930  0.46710  0.69750  1.0000 -0.0037399141
C   C36       1.0  0.19070  0.96710  0.80250  1.0000 -0.0037399141
C   C37       1.0  0.10420  0.45040  0.23680  1.0000 -0.0892815095
C   C38       1.0  0.89580  0.95040  0.26320  1.0000 -0.0892815095
C   C39       1.0  0.89580  0.54960  0.76320  1.0000 -0.0892815095
C   C40       1.0  0.10420  0.04960  0.73680  1.0000 -0.0892815095
C   C41       1.0  0.10560  0.43490  0.17560  1.0000 0.0067627109
C   C42       1.0  0.89440  0.93490  0.32440  1.0000 0.0067627109
C   C43       1.0  0.89440  0.56510  0.82440  1.0000 0.0013154867
C   C44       1.0  0.10560  0.06510  0.67560  1.0000 0.0067627109
C   C45       1.0  0.19250  0.50490  0.17880  1.0000 -0.1244421255
C   C46       1.0  0.80750  0.00490  0.32120  1.0000 -0.1276342105
C   C47       1.0  0.80750  0.49510  0.82120  1.0000 -0.1244421255
C   C48       1.0  0.19250  0.99510  0.67880  1.0000 -0.1244421255
C   C49       1.0  0.24900  0.77280  0.11380  1.0000 0.6045360911
C   C50       1.0  0.75100  0.27280  0.38620  1.0000 0.6045360911
C   C51       1.0  0.75100  0.22720  0.88620  1.0000 0.6045360911
C   C52       1.0  0.24900  0.72720  0.61380  1.0000 0.6045360911
C   C53       1.0  0.72100  0.62840  0.40990  1.0000 0.6063589502
C   C54       1.0  0.27900  0.12840  0.09010  1.0000 0.6063589502
C   C55       1.0  0.27900  0.37160  0.59010  1.0000 0.6063589502
C   C56       1.0  0.72100  0.87160  0.90990  1.0000 0.6063589502
C   C57       1.0  0.18690  0.55000  0.36660  1.0000 0.5528293897
C   C58       1.0  0.81310  0.05000  0.13340  1.0000 0.5528293897
C   C59       1.0  0.81310  0.45000  0.63340  1.0000 0.5528293897
C   C60       1.0  0.18690  0.95000  0.86660  1.0000 0.5528293897
C   C61       1.0  0.01500  0.33710  0.10630  1.0000 0.6045360911
C   C62       1.0  0.98500  0.83710  0.39370  1.0000 0.6045360911
C   C63       1.0  0.98500  0.66290  0.89370  1.0000 0.6045360911
C   C64       1.0  0.01500  0.16290  0.60630  1.0000 0.6045360911
O   O1        1.0  0.16330  0.80460  0.10950  1.0000 -0.5235754927
O   O2        1.0  0.83670  0.30460  0.39050  1.0000 -0.5235754927
O   O3        1.0  0.83670  0.19540  0.89050  1.0000 -0.5235754927
O   O4        1.0  0.16330  0.69540  0.60950  1.0000 -0.5235754927
O   O5        1.0  0.24890  0.77600  0.05700  1.0000 -0.538559879
O   O6        1.0  0.75110  0.27600  0.44300  1.0000 -0.538559879
O   O7        1.0  0.75110  0.22400  0.94300  1.0000 -0.538559879
O   O8        1.0  0.24890  0.72400  0.55700  1.0000 -0.538559879
O   O9        1.0  0.80470  0.64760  0.40910  1.0000 -0.5485483359
O   O10       1.0  0.19530  0.14760  0.09090  1.0000 -0.5485483359
O   O11       1.0  0.19530  0.35240  0.59090  1.0000 -0.5485483359
O   O12       1.0  0.80470  0.85240  0.90910  1.0000 -0.5485483359
O   O13       1.0  0.73030  0.57750  0.46620  1.0000 -0.538559879
O   O14       1.0  0.26970  0.07750  0.03380  1.0000 -0.538559879
O   O15       1.0  0.26970  0.42250  0.53380  1.0000 -0.538559879
O   O16       1.0  0.73030  0.92250  0.96620  1.0000 -0.538559879
O   O17       1.0  0.26120  0.62950  0.42550  1.0000 -0.4884621601
O   O18       1.0  0.73880  0.12950  0.07450  1.0000 -0.4884621601
O   O19       1.0  0.73880  0.37050  0.57450  1.0000 -0.4884621601
O   O20       1.0  0.26120  0.87050  0.92550  1.0000 -0.4884621601
O   O21       1.0  0.10570  0.48450  0.36110  1.0000 -0.503938223
O   O22       1.0  0.89430  0.98450  0.13890  1.0000 -0.5066022526
O   O23       1.0  0.89430  0.51550  0.63890  1.0000 -0.5066022526
O   O24       1.0  0.10570  0.01550  0.86110  1.0000 -0.503938223
O   O25       1.0  0.94730  0.26410  0.11060  1.0000 -0.5235754927
O   O26       1.0  0.05270  0.76410  0.38940  1.0000 -0.5235754927
O   O27       1.0  0.05270  0.73590  0.88940  1.0000 -0.5262820612
O   O28       1.0  0.94730  0.23590  0.61060  1.0000 -0.5235754927
O   O29       1.0  0.01330  0.33970  0.04970  1.0000 -0.5262820612
O   O30       1.0  0.98670  0.83970  0.45030  1.0000 -0.5262820612
O   O31       1.0  0.98670  0.66030  0.95030  1.0000 -0.5262820612
O   O32       1.0  0.01330  0.16030  0.54970  1.0000 -0.5262820612
O   O33       1.0  0.01810  0.97630  0.94980  1.0000 -0.8722674947
O   O34       1.0  0.98190  0.47630  0.55020  1.0000 -0.8722674947
O   O35       1.0  0.98190  0.02370  0.05020  1.0000 -0.8722674947
O   O36       1.0  0.01810  0.52370  0.44980  1.0000 -0.8722674947
