# DDEC6 charges by PACMAN v1.1 (https://github.com/mtap-research/PACMAN-charge/)
data_2013[Zn][dia]3[ASR]13
_chemical_formula_sum              "Zn4 H64 C64 N8 O16"
_cell_length_a       10.895
_cell_length_b       13.052
_cell_length_c       16.5053
_cell_angle_alpha    90
_cell_angle_beta     125.315
_cell_angle_gamma    90

_symmetry_space_group_name_H-M    "P 1"
_symmetry_Int_Tables_number       1

loop_
  _symmetry_equiv_pos_as_xyz
  'x, y, z'

loop_
  _atom_site_type_symbol
  _atom_site_label
  _atom_site_symmetry_multiplicity
  _atom_site_fract_x
  _atom_site_fract_y
  _atom_site_fract_z
  _atom_site_occupancy
  _atom_site_charge
Zn  Zn1       1.0  0.52835  0.61975  0.32734  1.0000 0.7175791918
Zn  Zn2       1.0  0.52835  0.88025  0.82734  1.0000 0.7175791918
Zn  Zn3       1.0  0.47165  0.11975  0.17266  1.0000 0.7175791918
Zn  Zn4       1.0  0.47165  0.38025  0.67266  1.0000 0.7175791918
H   H1        1.0  0.57140  0.87540  0.53960  1.0000 0.1288869538
H   H2        1.0  0.57140  0.62460  0.03960  1.0000 0.1288869538
H   H3        1.0  0.41160  0.81940  0.48820  1.0000 0.1187715253
H   H4        1.0  0.41160  0.68060  0.98820  1.0000 0.1187715253
H   H5        1.0  0.68390  0.73150  0.65330  1.0000 0.1187715253
H   H6        1.0  0.68390  0.76850  0.15330  1.0000 0.1187715253
H   H7        1.0  0.51770  0.69020  0.60760  1.0000 0.1187715253
H   H8        1.0  0.51770  0.80980  0.10760  1.0000 0.1187715253
H   H9        1.0  0.36080  0.51440  0.12530  1.0000 0.1187715253
H   H10       1.0  0.36080  0.98560  0.62530  1.0000 0.1187715253
H   H11       1.0  0.15740  0.40800  0.02840  1.0000 0.1484670623
H   H12       1.0  0.15740  0.09200  0.52840  1.0000 0.1484670623
H   H13       1.0  0.07750  0.41750  0.23690  1.0000 0.1436859874
H   H14       1.0  0.07750  0.08250  0.73690  1.0000 0.1436859874
H   H15       1.0  0.27890  0.52670  0.32750  1.0000 0.1128378761
H   H16       1.0  0.27890  0.97330  0.82750  1.0000 0.1128378761
H   H17       1.0  0.90040  0.32800  0.08220  1.0000 0.1187715253
H   H18       1.0  0.90040  0.17200  0.58220  1.0000 0.1187715253
H   H19       1.0  0.91370  0.34210  0.99110  1.0000 0.1128378761
H   H20       1.0  0.91370  0.15790  0.49110  1.0000 0.1128378761
H   H21       1.0  0.08710  0.19940  0.14910  1.0000 0.1288869538
H   H22       1.0  0.08710  0.30060  0.64910  1.0000 0.1288869538
H   H23       1.0  0.10110  0.21360  0.05860  1.0000 0.1288869538
H   H24       1.0  0.10110  0.28640  0.55860  1.0000 0.1288869538
H   H25       1.0  0.97350  0.04170  0.13370  1.0000 0.1436859874
H   H26       1.0  0.97350  0.45830  0.63370  1.0000 0.1436859874
H   H27       1.0  0.79140  0.91950  0.04280  1.0000 0.1128378761
H   H28       1.0  0.79140  0.58050  0.54280  1.0000 0.1128378761
H   H29       1.0  0.62720  0.07790  0.79860  1.0000 0.1187715253
H   H30       1.0  0.62720  0.42210  0.29860  1.0000 0.1187715253
H   H31       1.0  0.80570  0.20290  0.88370  1.0000 0.1484670623
H   H32       1.0  0.80570  0.29710  0.38370  1.0000 0.1484670623
H   H33       1.0  0.42860  0.37540  0.96040  1.0000 0.1288869538
H   H34       1.0  0.42860  0.12460  0.46040  1.0000 0.1288869538
H   H35       1.0  0.58840  0.31940  0.01180  1.0000 0.1187715253
H   H36       1.0  0.58840  0.18060  0.51180  1.0000 0.1187715253
H   H37       1.0  0.31610  0.23150  0.84670  1.0000 0.1187715253
H   H38       1.0  0.31610  0.26850  0.34670  1.0000 0.1187715253
H   H39       1.0  0.48230  0.19020  0.89240  1.0000 0.1187715253
H   H40       1.0  0.48230  0.30980  0.39240  1.0000 0.1187715253
H   H41       1.0  0.63920  0.01440  0.37470  1.0000 0.1187715253
H   H42       1.0  0.63920  0.48560  0.87470  1.0000 0.1187715253
H   H43       1.0  0.84260  0.90800  0.47160  1.0000 0.1484670623
H   H44       1.0  0.84260  0.59200  0.97160  1.0000 0.1484670623
H   H45       1.0  0.92250  0.91750  0.26310  1.0000 0.1436859874
H   H46       1.0  0.92250  0.58250  0.76310  1.0000 0.1436859874
H   H47       1.0  0.72110  0.02670  0.17250  1.0000 0.1128378761
H   H48       1.0  0.72110  0.47330  0.67250  1.0000 0.1128378761
H   H49       1.0  0.09960  0.82800  0.41780  1.0000 0.1187715253
H   H50       1.0  0.09960  0.67200  0.91780  1.0000 0.1187715253
H   H51       1.0  0.08630  0.84210  0.50890  1.0000 0.1128378761
H   H52       1.0  0.08630  0.65790  0.00890  1.0000 0.1128378761
H   H53       1.0  0.91290  0.69940  0.35090  1.0000 0.1288869538
H   H54       1.0  0.91290  0.80060  0.85090  1.0000 0.1288869538
H   H55       1.0  0.89890  0.71360  0.44140  1.0000 0.1288869538
H   H56       1.0  0.89890  0.78640  0.94140  1.0000 0.1288869538
H   H57       1.0  0.02650  0.54170  0.36630  1.0000 0.1436859874
H   H58       1.0  0.02650  0.95830  0.86630  1.0000 0.1436859874
H   H59       1.0  0.20860  0.41950  0.45720  1.0000 0.1128378761
H   H60       1.0  0.20860  0.08050  0.95720  1.0000 0.1128378761
H   H61       1.0  0.37280  0.57790  0.70140  1.0000 0.1187715253
H   H62       1.0  0.37280  0.92210  0.20140  1.0000 0.1187715253
H   H63       1.0  0.19430  0.70290  0.61630  1.0000 0.1484670623
H   H64       1.0  0.19430  0.79710  0.11630  1.0000 0.1484670623
C   C1        1.0  0.55444  0.74413  0.46474  1.0000 0.608511096
C   C2        1.0  0.55444  0.75587  0.96474  1.0000 0.608511096
C   C3        1.0  0.52143  0.80787  0.52553  1.0000 -0.2928435745
C   C4        1.0  0.52143  0.69213  0.02553  1.0000 -0.2928435745
C   C5        1.0  0.57837  0.75288  0.62227  1.0000 -0.3100501539
C   C6        1.0  0.57837  0.74712  0.12227  1.0000 -0.3100501539
C   C7        1.0  0.57140  0.81755  0.69480  1.0000 0.6025978831
C   C8        1.0  0.57140  0.68245  0.19480  1.0000 0.6025978831
C   C9        1.0  0.30241  0.49447  0.14861  1.0000 0.0773878407
C   C10       1.0  0.30241  0.00553  0.64861  1.0000 0.0773878407
C   C11       1.0  0.18152  0.43060  0.09072  1.0000 -0.1832152249
C   C12       1.0  0.18152  0.06940  0.59072  1.0000 -0.1832152249
C   C13       1.0  0.09543  0.39935  0.12193  1.0000 0.169896899
C   C14       1.0  0.09543  0.10065  0.62193  1.0000 0.169896899
C   C15       1.0  0.13433  0.43656  0.21223  1.0000 -0.1989710273
C   C16       1.0  0.13433  0.06344  0.71223  1.0000 -0.1989710273
C   C17       1.0  0.25507  0.50106  0.26607  1.0000 0.0773878407
C   C18       1.0  0.25507  0.99894  0.76607  1.0000 0.0773878407
C   C19       1.0  0.97040  0.32414  0.06230  1.0000 -0.2391751016
C   C20       1.0  0.97040  0.17586  0.56230  1.0000 -0.2391751016
C   C21       1.0  0.03015  0.21642  0.07765  1.0000 -0.2391751016
C   C22       1.0  0.03015  0.28358  0.57765  1.0000 -0.2391751016
C   C23       1.0  0.91027  0.13674  0.01947  1.0000 0.169896899
C   C24       1.0  0.91027  0.36326  0.51947  1.0000 0.169896899
C   C25       1.0  0.90273  0.05091  0.06423  1.0000 -0.2056610452
C   C26       1.0  0.90273  0.44909  0.56423  1.0000 -0.2056610452
C   C27       1.0  0.79383  0.97817  0.00963  1.0000 0.068784727
C   C28       1.0  0.79383  0.52183  0.50963  1.0000 0.068784727
C   C29       1.0  0.69895  0.07013  0.86815  1.0000 0.0937580319
C   C30       1.0  0.69895  0.42987  0.36815  1.0000 0.0937580319
C   C31       1.0  0.80477  0.14511  0.91837  1.0000 -0.1941730322
C   C32       1.0  0.80477  0.35489  0.41837  1.0000 -0.1941730322
C   C33       1.0  0.44556  0.24413  0.03526  1.0000 0.608511096
C   C34       1.0  0.44556  0.25587  0.53526  1.0000 0.608511096
C   C35       1.0  0.47857  0.30787  0.97447  1.0000 -0.2928435745
C   C36       1.0  0.47857  0.19213  0.47447  1.0000 -0.2928435745
C   C37       1.0  0.42163  0.25288  0.87773  1.0000 -0.3100501539
C   C38       1.0  0.42163  0.24712  0.37773  1.0000 -0.3100501539
C   C39       1.0  0.42860  0.31755  0.80520  1.0000 0.6025978831
C   C40       1.0  0.42860  0.18245  0.30520  1.0000 0.6025978831
C   C41       1.0  0.69759  0.99447  0.35139  1.0000 0.0773878407
C   C42       1.0  0.69759  0.50553  0.85139  1.0000 0.0773878407
C   C43       1.0  0.81848  0.93060  0.40928  1.0000 -0.1832152249
C   C44       1.0  0.81848  0.56940  0.90928  1.0000 -0.1832152249
C   C45       1.0  0.90457  0.89935  0.37807  1.0000 0.169896899
C   C46       1.0  0.90457  0.60065  0.87807  1.0000 0.169896899
C   C47       1.0  0.86567  0.93656  0.28777  1.0000 -0.1989710273
C   C48       1.0  0.86567  0.56344  0.78777  1.0000 -0.1989710273
C   C49       1.0  0.74493  0.00106  0.23393  1.0000 0.0773878407
C   C50       1.0  0.74493  0.49894  0.73393  1.0000 0.0773878407
C   C51       1.0  0.02960  0.82414  0.43770  1.0000 -0.2391751016
C   C52       1.0  0.02960  0.67586  0.93770  1.0000 -0.2391751016
C   C53       1.0  0.96985  0.71642  0.42235  1.0000 -0.2391751016
C   C54       1.0  0.96985  0.78358  0.92235  1.0000 -0.2391751016
C   C55       1.0  0.08973  0.63674  0.48053  1.0000 0.169896899
C   C56       1.0  0.08973  0.86326  0.98053  1.0000 0.169896899
C   C57       1.0  0.09727  0.55091  0.43577  1.0000 -0.2056610452
C   C58       1.0  0.09727  0.94909  0.93577  1.0000 -0.2056610452
C   C59       1.0  0.20617  0.47817  0.49037  1.0000 0.068784727
C   C60       1.0  0.20617  0.02183  0.99037  1.0000 0.068784727
C   C61       1.0  0.30105  0.57013  0.63185  1.0000 0.0937580319
C   C62       1.0  0.30105  0.92987  0.13185  1.0000 0.0937580319
C   C63       1.0  0.19523  0.64511  0.58163  1.0000 -0.1941730322
C   C64       1.0  0.19523  0.85489  0.08163  1.0000 -0.1941730322
N   N1        1.0  0.34086  0.52958  0.23647  1.0000 -0.2286742123
N   N2        1.0  0.34086  0.97042  0.73647  1.0000 -0.2286742123
N   N3        1.0  0.69088  0.98666  0.91142  1.0000 -0.2286742123
N   N4        1.0  0.69088  0.51334  0.41142  1.0000 -0.2286742123
N   N5        1.0  0.65914  0.02958  0.26353  1.0000 -0.2286742123
N   N6        1.0  0.65914  0.47042  0.76353  1.0000 -0.2286742123
N   N7        1.0  0.30912  0.48666  0.58858  1.0000 -0.2286742123
N   N8        1.0  0.30912  0.01334  0.08858  1.0000 -0.2286742123
O   O1        1.0  0.44863  0.68921  0.39515  1.0000 -0.5781878771
O   O2        1.0  0.44863  0.81079  0.89515  1.0000 -0.5781878771
O   O3        1.0  0.68188  0.74314  0.48386  1.0000 -0.5869489552
O   O4        1.0  0.68188  0.75686  0.98386  1.0000 -0.5869489552
O   O5        1.0  0.53249  0.77399  0.74516  1.0000 -0.5439727547
O   O6        1.0  0.53249  0.72601  0.24516  1.0000 -0.5439727547
O   O7        1.0  0.60365  0.91014  0.70400  1.0000 -0.5781878771
O   O8        1.0  0.60365  0.58986  0.20400  1.0000 -0.5781878771
O   O9        1.0  0.55137  0.18921  0.10485  1.0000 -0.5781878771
O   O10       1.0  0.55137  0.31079  0.60485  1.0000 -0.5781878771
O   O11       1.0  0.31812  0.24314  0.01614  1.0000 -0.5869489552
O   O12       1.0  0.31812  0.25686  0.51614  1.0000 -0.5869489552
O   O13       1.0  0.46751  0.27399  0.75484  1.0000 -0.5439727547
O   O14       1.0  0.46751  0.22601  0.25484  1.0000 -0.5439727547
O   O15       1.0  0.39635  0.41014  0.79600  1.0000 -0.5781878771
O   O16       1.0  0.39635  0.08986  0.29600  1.0000 -0.5781878771
