# DDEC6 charges by PACMAN v1.1 (https://github.com/mtap-research/PACMAN-charge/)
data_2013[Co][dia]3[ASR]1
_chemical_formula_sum              "Co2 H16 C24 N4 O8"
_cell_length_a       6.307
_cell_length_b       12.611
_cell_length_c       12.1254
_cell_angle_alpha    90
_cell_angle_beta     120.107
_cell_angle_gamma    90

_symmetry_space_group_name_H-M    "P 1"
_symmetry_Int_Tables_number       1

loop_
  _symmetry_equiv_pos_as_xyz
  'x, y, z'

loop_
  _atom_site_type_symbol
  _atom_site_label
  _atom_site_symmetry_multiplicity
  _atom_site_fract_x
  _atom_site_fract_y
  _atom_site_fract_z
  _atom_site_occupancy
  _atom_site_charge
Co  Co1       1.0  0.88795  0.75374  0.25995  1.0000 0.7680551727
Co  Co2       1.0  0.88795  0.24626  0.75995  1.0000 0.7680551727
H   H1        1.0  0.22230  0.37020  0.98680  1.0000 0.10057606
H   H2        1.0  0.22230  0.62980  0.48680  1.0000 0.10057606
H   H3        1.0  0.22700  0.50870  0.11360  1.0000 0.1415059232
H   H4        1.0  0.22700  0.49130  0.61360  1.0000 0.1415059232
H   H5        1.0  0.49180  0.50760  0.91660  1.0000 0.1415059232
H   H6        1.0  0.49180  0.49240  0.41660  1.0000 0.1415059232
H   H7        1.0  0.50910  0.36650  0.80020  1.0000 0.1102589612
H   H8        1.0  0.50910  0.63350  0.30020  1.0000 0.1102589612
H   H9        1.0  0.37270  0.84940  0.31950  1.0000 0.1207834203
H   H10       1.0  0.37270  0.15060  0.81950  1.0000 0.1207834203
H   H11       1.0  0.63750  0.97820  0.44090  1.0000 0.1415059232
H   H12       1.0  0.63750  0.02180  0.94090  1.0000 0.1415059232
H   H13       1.0  0.28830  0.98670  0.64160  1.0000 0.1415059232
H   H14       1.0  0.28830  0.01330  0.14160  1.0000 0.1415059232
H   H15       1.0  0.03730  0.85640  0.51510  1.0000 0.1102589612
H   H16       1.0  0.03730  0.14360  0.01510  1.0000 0.1102589612
C   C1        1.0  0.65490  0.39610  0.86220  1.0000 0.10057606
C   C2        1.0  0.65490  0.60390  0.36220  1.0000 0.10057606
C   C3        1.0  0.65800  0.08800  0.63470  1.0000 0.5295420607
C   C4        1.0  0.65800  0.91200  0.13470  1.0000 0.5295420607
C   C5        1.0  0.07460  0.39790  0.97350  1.0000 0.0639581513
C   C6        1.0  0.07460  0.60210  0.47350  1.0000 0.0639581513
C   C7        1.0  0.07880  0.48140  0.04990  1.0000 -0.1475656013
C   C8        1.0  0.07880  0.51860  0.54990  1.0000 -0.1475656013
C   C9        1.0  0.85680  0.52330  0.02920  1.0000 0.0500144456
C   C10       1.0  0.85680  0.47670  0.52920  1.0000 0.0500144456
C   C11       1.0  0.64250  0.48070  0.93360  1.0000 -0.1567163634
C   C12       1.0  0.64250  0.51930  0.43360  1.0000 -0.1567163634
C   C13       1.0  0.85190  0.61480  0.10950  1.0000 0.5295420607
C   C14       1.0  0.85190  0.38520  0.60950  1.0000 0.5295420607
C   C15       1.0  0.35350  0.87910  0.38420  1.0000 0.0840170403
C   C16       1.0  0.35350  0.12090  0.88420  1.0000 0.0840170403
C   C17       1.0  0.51610  0.95520  0.45740  1.0000 -0.1567163634
C   C18       1.0  0.51610  0.04480  0.95740  1.0000 -0.1567163634
C   C19       1.0  0.49550  0.99840  0.55920  1.0000 0.031277312
C   C20       1.0  0.49550  0.00160  0.05920  1.0000 0.031277312
C   C21       1.0  0.30920  0.95990  0.57620  1.0000 -0.1387736629
C   C22       1.0  0.30920  0.04010  0.07620  1.0000 -0.1387736629
C   C23       1.0  0.15600  0.88310  0.49850  1.0000 0.0500144456
C   C24       1.0  0.15600  0.11690  0.99850  1.0000 0.0500144456
N   N1        1.0  0.86330  0.35620  0.88100  1.0000 -0.247206239
N   N2        1.0  0.86330  0.64380  0.38100  1.0000 -0.247206239
N   N3        1.0  0.16840  0.84370  0.39760  1.0000 -0.257447211
N   N4        1.0  0.16840  0.15630  0.89760  1.0000 -0.257447211
O   O1        1.0  0.65790  0.64320  0.09870  1.0000 -0.5000819247
O   O2        1.0  0.65790  0.35680  0.59870  1.0000 -0.5000819247
O   O3        1.0  0.06100  0.65240  0.19520  1.0000 -0.5559858362
O   O4        1.0  0.06100  0.34760  0.69520  1.0000 -0.5559858362
O   O5        1.0  0.83470  0.11530  0.62330  1.0000 -0.5100141148
O   O6        1.0  0.83470  0.88470  0.12330  1.0000 -0.5100141148
O   O7        1.0  0.61530  0.13450  0.71550  1.0000 -0.5443905275
O   O8        1.0  0.61530  0.86550  0.21550  1.0000 -0.5443905275
