# DDEC6 charges by PACMAN v1.1 (https://github.com/mtap-research/PACMAN-charge/)
data_2013[Pb][dia]3[ASR]1
_chemical_formula_sum              "H32 Pb8 C80 N24 O32"
_cell_length_a       16.4166
_cell_length_b       16.4166
_cell_length_c       16.4166
_cell_angle_alpha    116.563
_cell_angle_beta     116.563
_cell_angle_gamma    96.0643

_symmetry_space_group_name_H-M    "P 1"
_symmetry_Int_Tables_number       1

loop_
  _symmetry_equiv_pos_as_xyz
  'x, y, z'

loop_
  _atom_site_type_symbol
  _atom_site_label
  _atom_site_symmetry_multiplicity
  _atom_site_fract_x
  _atom_site_fract_y
  _atom_site_fract_z
  _atom_site_occupancy
  _atom_site_charge
H   H1        1.0  0.56810  0.58190  0.74540  1.0000 0.1520935237
H   H2        1.0  0.33190  0.08650  0.51380  1.0000 0.1520935237
H   H3        1.0  0.83650  0.82270  0.25460  1.0000 0.1520935237
H   H4        1.0  0.57270  0.81810  0.48620  1.0000 0.1520935237
H   H5        1.0  0.18190  0.66810  0.75460  1.0000 0.1520935237
H   H6        1.0  0.41810  0.16350  0.98620  1.0000 0.1520935237
H   H7        1.0  0.91350  0.42730  0.24540  1.0000 0.1520935237
H   H8        1.0  0.17730  0.43190  0.01380  1.0000 0.1520935237
H   H9        1.0  0.73418  0.65638  0.80720  1.0000 0.1520935237
H   H10       1.0  0.40638  0.09918  0.42220  1.0000 0.1520935237
H   H11       1.0  0.84918  0.92698  0.19280  1.0000 0.1520935237
H   H12       1.0  0.67698  0.98418  0.57780  1.0000 0.1520935237
H   H13       1.0  0.01582  0.59362  0.69280  1.0000 0.1520935237
H   H14       1.0  0.34362  0.15082  0.07780  1.0000 0.1520935237
H   H15       1.0  0.90082  0.32302  0.30720  1.0000 0.1520935237
H   H16       1.0  0.07302  0.26582  0.92220  1.0000 0.1520935237
H   H17       1.0  0.76430  0.71990  0.71800  1.0000 0.1520935237
H   H18       1.0  0.46990  0.25190  0.45560  1.0000 0.1520935237
H   H19       1.0  0.00190  0.04630  0.28200  1.0000 0.1520935237
H   H20       1.0  0.79630  0.01430  0.54440  1.0000 0.1520935237
H   H21       1.0  0.98570  0.53010  0.78200  1.0000 0.1520935237
H   H22       1.0  0.28010  0.99810  0.04440  1.0000 0.1520935237
H   H23       1.0  0.74810  0.20370  0.21800  1.0000 0.1520935237
H   H24       1.0  0.95370  0.23570  0.95560  1.0000 0.1520935237
H   H25       1.0  0.63610  0.70290  0.56880  1.0000 0.1131809345
H   H26       1.0  0.45290  0.38410  0.56680  1.0000 0.1131809345
H   H27       1.0  0.13410  0.06730  0.43120  1.0000 0.1131809345
H   H28       1.0  0.81730  0.88610  0.43320  1.0000 0.1131809345
H   H29       1.0  0.11390  0.54710  0.93120  1.0000 0.1131809345
H   H30       1.0  0.29710  0.86590  0.93320  1.0000 0.1131809345
H   H31       1.0  0.61590  0.18270  0.06880  1.0000 0.1131809345
H   H32       1.0  0.93270  0.36390  0.06680  1.0000 0.1131809345
Pb  Pb1       1.0  0.39650  0.47158  0.76552  1.0000 0.9377520084
Pb  Pb2       1.0  0.22158  0.95606  0.57508  1.0000 0.9377520084
Pb  Pb3       1.0  0.70606  0.63098  0.23448  1.0000 0.9377520084
Pb  Pb4       1.0  0.38098  0.64650  0.42492  1.0000 0.9377520084
Pb  Pb5       1.0  0.35350  0.77842  0.73448  1.0000 0.9377520084
Pb  Pb6       1.0  0.52842  0.29394  0.92492  1.0000 0.9377520084
Pb  Pb7       1.0  0.04394  0.61902  0.26552  1.0000 0.9377520084
Pb  Pb8       1.0  0.36902  0.60350  0.07508  1.0000 0.9377520084
C   C1        1.0  0.19660  0.45710  0.56570  1.0000 0.5422039181
C   C2        1.0  0.20710  0.14140  0.76050  1.0000 0.5422039181
C   C3        1.0  0.89140  0.63090  0.43430  1.0000 0.5422039181
C   C4        1.0  0.38090  0.44660  0.23950  1.0000 0.5422039181
C   C5        1.0  0.55340  0.79290  0.93430  1.0000 0.5422039181
C   C6        1.0  0.54290  0.10860  0.73950  1.0000 0.5422039181
C   C7        1.0  0.85860  0.61910  0.06570  1.0000 0.5422039181
C   C8        1.0  0.36910  0.80340  0.26050  1.0000 0.5422039181
C   C9        1.0  0.26850  0.50260  0.55250  1.0000 0.0400584317
C   C10       1.0  0.25260  0.20010  0.73410  1.0000 0.0400584317
C   C11       1.0  0.95010  0.71600  0.44750  1.0000 0.0400584317
C   C12       1.0  0.46600  0.51850  0.26590  1.0000 0.0400584317
C   C13       1.0  0.48150  0.74740  0.94750  1.0000 0.0400584317
C   C14       1.0  0.49740  0.04990  0.76590  1.0000 0.0400584317
C   C15       1.0  0.79990  0.53400  0.05250  1.0000 0.0400584317
C   C16       1.0  0.28400  0.73150  0.23410  1.0000 0.0400584317
C   C17       1.0  0.25240  0.53170  0.48150  1.0000 0.0207496132
C   C18       1.0  0.28170  0.30020  0.77930  1.0000 0.0207496132
C   C19       1.0  0.05020  0.77090  0.51850  1.0000 0.0207496132
C   C20       1.0  0.52090  0.50240  0.22070  1.0000 0.0207496132
C   C21       1.0  0.49760  0.71830  0.01850  1.0000 0.0207496132
C   C22       1.0  0.46830  0.94980  0.72070  1.0000 0.0207496132
C   C23       1.0  0.69980  0.47910  0.98150  1.0000 0.0207496132
C   C24       1.0  0.22910  0.74760  0.27930  1.0000 0.0207496132
C   C25       1.0  0.40590  0.56340  0.57990  1.0000 0.2590884716
C   C26       1.0  0.31340  0.23350  0.65750  1.0000 0.2590884716
C   C27       1.0  0.98350  0.82600  0.42010  1.0000 0.2590884716
C   C28       1.0  0.57600  0.65590  0.34250  1.0000 0.2590884716
C   C29       1.0  0.34410  0.68660  0.92010  1.0000 0.2590884716
C   C30       1.0  0.43660  0.01650  0.84250  1.0000 0.2590884716
C   C31       1.0  0.76650  0.42400  0.07990  1.0000 0.2590884716
C   C32       1.0  0.17400  0.59410  0.15750  1.0000 0.2590884716
C   C33       1.0  0.16720  0.53750  0.40290  1.0000 0.5583502204
C   C34       1.0  0.28750  0.38460  0.87030  1.0000 0.5583502204
C   C35       1.0  0.13460  0.76430  0.59710  1.0000 0.5583502204
C   C36       1.0  0.51430  0.41720  0.12970  1.0000 0.5583502204
C   C37       1.0  0.58280  0.71250  0.09710  1.0000 0.5583502204
C   C38       1.0  0.46250  0.86540  0.62970  1.0000 0.5583502204
C   C39       1.0  0.61540  0.48570  0.90290  1.0000 0.5583502204
C   C40       1.0  0.23570  0.83280  0.37030  1.0000 0.5583502204
C   C41       1.0  0.50940  0.60120  0.62080  1.0000 0.1520935237
C   C42       1.0  0.35120  0.23040  0.59180  1.0000 0.1520935237
C   C43       1.0  0.98040  0.88860  0.37920  1.0000 0.1520935237
C   C44       1.0  0.63860  0.75940  0.40820  1.0000 0.1520935237
C   C45       1.0  0.24060  0.64880  0.87920  1.0000 0.1520935237
C   C46       1.0  0.39880  0.01960  0.90820  1.0000 0.1520935237
C   C47       1.0  0.76960  0.36140  0.12080  1.0000 0.1520935237
C   C48       1.0  0.11140  0.49060  0.09180  1.0000 0.1520935237
C   C49       1.0  0.58290  0.60680  0.71050  1.0000 -0.1180570479
C   C50       1.0  0.35680  0.14630  0.52390  1.0000 -0.1180570479
C   C51       1.0  0.89630  0.87240  0.28950  1.0000 -0.1180570479
C   C52       1.0  0.62240  0.83290  0.47610  1.0000 -0.1180570479
C   C53       1.0  0.16710  0.64320  0.78950  1.0000 -0.1180570479
C   C54       1.0  0.39320  0.10370  0.97610  1.0000 -0.1180570479
C   C55       1.0  0.85370  0.37760  0.21050  1.0000 -0.1180570479
C   C56       1.0  0.12760  0.41710  0.02390  1.0000 -0.1180570479
C   C57       1.0  0.68220  0.65190  0.74770  1.0000 0.0142752254
C   C58       1.0  0.40190  0.15420  0.46970  1.0000 0.0142752254
C   C59       1.0  0.90420  0.93450  0.25230  1.0000 0.0142752254
C   C60       1.0  0.68450  0.93220  0.53030  1.0000 0.0142752254
C   C61       1.0  0.06780  0.59810  0.75230  1.0000 0.0142752254
C   C62       1.0  0.34810  0.09580  0.03030  1.0000 0.0142752254
C   C63       1.0  0.84580  0.31550  0.24770  1.0000 0.0142752254
C   C64       1.0  0.06550  0.31780  0.96970  1.0000 0.0142752254
C   C65       1.0  0.70000  0.68880  0.69400  1.0000 -0.1480385084
C   C66       1.0  0.43880  0.24480  0.48880  1.0000 -0.1480385084
C   C67       1.0  0.99480  0.00600  0.30600  1.0000 -0.1480385084
C   C68       1.0  0.75600  0.95000  0.51120  1.0000 -0.1480385084
C   C69       1.0  0.05000  0.56120  0.80600  1.0000 -0.1480385084
C   C70       1.0  0.31120  0.00520  0.01120  1.0000 -0.1480385084
C   C71       1.0  0.75520  0.24400  0.19400  1.0000 -0.1480385084
C   C72       1.0  0.99400  0.30000  0.98880  1.0000 -0.1480385084
C   C73       1.0  0.62250  0.67930  0.60520  1.0000 0.1012283759
C   C74       1.0  0.42930  0.32410  0.55680  1.0000 0.1012283759
C   C75       1.0  0.07410  0.01730  0.39480  1.0000 0.1012283759
C   C76       1.0  0.76730  0.87250  0.44320  1.0000 0.1012283759
C   C77       1.0  0.12750  0.57070  0.89480  1.0000 0.1012283759
C   C78       1.0  0.32070  0.92590  0.94320  1.0000 0.1012283759
C   C79       1.0  0.67590  0.23270  0.10520  1.0000 0.1012283759
C   C80       1.0  0.98270  0.37750  0.05680  1.0000 0.1012283759
N   N1        1.0  0.36480  0.52270  0.61470  1.0000 -0.3792839199
N   N2        1.0  0.27270  0.15800  0.65790  1.0000 -0.3792839199
N   N3        1.0  0.90800  0.75010  0.38530  1.0000 -0.3792839199
N   N4        1.0  0.50010  0.61480  0.34210  1.0000 -0.3792839199
N   N5        1.0  0.38520  0.72730  0.88530  1.0000 -0.3792839199
N   N6        1.0  0.47730  0.09200  0.84210  1.0000 -0.3792839199
N   N7        1.0  0.84200  0.49990  0.11470  1.0000 -0.3792839199
N   N8        1.0  0.24990  0.63520  0.15790  1.0000 -0.3792839199
N   N9        1.0  0.34090  0.56900  0.49930  1.0000 -0.3076487966
N   N10       1.0  0.31900  0.31970  0.72810  1.0000 -0.3076487966
N   N11       1.0  0.06970  0.84160  0.50070  1.0000 -0.3076487966
N   N12       1.0  0.59160  0.59090  0.27190  1.0000 -0.3076487966
N   N13       1.0  0.40910  0.68100  0.00070  1.0000 -0.3076487966
N   N14       1.0  0.43100  0.93030  0.77190  1.0000 -0.3076487966
N   N15       1.0  0.68030  0.40840  0.99930  1.0000 -0.3076487966
N   N16       1.0  0.15840  0.65910  0.22810  1.0000 -0.3076487966
N   N17       1.0  0.52940  0.63840  0.56800  1.0000 -0.22884175
N   N18       1.0  0.38840  0.32040  0.60900  1.0000 -0.22884175
N   N19       1.0  0.07040  0.96140  0.43200  1.0000 -0.22884175
N   N20       1.0  0.71140  0.77940  0.39100  1.0000 -0.22884175
N   N21       1.0  0.22060  0.61160  0.93200  1.0000 -0.22884175
N   N22       1.0  0.36160  0.92960  0.89100  1.0000 -0.22884175
N   N23       1.0  0.67960  0.28860  0.06800  1.0000 -0.22884175
N   N24       1.0  0.03860  0.47060  0.10900  1.0000 -0.22884175
O   O1        1.0  0.22170  0.43320  0.63030  1.0000 -0.5160784125
O   O2        1.0  0.18320  0.05290  0.71150  1.0000 -0.5160784125
O   O3        1.0  0.80290  0.59140  0.36970  1.0000 -0.5160784125
O   O4        1.0  0.34140  0.47170  0.28850  1.0000 -0.5160784125
O   O5        1.0  0.52830  0.81680  0.86970  1.0000 -0.5160784125
O   O6        1.0  0.56680  0.19710  0.78850  1.0000 -0.5160784125
O   O7        1.0  0.94710  0.65860  0.13030  1.0000 -0.5160784125
O   O8        1.0  0.40860  0.77830  0.21150  1.0000 -0.5160784125
O   O9        1.0  0.10470  0.44420  0.50470  1.0000 -0.4806798845
O   O10       1.0  0.19420  0.18950  0.83950  1.0000 -0.4806798845
O   O11       1.0  0.93950  0.60000  0.49530  1.0000 -0.4806798845
O   O12       1.0  0.35000  0.35470  0.16050  1.0000 -0.4806798845
O   O13       1.0  0.64530  0.80580  0.99530  1.0000 -0.4806798845
O   O14       1.0  0.55580  0.06050  0.66050  1.0000 -0.4806798845
O   O15       1.0  0.81050  0.65000  0.00470  1.0000 -0.4806798845
O   O16       1.0  0.40000  0.89530  0.33950  1.0000 -0.4806798845
O   O17       1.0  0.08480  0.50580  0.38560  1.0000 -0.4806798845
O   O18       1.0  0.25580  0.37020  0.92100  1.0000 -0.4806798845
O   O19       1.0  0.12020  0.69920  0.61440  1.0000 -0.4806798845
O   O20       1.0  0.44920  0.33480  0.07900  1.0000 -0.4806798845
O   O21       1.0  0.66520  0.74420  0.11440  1.0000 -0.4806798845
O   O22       1.0  0.49420  0.87980  0.57900  1.0000 -0.4806798845
O   O23       1.0  0.62980  0.55080  0.88560  1.0000 -0.4806798845
O   O24       1.0  0.30080  0.91520  0.42100  1.0000 -0.4806798845
O   O25       1.0  0.18470  0.57700  0.35890  1.0000 -0.5359530896
O   O26       1.0  0.32700  0.46810  0.89230  1.0000 -0.5359530896
O   O27       1.0  0.21810  0.82580  0.64110  1.0000 -0.5359530896
O   O28       1.0  0.57580  0.43470  0.10770  1.0000 -0.5359530896
O   O29       1.0  0.56530  0.67300  0.14110  1.0000 -0.5359530896
O   O30       1.0  0.42300  0.78190  0.60770  1.0000 -0.5359530896
O   O31       1.0  0.53190  0.42420  0.85890  1.0000 -0.5359530896
O   O32       1.0  0.17420  0.81530  0.39230  1.0000 -0.5359530896
