# DDEC6 charges by PACMAN v1.1 (https://github.com/mtap-research/PACMAN-charge/)
data_2013[Y][nan]3[ASR]4
_chemical_formula_sum              "Y8 H60 C132 N12 O60"
_cell_length_a       14.459
_cell_length_b       20.243
_cell_length_c       21.109
_cell_angle_alpha    90
_cell_angle_beta     90
_cell_angle_gamma    90

_symmetry_space_group_name_H-M    "P 1"
_symmetry_Int_Tables_number       1

loop_
  _symmetry_equiv_pos_as_xyz
  'x, y, z'

loop_
  _atom_site_type_symbol
  _atom_site_label
  _atom_site_symmetry_multiplicity
  _atom_site_fract_x
  _atom_site_fract_y
  _atom_site_fract_z
  _atom_site_occupancy
  _atom_site_charge
Y   Y1        1.0  0.94869  0.81893  0.09695  1.0000 1.8122437649
Y   Y2        1.0  0.55131  0.18107  0.59695  1.0000 1.8122437649
Y   Y3        1.0  0.44869  0.68107  0.90305  1.0000 1.8122437649
Y   Y4        1.0  0.05131  0.31893  0.40305  1.0000 1.8122437649
Y   Y5        1.0  0.19789  0.65112  0.06614  1.0000 1.8122437649
Y   Y6        1.0  0.30211  0.34888  0.56614  1.0000 1.8122437649
Y   Y7        1.0  0.69789  0.84888  0.93386  1.0000 1.8122437649
Y   Y8        1.0  0.80211  0.15112  0.43386  1.0000 1.8122437649
H   H1        1.0  0.30580  0.05350  0.08330  1.0000 0.2792935796
H   H2        1.0  0.19420  0.94650  0.58330  1.0000 0.2792935796
H   H3        1.0  0.80580  0.44650  0.91670  1.0000 0.2792935796
H   H4        1.0  0.69420  0.55350  0.41670  1.0000 0.2792935796
H   H5        1.0  0.44350  0.16190  0.21080  1.0000 0.2737399392
H   H6        1.0  0.05650  0.83810  0.71080  1.0000 0.2737399392
H   H7        1.0  0.94350  0.33810  0.78920  1.0000 0.2737399392
H   H8        1.0  0.55650  0.66190  0.28920  1.0000 0.2737399392
H   H9        1.0  0.35030  0.28500  0.89690  1.0000 0.2792935796
H   H10       1.0  0.14970  0.71500  0.39690  1.0000 0.2792935796
H   H11       1.0  0.85030  0.21500  0.10310  1.0000 0.2792935796
H   H12       1.0  0.64970  0.78500  0.60310  1.0000 0.2792935796
H   H13       1.0  0.32210  0.78920  0.00560  1.0000 0.121907314
H   H14       1.0  0.17790  0.21080  0.50560  1.0000 0.121907314
H   H15       1.0  0.82210  0.71080  0.99440  1.0000 0.121907314
H   H16       1.0  0.67790  0.28920  0.49440  1.0000 0.121907314
H   H17       1.0  0.44700  0.96570  0.98900  1.0000 0.1416388195
H   H18       1.0  0.05300  0.03430  0.48900  1.0000 0.1416388195
H   H19       1.0  0.94700  0.53430  0.01100  1.0000 0.1416388195
H   H20       1.0  0.55300  0.46570  0.51100  1.0000 0.1416388195
H   H21       1.0  0.20100  0.95180  0.07670  1.0000 0.1455505692
H   H22       1.0  0.29900  0.04820  0.57670  1.0000 0.1416388195
H   H23       1.0  0.70100  0.54820  0.92330  1.0000 0.1416388195
H   H24       1.0  0.79900  0.45180  0.42330  1.0000 0.1416388195
H   H25       1.0  0.36620  0.19460  0.94420  1.0000 0.121907314
H   H26       1.0  0.13380  0.80540  0.44420  1.0000 0.121907314
H   H27       1.0  0.86620  0.30540  0.05580  1.0000 0.121907314
H   H28       1.0  0.63380  0.69460  0.55580  1.0000 0.121907314
H   H29       1.0  0.41460  0.32230  0.08600  1.0000 0.1324022446
H   H30       1.0  0.08540  0.67770  0.58600  1.0000 0.1324022446
H   H31       1.0  0.91460  0.17770  0.91400  1.0000 0.1324022446
H   H32       1.0  0.58540  0.82230  0.41400  1.0000 0.1324022446
H   H33       1.0  0.37860  0.13000  0.12410  1.0000 0.102495521
H   H34       1.0  0.12140  0.87000  0.62410  1.0000 0.102495521
H   H35       1.0  0.87860  0.37000  0.87590  1.0000 0.102495521
H   H36       1.0  0.62140  0.63000  0.37590  1.0000 0.102495521
H   H37       1.0  0.55020  0.16940  0.30750  1.0000 0.1416388195
H   H38       1.0  0.94980  0.83060  0.80750  1.0000 0.1416388195
H   H39       1.0  0.05020  0.33060  0.69250  1.0000 0.1416388195
H   H40       1.0  0.44980  0.66940  0.19250  1.0000 0.1416388195
H   H41       1.0  0.42660  0.23990  0.46320  1.0000 0.1324022446
H   H42       1.0  0.07340  0.76010  0.96320  1.0000 0.1324022446
H   H43       1.0  0.92660  0.26010  0.53680  1.0000 0.1324022446
H   H44       1.0  0.57340  0.73990  0.03680  1.0000 0.1324022446
H   H45       1.0  0.30430  0.25610  0.29390  1.0000 0.1416388195
H   H46       1.0  0.19570  0.74390  0.79390  1.0000 0.1416388195
H   H47       1.0  0.80430  0.24390  0.70610  1.0000 0.1416388195
H   H48       1.0  0.69570  0.75610  0.20610  1.0000 0.1416388195
H   H49       1.0  0.35450  0.31590  0.78710  1.0000 0.1416388195
H   H50       1.0  0.14550  0.68410  0.28710  1.0000 0.1416388195
H   H51       1.0  0.85450  0.18410  0.21290  1.0000 0.1416388195
H   H52       1.0  0.64550  0.81590  0.71290  1.0000 0.1416388195
H   H53       1.0  0.37310  0.50790  0.74060  1.0000 0.1416388195
H   H54       1.0  0.12690  0.49210  0.24060  1.0000 0.1416388195
H   H55       1.0  0.87310  0.99210  0.25940  1.0000 0.1416388195
H   H56       1.0  0.62690  0.00790  0.75940  1.0000 0.1416388195
H   H57       1.0  0.39210  0.45240  0.92290  1.0000 0.1416388195
H   H58       1.0  0.10790  0.54760  0.42290  1.0000 0.1416388195
H   H59       1.0  0.89210  0.04760  0.07710  1.0000 0.1416388195
H   H60       1.0  0.60790  0.95240  0.57710  1.0000 0.1416388195
C   C1        1.0  0.16920  0.82330  0.06740  1.0000 0.6432804468
C   C2        1.0  0.33080  0.17670  0.56740  1.0000 0.6432804468
C   C3        1.0  0.66920  0.67670  0.93260  1.0000 0.6432804468
C   C4        1.0  0.83080  0.32330  0.43260  1.0000 0.6432804468
C   C5        1.0  0.24930  0.86420  0.04460  1.0000 -0.0120954855
C   C6        1.0  0.25070  0.13580  0.54460  1.0000 -0.0120954855
C   C7        1.0  0.74930  0.63580  0.95540  1.0000 -0.0120954855
C   C8        1.0  0.75070  0.36420  0.45540  1.0000 -0.0120954855
C   C9        1.0  0.32260  0.83448  0.01290  1.0000 -0.1302408337
C   C10       1.0  0.17740  0.16552  0.51290  1.0000 -0.1302408337
C   C11       1.0  0.82260  0.66552  0.98710  1.0000 -0.1302408337
C   C12       1.0  0.67740  0.33448  0.48710  1.0000 -0.1302408337
C   C13       1.0  0.39670  0.87250  0.99210  1.0000 -0.0390910649
C   C14       1.0  0.10330  0.12750  0.49210  1.0000 -0.0390910649
C   C15       1.0  0.89670  0.62750  0.00790  1.0000 -0.0390910649
C   C16       1.0  0.60330  0.37250  0.50790  1.0000 -0.0390910649
C   C17       1.0  0.39740  0.94020  0.00300  1.0000 -0.1694476403
C   C18       1.0  0.10260  0.05980  0.50300  1.0000 -0.1623441137
C   C19       1.0  0.89740  0.55980  0.99700  1.0000 -0.1694476403
C   C20       1.0  0.60260  0.44020  0.49700  1.0000 -0.1694476403
C   C21       1.0  0.32410  0.96992  0.03470  1.0000 0.2259577062
C   C22       1.0  0.17590  0.03008  0.53470  1.0000 0.2259577062
C   C23       1.0  0.82410  0.53008  0.96530  1.0000 0.2259577062
C   C24       1.0  0.67590  0.46992  0.46530  1.0000 0.2259577062
C   C25       1.0  0.25010  0.93190  0.05550  1.0000 -0.1914471074
C   C26       1.0  0.24990  0.06810  0.55550  1.0000 -0.1914471074
C   C27       1.0  0.75010  0.56810  0.94450  1.0000 -0.1914471074
C   C28       1.0  0.74990  0.43190  0.44450  1.0000 -0.1914471074
C   C29       1.0  0.47550  0.84270  0.95930  1.0000 0.6432804468
C   C30       1.0  0.02450  0.15730  0.45930  1.0000 0.6432804468
C   C31       1.0  0.97550  0.65730  0.04070  1.0000 0.6432804468
C   C32       1.0  0.52450  0.34270  0.54070  1.0000 0.6432804468
C   C33       1.0  0.35910  0.08400  0.00610  1.0000 0.4526175462
C   C34       1.0  0.14090  0.91600  0.50610  1.0000 0.4526175462
C   C35       1.0  0.85910  0.41600  0.99390  1.0000 0.4526175462
C   C36       1.0  0.64090  0.58400  0.49390  1.0000 0.4526175462
C   C37       1.0  0.37090  0.15180  0.03160  1.0000 0.0007531847
C   C38       1.0  0.12910  0.84820  0.53160  1.0000 -0.0028009515
C   C39       1.0  0.87090  0.34820  0.96840  1.0000 -0.0028009515
C   C40       1.0  0.62910  0.65180  0.46840  1.0000 -0.0028009515
C   C41       1.0  0.37760  0.20330  0.98680  1.0000 -0.1302408337
C   C42       1.0  0.12240  0.79670  0.48680  1.0000 -0.1302408337
C   C43       1.0  0.87760  0.29670  0.01320  1.0000 -0.1302408337
C   C44       1.0  0.62240  0.70330  0.51320  1.0000 -0.1302408337
C   C45       1.0  0.40020  0.26490  0.00510  1.0000 -0.0292576443
C   C46       1.0  0.09980  0.73510  0.50510  1.0000 -0.0292576443
C   C47       1.0  0.90020  0.23510  0.99490  1.0000 -0.0292576443
C   C48       1.0  0.59980  0.76490  0.49490  1.0000 -0.0292576443
C   C49       1.0  0.40480  0.27920  0.07230  1.0000 -0.0924763031
C   C50       1.0  0.09520  0.72080  0.57230  1.0000 -0.0924763031
C   C51       1.0  0.90480  0.22080  0.92770  1.0000 -0.0924763031
C   C52       1.0  0.59520  0.77920  0.42770  1.0000 -0.0924763031
C   C53       1.0  0.39470  0.22970  0.11560  1.0000 -0.0120954855
C   C54       1.0  0.10530  0.77030  0.61560  1.0000 -0.0120954855
C   C55       1.0  0.89470  0.27030  0.88440  1.0000 -0.0120954855
C   C56       1.0  0.60530  0.72970  0.38440  1.0000 -0.0120954855
C   C57       1.0  0.38090  0.16440  0.09490  1.0000 -0.1763852782
C   C58       1.0  0.11910  0.83560  0.59490  1.0000 -0.1763852782
C   C59       1.0  0.88090  0.33560  0.90510  1.0000 -0.1763852782
C   C60       1.0  0.61910  0.66440  0.40510  1.0000 -0.1763852782
C   C61       1.0  0.40200  0.24650  0.18350  1.0000 0.4708018579
C   C62       1.0  0.09800  0.75350  0.68350  1.0000 0.4708018579
C   C63       1.0  0.90200  0.25350  0.81650  1.0000 0.4708018579
C   C64       1.0  0.59800  0.74650  0.31650  1.0000 0.4708018579
C   C65       1.0  0.42590  0.21150  0.29180  1.0000 0.2109345139
C   C66       1.0  0.07410  0.78850  0.79180  1.0000 0.2109345139
C   C67       1.0  0.92590  0.28850  0.70820  1.0000 0.2109345139
C   C68       1.0  0.57410  0.71150  0.20820  1.0000 0.2109345139
C   C69       1.0  0.50050  0.19050  0.32690  1.0000 -0.2007519401
C   C70       1.0  0.99950  0.80950  0.82690  1.0000 -0.2007519401
C   C71       1.0  0.00050  0.30950  0.67310  1.0000 -0.2007519401
C   C72       1.0  0.49950  0.69050  0.17310  1.0000 -0.2007519401
C   C73       1.0  0.50000  0.20190  0.39350  1.0000 -0.0028009515
C   C74       1.0  0.00000  0.79810  0.89350  1.0000 -0.0028009515
C   C75       1.0  0.00000  0.29810  0.60650  1.0000 -0.0028009515
C   C76       1.0  0.50000  0.70190  0.10650  1.0000 -0.0028009515
C   C77       1.0  0.58190  0.17740  0.43110  1.0000 0.6432804468
C   C78       1.0  0.91810  0.82260  0.93110  1.0000 0.6432804468
C   C79       1.0  0.08190  0.32260  0.56890  1.0000 0.6432804468
C   C80       1.0  0.41810  0.67740  0.06890  1.0000 0.6432804468
C   C81       1.0  0.42670  0.23250  0.41970  1.0000 -0.1361412614
C   C82       1.0  0.07330  0.76750  0.91970  1.0000 -0.1361412614
C   C83       1.0  0.92670  0.26750  0.58030  1.0000 -0.1361412614
C   C84       1.0  0.57330  0.73250  0.08030  1.0000 -0.1361412614
C   C85       1.0  0.35310  0.25290  0.38500  1.0000 -0.0028009515
C   C86       1.0  0.14690  0.74710  0.88500  1.0000 -0.0028009515
C   C87       1.0  0.85310  0.24710  0.61500  1.0000 -0.0028009515
C   C88       1.0  0.64690  0.75290  0.11500  1.0000 -0.0028009515
C   C89       1.0  0.27230  0.29150  0.41240  1.0000 0.6558319383
C   C90       1.0  0.22770  0.70850  0.91240  1.0000 0.6558319383
C   C91       1.0  0.77230  0.20850  0.58760  1.0000 0.6558319383
C   C92       1.0  0.72770  0.79150  0.08760  1.0000 0.6558319383
C   C93       1.0  0.35380  0.24210  0.31870  1.0000 -0.1694476403
C   C94       1.0  0.14620  0.75790  0.81870  1.0000 -0.1694476403
C   C95       1.0  0.85380  0.25790  0.68130  1.0000 -0.1694476403
C   C96       1.0  0.64620  0.74210  0.18130  1.0000 -0.1694476403
C   C97       1.0  0.40820  0.32390  0.96550  1.0000 0.4614046567
C   C98       1.0  0.09180  0.67610  0.46550  1.0000 0.4614046567
C   C99       1.0  0.90820  0.17610  0.03450  1.0000 0.4614046567
C   C100      1.0  0.59180  0.82390  0.53450  1.0000 0.4614046567
C   C101      1.0  0.37330  0.37600  0.86260  1.0000 0.2259577062
C   C102      1.0  0.12670  0.62400  0.36260  1.0000 0.2259577062
C   C103      1.0  0.87330  0.12400  0.13740  1.0000 0.2259577062
C   C104      1.0  0.62670  0.87600  0.63740  1.0000 0.2259577062
C   C105      1.0  0.36200  0.35978  0.79910  1.0000 -0.1914471074
C   C106      1.0  0.13800  0.64022  0.29910  1.0000 -0.1914471074
C   C107      1.0  0.86200  0.14022  0.20090  1.0000 -0.1914471074
C   C108      1.0  0.63800  0.85978  0.70090  1.0000 -0.1914471074
C   C109      1.0  0.36190  0.40920  0.75336  1.0000 -0.0120954855
C   C110      1.0  0.13810  0.59080  0.25336  1.0000 -0.0120954855
C   C111      1.0  0.86190  0.09080  0.24664  1.0000 -0.0120954855
C   C112      1.0  0.63810  0.90920  0.74664  1.0000 -0.0120954855
C   C113      1.0  0.37310  0.47480  0.77120  1.0000 -0.0838393404
C   C114      1.0  0.12690  0.52520  0.27120  1.0000 -0.0838393404
C   C115      1.0  0.87310  0.02520  0.22880  1.0000 -0.0838393404
C   C116      1.0  0.62690  0.97480  0.72880  1.0000 -0.0838393404
C   C117      1.0  0.38450  0.49100  0.83470  1.0000 -0.0120954855
C   C118      1.0  0.11550  0.50900  0.33470  1.0000 -0.0120954855
C   C119      1.0  0.88450  0.00900  0.16530  1.0000 -0.0120954855
C   C120      1.0  0.61550  0.99100  0.66530  1.0000 -0.0120954855
C   C121      1.0  0.38450  0.44160  0.88041  1.0000 -0.1623441137
C   C122      1.0  0.11550  0.55840  0.38041  1.0000 -0.1623441137
C   C123      1.0  0.88450  0.05840  0.11959  1.0000 -0.1623441137
C   C124      1.0  0.61550  0.94160  0.61959  1.0000 -0.1623441137
C   C125      1.0  0.34240  0.39030  0.68720  1.0000 0.559369383
C   C126      1.0  0.15760  0.60970  0.18720  1.0000 0.559369383
C   C127      1.0  0.84240  0.10970  0.31280  1.0000 0.559369383
C   C128      1.0  0.65760  0.89030  0.81280  1.0000 0.559369383
C   C129      1.0  0.40340  0.55880  0.85780  1.0000 0.559369383
C   C130      1.0  0.09660  0.44120  0.35780  1.0000 0.559369383
C   C131      1.0  0.90340  0.94120  0.14220  1.0000 0.559369383
C   C132      1.0  0.59660  0.05880  0.64220  1.0000 0.559369383
N   N1        1.0  0.32640  0.03960  0.04750  1.0000 -0.3602307088
N   N2        1.0  0.17360  0.96040  0.54750  1.0000 -0.3602307088
N   N3        1.0  0.82640  0.46040  0.95250  1.0000 -0.3602307088
N   N4        1.0  0.67360  0.53960  0.45250  1.0000 -0.3602307088
N   N5        1.0  0.42670  0.20000  0.22470  1.0000 -0.3725380845
N   N6        1.0  0.07330  0.80000  0.72470  1.0000 -0.3725380845
N   N7        1.0  0.92670  0.30000  0.77530  1.0000 -0.3725380845
N   N8        1.0  0.57330  0.70000  0.27530  1.0000 -0.3725380845
N   N9        1.0  0.37450  0.32180  0.90870  1.0000 -0.3502548135
N   N10       1.0  0.12550  0.67820  0.40870  1.0000 -0.3502548135
N   N11       1.0  0.87450  0.17820  0.09130  1.0000 -0.3502548135
N   N12       1.0  0.62550  0.82180  0.59130  1.0000 -0.3502548135
O   O1        1.0  0.09520  0.85380  0.08110  1.0000 -0.618365819
O   O2        1.0  0.40480  0.14620  0.58110  1.0000 -0.618365819
O   O3        1.0  0.59520  0.64620  0.91890  1.0000 -0.618365819
O   O4        1.0  0.90480  0.35380  0.41890  1.0000 -0.618365819
O   O5        1.0  0.17950  0.76060  0.07030  1.0000 -0.651525075
O   O6        1.0  0.32050  0.23940  0.57030  1.0000 -0.651525075
O   O7        1.0  0.67950  0.73940  0.92970  1.0000 -0.651525075
O   O8        1.0  0.82050  0.26060  0.42970  1.0000 -0.651525075
O   O9        1.0  0.46530  0.78630  0.93510  1.0000 -0.6370607935
O   O10       1.0  0.03470  0.21370  0.43510  1.0000 -0.6370607935
O   O11       1.0  0.96530  0.71370  0.06490  1.0000 -0.6370607935
O   O12       1.0  0.53470  0.28630  0.56490  1.0000 -0.6370607935
O   O13       1.0  0.55040  0.87320  0.95840  1.0000 -0.5911465086
O   O14       1.0  0.94960  0.12680  0.45840  1.0000 -0.5911465086
O   O15       1.0  0.05040  0.62680  0.04160  1.0000 -0.5911465086
O   O16       1.0  0.44960  0.37320  0.54160  1.0000 -0.5911465086
O   O17       1.0  0.37920  0.06840  0.95430  1.0000 -0.3936868853
O   O18       1.0  0.12080  0.93160  0.45430  1.0000 -0.3936868853
O   O19       1.0  0.87920  0.43160  0.04570  1.0000 -0.3936868853
O   O20       1.0  0.62080  0.56840  0.54570  1.0000 -0.3936868853
O   O21       1.0  0.65470  0.16790  0.40230  1.0000 -0.5911465086
O   O22       1.0  0.84530  0.83210  0.90230  1.0000 -0.5911465086
O   O23       1.0  0.15470  0.33210  0.59770  1.0000 -0.5911465086
O   O24       1.0  0.34530  0.66790  0.09770  1.0000 -0.5911465086
O   O25       1.0  0.56950  0.17340  0.49060  1.0000 -0.6370607935
O   O26       1.0  0.93050  0.82660  0.99060  1.0000 -0.6370607935
O   O27       1.0  0.06950  0.32660  0.50940  1.0000 -0.6370607935
O   O28       1.0  0.43050  0.67340  0.00940  1.0000 -0.6370607935
O   O29       1.0  0.28480  0.31900  0.46590  1.0000 -0.6555194802
O   O30       1.0  0.21520  0.68100  0.96590  1.0000 -0.6555194802
O   O31       1.0  0.78480  0.18100  0.53410  1.0000 -0.6555194802
O   O32       1.0  0.71520  0.81900  0.03410  1.0000 -0.6555194802
O   O33       1.0  0.19850  0.29130  0.38200  1.0000 -0.5963700361
O   O34       1.0  0.30150  0.70870  0.88200  1.0000 -0.5963700361
O   O35       1.0  0.69850  0.20870  0.61800  1.0000 -0.5963700361
O   O36       1.0  0.80150  0.79130  0.11800  1.0000 -0.5963700361
O   O37       1.0  0.37920  0.30440  0.19990  1.0000 -0.478310088
O   O38       1.0  0.12080  0.69560  0.69990  1.0000 -0.478310088
O   O39       1.0  0.87920  0.19560  0.80010  1.0000 -0.478310088
O   O40       1.0  0.62080  0.80440  0.30010  1.0000 -0.478310088
O   O41       1.0  0.32210  0.43240  0.64550  1.0000 -0.5813846237
O   O42       1.0  0.17790  0.56760  0.14550  1.0000 -0.5813846237
O   O43       1.0  0.82210  0.06760  0.35450  1.0000 -0.5813846237
O   O44       1.0  0.67790  0.93240  0.85450  1.0000 -0.5813846237
O   O45       1.0  0.35270  0.32890  0.67050  1.0000 -0.618365819
O   O46       1.0  0.14730  0.67110  0.17050  1.0000 -0.618365819
O   O47       1.0  0.85270  0.17110  0.32950  1.0000 -0.618365819
O   O48       1.0  0.64730  0.82890  0.82950  1.0000 -0.618365819
O   O49       1.0  0.42950  0.60400  0.81820  1.0000 -0.618365819
O   O50       1.0  0.07050  0.39600  0.31820  1.0000 -0.618365819
O   O51       1.0  0.92950  0.89600  0.18180  1.0000 -0.618365819
O   O52       1.0  0.57050  0.10400  0.68180  1.0000 -0.618365819
O   O53       1.0  0.39440  0.57160  0.91630  1.0000 -0.5736836888
O   O54       1.0  0.10560  0.42840  0.41630  1.0000 -0.5736836888
O   O55       1.0  0.89440  0.92840  0.08370  1.0000 -0.5736836888
O   O56       1.0  0.60560  0.07160  0.58370  1.0000 -0.5736836888
O   O57       1.0  0.46580  0.37220  0.98210  1.0000 -0.5307709373
O   O58       1.0  0.03420  0.62780  0.48210  1.0000 -0.5307709373
O   O59       1.0  0.96580  0.12780  0.01790  1.0000 -0.5307709373
O   O60       1.0  0.53420  0.87220  0.51790  1.0000 -0.5307709373
