# DDEC6 charges by PACMAN v1.1 (https://github.com/mtap-research/PACMAN-charge/)
data_2013[Tb][nan]3[ASR]3
_chemical_formula_sum              "Tb8 H24 C72 O60"
_cell_length_a       8.5851
_cell_length_b       15.4118
_cell_length_c       28.0467
_cell_angle_alpha    90
_cell_angle_beta     90
_cell_angle_gamma    90

_symmetry_space_group_name_H-M    "P 1"
_symmetry_Int_Tables_number       1

loop_
  _symmetry_equiv_pos_as_xyz
  'x, y, z'

loop_
  _atom_site_type_symbol
  _atom_site_label
  _atom_site_symmetry_multiplicity
  _atom_site_fract_x
  _atom_site_fract_y
  _atom_site_fract_z
  _atom_site_occupancy
  _atom_site_charge
Tb  Tb1       1.0  0.94840  0.20242  0.58614  1.0000 2.0867152872
Tb  Tb2       1.0  0.55160  0.70242  0.41386  1.0000 2.0867152872
Tb  Tb3       1.0  0.44840  0.29758  0.91386  1.0000 2.0867152872
Tb  Tb4       1.0  0.05160  0.79758  0.08614  1.0000 2.0867152872
Tb  Tb5       1.0  0.05160  0.79758  0.41386  1.0000 2.0867152872
Tb  Tb6       1.0  0.44840  0.29758  0.58614  1.0000 2.0867152872
Tb  Tb7       1.0  0.55160  0.70242  0.08614  1.0000 2.0867152872
Tb  Tb8       1.0  0.94840  0.20242  0.91386  1.0000 2.0867152872
H   H1        1.0  0.08620  0.48480  0.59680  1.0000 0.1523535007
H   H2        1.0  0.41380  0.98480  0.40320  1.0000 0.1523535007
H   H3        1.0  0.58620  0.01520  0.90320  1.0000 0.1523535007
H   H4        1.0  0.91380  0.51520  0.09680  1.0000 0.1523535007
H   H5        1.0  0.91380  0.51520  0.40320  1.0000 0.1523535007
H   H6        1.0  0.58620  0.01520  0.59680  1.0000 0.1523535007
H   H7        1.0  0.41380  0.98480  0.09680  1.0000 0.1523535007
H   H8        1.0  0.08620  0.48480  0.90320  1.0000 0.1523535007
H   H9        1.0  0.11570  0.62430  0.55140  1.0000 0.1562392177
H   H10       1.0  0.38430  0.12430  0.44860  1.0000 0.1562392177
H   H11       1.0  0.61570  0.87570  0.94860  1.0000 0.1562392177
H   H12       1.0  0.88430  0.37570  0.05140  1.0000 0.1523535007
H   H13       1.0  0.88430  0.37570  0.44860  1.0000 0.1523535007
H   H14       1.0  0.61570  0.87570  0.55140  1.0000 0.1562392177
H   H15       1.0  0.38430  0.12430  0.05140  1.0000 0.1562392177
H   H16       1.0  0.11570  0.62430  0.94860  1.0000 0.1562392177
H   H17       1.0  0.34340  0.40660  0.70490  1.0000 0.1523535007
H   H18       1.0  0.15660  0.90660  0.29510  1.0000 0.1523535007
H   H19       1.0  0.84340  0.09340  0.79510  1.0000 0.1523535007
H   H20       1.0  0.65660  0.59340  0.20490  1.0000 0.1523535007
H   H21       1.0  0.65660  0.59340  0.29510  1.0000 0.1523535007
H   H22       1.0  0.84340  0.09340  0.70490  1.0000 0.1523535007
H   H23       1.0  0.15660  0.90660  0.20490  1.0000 0.1523535007
H   H24       1.0  0.34340  0.40660  0.79510  1.0000 0.1523535007
C   C1        1.0  0.85210  0.66480  0.48980  1.0000 0.6204159918
C   C2        1.0  0.64790  0.16480  0.51020  1.0000 0.6204159918
C   C3        1.0  0.35210  0.83520  0.01020  1.0000 0.6204159918
C   C4        1.0  0.14790  0.33520  0.98980  1.0000 0.6204159918
C   C5        1.0  0.14790  0.33520  0.51020  1.0000 0.6204159918
C   C6        1.0  0.35210  0.83520  0.48980  1.0000 0.6204159918
C   C7        1.0  0.64790  0.16480  0.98980  1.0000 0.6204159918
C   C8        1.0  0.85210  0.66480  0.01020  1.0000 0.6204159918
C   C9        1.0  0.79610  0.39420  0.57750  1.0000 0.598459615
C   C10       1.0  0.70390  0.89420  0.42250  1.0000 0.598459615
C   C11       1.0  0.29610  0.10580  0.92250  1.0000 0.598459615
C   C12       1.0  0.20390  0.60580  0.07750  1.0000 0.598459615
C   C13       1.0  0.20390  0.60580  0.42250  1.0000 0.598459615
C   C14       1.0  0.29610  0.10580  0.57750  1.0000 0.598459615
C   C15       1.0  0.70390  0.89420  0.07750  1.0000 0.598459615
C   C16       1.0  0.79610  0.39420  0.92250  1.0000 0.598459615
C   C17       1.0  0.89760  0.59890  0.52580  1.0000 0.0719219508
C   C18       1.0  0.60240  0.09890  0.47420  1.0000 0.0719219508
C   C19       1.0  0.39760  0.90110  0.97420  1.0000 0.0719219508
C   C20       1.0  0.10240  0.40110  0.02580  1.0000 0.0719219508
C   C21       1.0  0.10240  0.40110  0.47420  1.0000 0.0719219508
C   C22       1.0  0.39760  0.90110  0.52580  1.0000 0.0719219508
C   C23       1.0  0.60240  0.09890  0.02580  1.0000 0.0719219508
C   C24       1.0  0.89760  0.59890  0.97420  1.0000 0.0719219508
C   C25       1.0  0.01310  0.50970  0.57650  1.0000 -0.1798400618
C   C26       1.0  0.48690  0.00970  0.42350  1.0000 -0.1721206146
C   C27       1.0  0.51310  0.99030  0.92350  1.0000 -0.1721206146
C   C28       1.0  0.98690  0.49030  0.07650  1.0000 -0.1798400618
C   C29       1.0  0.98690  0.49030  0.42350  1.0000 -0.1798400618
C   C30       1.0  0.51310  0.99030  0.57650  1.0000 -0.1721206146
C   C31       1.0  0.48690  0.00970  0.07650  1.0000 -0.1721206146
C   C32       1.0  0.01310  0.50970  0.92350  1.0000 -0.1798400618
C   C33       1.0  0.02980  0.58760  0.55100  1.0000 -0.1798400618
C   C34       1.0  0.47020  0.08760  0.44900  1.0000 -0.1798400618
C   C35       1.0  0.52980  0.91240  0.94900  1.0000 -0.1798400618
C   C36       1.0  0.97020  0.41240  0.05100  1.0000 -0.1798400618
C   C37       1.0  0.97020  0.41240  0.44900  1.0000 -0.1798400618
C   C38       1.0  0.52980  0.91240  0.55100  1.0000 -0.1798400618
C   C39       1.0  0.47020  0.08760  0.05100  1.0000 -0.1798400618
C   C40       1.0  0.02980  0.58760  0.94900  1.0000 -0.1798400618
C   C41       1.0  0.14790  0.27010  0.66410  1.0000 0.5893813434
C   C42       1.0  0.35210  0.77010  0.33590  1.0000 0.5893813434
C   C43       1.0  0.64790  0.22990  0.83590  1.0000 0.5893813434
C   C44       1.0  0.85210  0.72990  0.16410  1.0000 0.5893813434
C   C45       1.0  0.85210  0.72990  0.33590  1.0000 0.5893813434
C   C46       1.0  0.64790  0.22990  0.66410  1.0000 0.5893813434
C   C47       1.0  0.35210  0.77010  0.16410  1.0000 0.5893813434
C   C48       1.0  0.14790  0.27010  0.83590  1.0000 0.5893813434
C   C49       1.0  0.19400  0.30440  0.71120  1.0000 0.0894145953
C   C50       1.0  0.30600  0.80440  0.28880  1.0000 0.0894145953
C   C51       1.0  0.69400  0.19560  0.78880  1.0000 0.0894145953
C   C52       1.0  0.80600  0.69560  0.21120  1.0000 0.0894145953
C   C53       1.0  0.80600  0.69560  0.28880  1.0000 0.0894145953
C   C54       1.0  0.69400  0.19560  0.71120  1.0000 0.0894145953
C   C55       1.0  0.30600  0.80440  0.21120  1.0000 0.0894145953
C   C56       1.0  0.19400  0.30440  0.78880  1.0000 0.0894145953
C   C57       1.0  0.28860  0.36910  0.72480  1.0000 -0.1721206146
C   C58       1.0  0.21140  0.86910  0.27520  1.0000 -0.1721206146
C   C59       1.0  0.78860  0.13090  0.77520  1.0000 -0.1721206146
C   C60       1.0  0.71140  0.63090  0.22480  1.0000 -0.1721206146
C   C61       1.0  0.71140  0.63090  0.27520  1.0000 -0.1721206146
C   C62       1.0  0.78860  0.13090  0.72480  1.0000 -0.1721206146
C   C63       1.0  0.21140  0.86910  0.22480  1.0000 -0.1721206146
C   C64       1.0  0.28860  0.36910  0.77520  1.0000 -0.1721206146
C   C65       1.0  0.86990  0.47760  0.56580  1.0000 0.0601329083
C   C66       1.0  0.63010  0.97760  0.43420  1.0000 0.0601329083
C   C67       1.0  0.36990  0.02240  0.93420  1.0000 0.0601329083
C   C68       1.0  0.13010  0.52240  0.06580  1.0000 0.0601329083
C   C69       1.0  0.13010  0.52240  0.43420  1.0000 0.0601329083
C   C70       1.0  0.36990  0.02240  0.56580  1.0000 0.0601329083
C   C71       1.0  0.63010  0.97760  0.06580  1.0000 0.0601329083
C   C72       1.0  0.86990  0.47760  0.93420  1.0000 0.0601329083
O   O1        1.0  0.71540  0.66140  0.47420  1.0000 -0.660753203
O   O2        1.0  0.78460  0.16140  0.52580  1.0000 -0.660753203
O   O3        1.0  0.21540  0.83860  0.02580  1.0000 -0.660753203
O   O4        1.0  0.28460  0.33860  0.97420  1.0000 -0.660753203
O   O5        1.0  0.28460  0.33860  0.52580  1.0000 -0.660753203
O   O6        1.0  0.21540  0.83860  0.47420  1.0000 -0.660753203
O   O7        1.0  0.78460  0.16140  0.97420  1.0000 -0.660753203
O   O8        1.0  0.71540  0.66140  0.02580  1.0000 -0.660753203
O   O9        1.0  0.95630  0.71690  0.47803  1.0000 -0.6427700905
O   O10       1.0  0.54370  0.21690  0.52197  1.0000 -0.6427700905
O   O11       1.0  0.45630  0.78310  0.02197  1.0000 -0.6427700905
O   O12       1.0  0.04370  0.28310  0.97803  1.0000 -0.6427700905
O   O13       1.0  0.04370  0.28310  0.52197  1.0000 -0.6427700905
O   O14       1.0  0.45630  0.78310  0.47803  1.0000 -0.6427700905
O   O15       1.0  0.54370  0.21690  0.97803  1.0000 -0.6427700905
O   O16       1.0  0.95630  0.71690  0.02197  1.0000 -0.6427700905
O   O17       1.0  0.79560  0.53290  0.53465  1.0000 -0.0626683521
O   O18       1.0  0.70440  0.03290  0.46535  1.0000 -0.0626683521
O   O19       1.0  0.29560  0.96710  0.96535  1.0000 -0.0626683521
O   O20       1.0  0.20440  0.46710  0.03465  1.0000 -0.0700947077
O   O21       1.0  0.20440  0.46710  0.46535  1.0000 -0.0700947077
O   O22       1.0  0.29560  0.96710  0.53465  1.0000 -0.0626683521
O   O23       1.0  0.70440  0.03290  0.03465  1.0000 -0.0626683521
O   O24       1.0  0.79560  0.53290  0.96535  1.0000 -0.0626683521
O   O25       1.0  0.87560  0.34440  0.60301  1.0000 -0.6466181887
O   O26       1.0  0.62440  0.84440  0.39699  1.0000 -0.6466181887
O   O27       1.0  0.37560  0.15560  0.89699  1.0000 -0.6466181887
O   O28       1.0  0.12440  0.65560  0.10301  1.0000 -0.6466181887
O   O29       1.0  0.12440  0.65560  0.39699  1.0000 -0.6466181887
O   O30       1.0  0.37560  0.15560  0.60301  1.0000 -0.6466181887
O   O31       1.0  0.62440  0.84440  0.10301  1.0000 -0.6466181887
O   O32       1.0  0.87560  0.34440  0.89699  1.0000 -0.6466181887
O   O33       1.0  0.66320  0.37940  0.56106  1.0000 -0.660753203
O   O34       1.0  0.83680  0.87940  0.43894  1.0000 -0.660753203
O   O35       1.0  0.16320  0.12060  0.93894  1.0000 -0.660753203
O   O36       1.0  0.33680  0.62060  0.06106  1.0000 -0.660753203
O   O37       1.0  0.33680  0.62060  0.43894  1.0000 -0.660753203
O   O38       1.0  0.16320  0.12060  0.56106  1.0000 -0.660753203
O   O39       1.0  0.83680  0.87940  0.06106  1.0000 -0.660753203
O   O40       1.0  0.66320  0.37940  0.93894  1.0000 -0.660753203
O   O41       1.0  0.04980  0.20960  0.66257  1.0000 -0.6322159705
O   O42       1.0  0.45020  0.70960  0.33743  1.0000 -0.6322159705
O   O43       1.0  0.54980  0.29040  0.83743  1.0000 -0.6322159705
O   O44       1.0  0.95020  0.79040  0.16257  1.0000 -0.6322159705
O   O45       1.0  0.95020  0.79040  0.33743  1.0000 -0.6322159705
O   O46       1.0  0.54980  0.29040  0.66257  1.0000 -0.6322159705
O   O47       1.0  0.45020  0.70960  0.16257  1.0000 -0.6322159705
O   O48       1.0  0.04980  0.20960  0.83743  1.0000 -0.6322159705
O   O49       1.0  0.20680  0.30370  0.62736  1.0000 -0.7042263088
O   O50       1.0  0.29320  0.80370  0.37264  1.0000 -0.7042263088
O   O51       1.0  0.70680  0.19630  0.87264  1.0000 -0.7042263088
O   O52       1.0  0.79320  0.69630  0.12736  1.0000 -0.7042263088
O   O53       1.0  0.79320  0.69630  0.37264  1.0000 -0.7042263088
O   O54       1.0  0.70680  0.19630  0.62736  1.0000 -0.7042263088
O   O55       1.0  0.29320  0.80370  0.12736  1.0000 -0.7042263088
O   O56       1.0  0.20680  0.30370  0.87264  1.0000 -0.7042263088
O   O57       1.0  0.13420  0.26310  0.75000  1.0000 -0.0763595377
O   O58       1.0  0.36580  0.76310  0.25000  1.0000 -0.0700947077
O   O59       1.0  0.63420  0.23690  0.75000  1.0000 -0.0700947077
O   O60       1.0  0.86580  0.73690  0.25000  1.0000 -0.0763595377
