# DDEC6 charges by PACMAN v1.1 (https://github.com/mtap-research/PACMAN-charge/)
data_2013[Cd][pts]3[ASR]1
_chemical_formula_sum              "Cd2 H32 C56 O8"
_cell_length_a       17.3671
_cell_length_b       17.3671
_cell_length_c       7.8951
_cell_angle_alpha    83.593
_cell_angle_beta     96.407
_cell_angle_gamma    147.2

_symmetry_space_group_name_H-M    "P 1"
_symmetry_Int_Tables_number       1

loop_
  _symmetry_equiv_pos_as_xyz
  'x, y, z'

loop_
  _atom_site_type_symbol
  _atom_site_label
  _atom_site_symmetry_multiplicity
  _atom_site_fract_x
  _atom_site_fract_y
  _atom_site_fract_z
  _atom_site_occupancy
  _atom_site_charge
Cd  Cd1       1.0  0.47079  0.47079  0.25000  1.0000 1.0556188394
Cd  Cd2       1.0  0.52921  0.52921  0.75000  1.0000 1.0556188394
H   H1        1.0  0.67930  0.45730  0.70180  1.0000 0.1197528724
H   H2        1.0  0.45730  0.67930  0.79820  1.0000 0.1197528724
H   H3        1.0  0.32070  0.54270  0.29820  1.0000 0.1197528724
H   H4        1.0  0.54270  0.32070  0.20180  1.0000 0.1197528724
H   H5        1.0  0.69270  0.34790  0.85850  1.0000 0.1197528724
H   H6        1.0  0.34790  0.69270  0.64150  1.0000 0.1197528724
H   H7        1.0  0.30730  0.65210  0.14150  1.0000 0.1197528724
H   H8        1.0  0.65210  0.30730  0.35850  1.0000 0.1197528724
H   H9        1.0  0.28890  0.96850  0.72420  1.0000 0.1197528724
H   H10       1.0  0.96850  0.28890  0.77580  1.0000 0.1197528724
H   H11       1.0  0.71110  0.03150  0.27580  1.0000 0.1197528724
H   H12       1.0  0.03150  0.71110  0.22420  1.0000 0.1197528724
H   H13       1.0  0.27690  0.07790  0.56370  1.0000 0.1197528724
H   H14       1.0  0.07790  0.27690  0.93630  1.0000 0.1197528724
H   H15       1.0  0.72310  0.92210  0.43630  1.0000 0.1197528724
H   H16       1.0  0.92210  0.72310  0.06370  1.0000 0.1197528724
H   H17       1.0  0.62280  0.17200  0.61090  1.0000 0.1111028412
H   H18       1.0  0.17200  0.62280  0.88910  1.0000 0.1111028412
H   H19       1.0  0.37720  0.82800  0.38910  1.0000 0.1111028412
H   H20       1.0  0.82800  0.37720  0.11090  1.0000 0.1111028412
H   H21       1.0  0.71960  0.15100  0.50160  1.0000 0.1111028412
H   H22       1.0  0.15100  0.71960  0.99840  1.0000 0.1111028412
H   H23       1.0  0.28040  0.84900  0.49840  1.0000 0.1111028412
H   H24       1.0  0.84900  0.28040  0.00160  1.0000 0.1111028412
H   H25       1.0  0.72110  0.02930  0.65510  1.0000 0.1111028412
H   H26       1.0  0.02930  0.72110  0.84490  1.0000 0.1111028412
H   H27       1.0  0.27890  0.97070  0.34490  1.0000 0.1111028412
H   H28       1.0  0.97070  0.27890  0.15510  1.0000 0.1111028412
H   H29       1.0  0.37380  0.06900  0.08290  1.0000 0.1197528724
H   H30       1.0  0.06900  0.37380  0.41710  1.0000 0.1197528724
H   H31       1.0  0.62620  0.93100  0.91710  1.0000 0.1197528724
H   H32       1.0  0.93100  0.62620  0.58290  1.0000 0.1197528724
C   C1        1.0  0.47470  0.35230  0.50410  1.0000 0.5617952515
C   C2        1.0  0.35230  0.47470  0.99590  1.0000 0.5617952515
C   C3        1.0  0.52530  0.64770  0.49590  1.0000 0.5617952515
C   C4        1.0  0.64770  0.52530  0.00410  1.0000 0.5617952515
C   C5        1.0  0.47745  0.27875  0.61460  1.0000 -0.0320527732
C   C6        1.0  0.27875  0.47745  0.88540  1.0000 -0.0320527732
C   C7        1.0  0.52255  0.72125  0.38540  1.0000 -0.0320527732
C   C8        1.0  0.72125  0.52255  0.11460  1.0000 -0.0320527732
C   C9        1.0  0.60087  0.35873  0.70460  1.0000 -0.1014750711
C   C10       1.0  0.35873  0.60087  0.79540  1.0000 -0.1014750711
C   C11       1.0  0.39913  0.64127  0.29540  1.0000 -0.1014750711
C   C12       1.0  0.64127  0.39913  0.20460  1.0000 -0.1014750711
C   C13       1.0  0.60862  0.29298  0.79930  1.0000 -0.1516762667
C   C14       1.0  0.29298  0.60862  0.70070  1.0000 -0.1516762667
C   C15       1.0  0.39138  0.70702  0.20070  1.0000 -0.1516762667
C   C16       1.0  0.70702  0.39138  0.29930  1.0000 -0.1516762667
C   C17       1.0  0.49248  0.14672  0.80600  1.0000 0.0816848893
C   C18       1.0  0.14672  0.49248  0.69400  1.0000 0.0816848893
C   C19       1.0  0.50752  0.85328  0.19400  1.0000 0.0816848893
C   C20       1.0  0.85328  0.50752  0.30600  1.0000 0.0816848893
C   C21       1.0  0.36840  0.06720  0.71870  1.0000 -0.1516762667
C   C22       1.0  0.06720  0.36840  0.78130  1.0000 -0.1516762667
C   C23       1.0  0.63160  0.93280  0.28130  1.0000 -0.1516762667
C   C24       1.0  0.93280  0.63160  0.21870  1.0000 -0.1516762667
C   C25       1.0  0.36099  0.13281  0.62280  1.0000 -0.1014750711
C   C26       1.0  0.13281  0.36099  0.87720  1.0000 -0.1014750711
C   C27       1.0  0.63901  0.86719  0.37720  1.0000 -0.1014750711
C   C28       1.0  0.86719  0.63901  0.12280  1.0000 -0.1014750711
C   C29       1.0  0.49885  0.07335  0.90690  1.0000 -0.0320527732
C   C30       1.0  0.07335  0.49885  0.59310  1.0000 -0.0320527732
C   C31       1.0  0.50115  0.92665  0.09310  1.0000 -0.0320527732
C   C32       1.0  0.92665  0.50115  0.40690  1.0000 -0.0320527732
C   C33       1.0  0.43834  0.01186  0.06730  1.0000 0.0324158408
C   C34       1.0  0.01186  0.43834  0.43270  1.0000 0.0324158408
C   C35       1.0  0.56166  0.98814  0.93270  1.0000 0.0324158408
C   C36       1.0  0.98814  0.56166  0.56730  1.0000 0.0324158408
C   C37       1.0  0.56037  0.06303  0.83750  1.0000 0.0324158408
C   C38       1.0  0.06303  0.56037  0.66250  1.0000 0.0324158408
C   C39       1.0  0.43963  0.93697  0.16250  1.0000 0.0324158408
C   C40       1.0  0.93697  0.43963  0.33750  1.0000 0.0324158408
C   C41       1.0  0.62224  0.12296  0.67420  1.0000 -0.1379659157
C   C42       1.0  0.12296  0.62224  0.82580  1.0000 -0.1379659157
C   C43       1.0  0.37776  0.87704  0.32580  1.0000 -0.1379659157
C   C44       1.0  0.87704  0.37776  0.17420  1.0000 -0.1379659157
C   C45       1.0  0.68022  0.11078  0.60860  1.0000 -0.1014750711
C   C46       1.0  0.11078  0.68022  0.89140  1.0000 -0.1014750711
C   C47       1.0  0.31978  0.88922  0.39140  1.0000 -0.1014750711
C   C48       1.0  0.88922  0.31978  0.10860  1.0000 -0.1014750711
C   C49       1.0  0.68119  0.03741  0.70130  1.0000 -0.1014750711
C   C50       1.0  0.03741  0.68119  0.79870  1.0000 -0.1014750711
C   C51       1.0  0.31881  0.96259  0.29870  1.0000 -0.1014750711
C   C52       1.0  0.96259  0.31881  0.20130  1.0000 -0.1014750711
C   C53       1.0  0.37572  0.02128  0.14260  1.0000 -0.1516762667
C   C54       1.0  0.02128  0.37572  0.35740  1.0000 -0.1516762667
C   C55       1.0  0.62428  0.97872  0.85740  1.0000 -0.1516762667
C   C56       1.0  0.97872  0.62428  0.64260  1.0000 -0.1516762667
O   O1        1.0  0.37927  0.28393  0.38800  1.0000 -0.5150233935
O   O2        1.0  0.28393  0.37927  0.11200  1.0000 -0.5150233935
O   O3        1.0  0.62073  0.71607  0.61200  1.0000 -0.5150233935
O   O4        1.0  0.71607  0.62073  0.88800  1.0000 -0.5150233935
O   O5        1.0  0.56886  0.48094  0.52630  1.0000 -0.5901701878
O   O6        1.0  0.48094  0.56886  0.97370  1.0000 -0.5901701878
O   O7        1.0  0.43114  0.51906  0.47370  1.0000 -0.5901701878
O   O8        1.0  0.51906  0.43114  0.02630  1.0000 -0.5901701878
