# DDEC6 charges by PACMAN v1.1 (https://github.com/mtap-research/PACMAN-charge/)
data_2013[Cu][sqc]2[ASR]2
_chemical_formula_sum              "Cu24 H64 C96 S8 N48 O64"
_cell_length_a       10.4774
_cell_length_b       21.9744
_cell_length_c       20.0445
_cell_angle_alpha    90
_cell_angle_beta     107.295
_cell_angle_gamma    90

_symmetry_space_group_name_H-M    "P 1"
_symmetry_Int_Tables_number       1

loop_
  _symmetry_equiv_pos_as_xyz
  'x, y, z'

loop_
  _atom_site_type_symbol
  _atom_site_label
  _atom_site_symmetry_multiplicity
  _atom_site_fract_x
  _atom_site_fract_y
  _atom_site_fract_z
  _atom_site_occupancy
  _atom_site_charge
Cu  Cu1       1.0  0.66629  0.19474  0.58476  1.0000 0.8290976251
Cu  Cu2       1.0  0.33371  0.69474  0.91524  1.0000 0.8290976251
Cu  Cu3       1.0  0.33371  0.80526  0.41524  1.0000 0.8290976251
Cu  Cu4       1.0  0.66629  0.30526  0.08476  1.0000 0.8290976251
Cu  Cu5       1.0  0.38443  0.24104  0.62738  1.0000 0.6630535984
Cu  Cu6       1.0  0.61557  0.74104  0.87262  1.0000 0.6630535984
Cu  Cu7       1.0  0.61557  0.75896  0.37262  1.0000 0.6630535984
Cu  Cu8       1.0  0.38443  0.25896  0.12738  1.0000 0.6630535984
Cu  Cu9       1.0  0.43724  0.28448  0.31323  1.0000 0.6286277736
Cu  Cu10      1.0  0.56276  0.78448  0.18677  1.0000 0.6286277736
Cu  Cu11      1.0  0.56276  0.71552  0.68677  1.0000 0.6286277736
Cu  Cu12      1.0  0.43724  0.21552  0.81323  1.0000 0.6286277736
Cu  Cu13      1.0  0.41030  0.25775  0.46874  1.0000 0.7706549132
Cu  Cu14      1.0  0.58970  0.75775  0.03126  1.0000 0.7706549132
Cu  Cu15      1.0  0.58970  0.74225  0.53126  1.0000 0.7706549132
Cu  Cu16      1.0  0.41030  0.24225  0.96874  1.0000 0.7706549132
Cu  Cu17      1.0  0.15596  0.32331  0.34832  1.0000 0.7407481039
Cu  Cu18      1.0  0.84404  0.82331  0.15168  1.0000 0.7407481039
Cu  Cu19      1.0  0.84404  0.67669  0.65168  1.0000 0.7407481039
Cu  Cu20      1.0  0.15596  0.17669  0.84832  1.0000 0.7407481039
Cu  Cu21      1.0  0.47955  0.53896  0.17463  1.0000 0.7200663452
Cu  Cu22      1.0  0.52045  0.03896  0.32537  1.0000 0.726318177
Cu  Cu23      1.0  0.52045  0.46104  0.82537  1.0000 0.7200663452
Cu  Cu24      1.0  0.47955  0.96104  0.67463  1.0000 0.7200663452
H   H1        1.0  0.54760  0.29090  0.58160  1.0000 0.3680782506
H   H2        1.0  0.45240  0.79090  0.91840  1.0000 0.3680782506
H   H3        1.0  0.45240  0.70910  0.41840  1.0000 0.3680782506
H   H4        1.0  0.54760  0.20910  0.08160  1.0000 0.3680782506
H   H5        1.0  0.27650  0.22420  0.35440  1.0000 0.4136983717
H   H6        1.0  0.72350  0.72420  0.14560  1.0000 0.4136983717
H   H7        1.0  0.72350  0.77580  0.64560  1.0000 0.4136983717
H   H8        1.0  0.27650  0.27580  0.85440  1.0000 0.4136983717
H   H9        1.0  0.75120  0.22330  0.35340  1.0000 0.1500468358
H   H10       1.0  0.24880  0.72330  0.14660  1.0000 0.1500468358
H   H11       1.0  0.24880  0.77670  0.64660  1.0000 0.1500468358
H   H12       1.0  0.75120  0.27670  0.85340  1.0000 0.1500468358
H   H13       1.0  0.85400  0.18940  0.47440  1.0000 0.1500468358
H   H14       1.0  0.14600  0.68940  0.02560  1.0000 0.1500468358
H   H15       1.0  0.14600  0.81060  0.52560  1.0000 0.1500468358
H   H16       1.0  0.85400  0.31060  0.97440  1.0000 0.1500468358
H   H17       1.0  0.07270  0.29690  0.09220  1.0000 0.1425142327
H   H18       1.0  0.92730  0.79690  0.40780  1.0000 0.1425142327
H   H19       1.0  0.92730  0.70310  0.90780  1.0000 0.1425142327
H   H20       1.0  0.07270  0.20310  0.59220  1.0000 0.1425142327
H   H21       1.0  0.97410  0.32530  0.18440  1.0000 0.1500468358
H   H22       1.0  0.02590  0.82530  0.31560  1.0000 0.1500468358
H   H23       1.0  0.02590  0.67470  0.81560  1.0000 0.1500468358
H   H24       1.0  0.97410  0.17470  0.68440  1.0000 0.1500468358
H   H25       1.0  0.10430  0.33260  0.59030  1.0000 0.1425142327
H   H26       1.0  0.89570  0.83260  0.90970  1.0000 0.1425142327
H   H27       1.0  0.89570  0.66740  0.40970  1.0000 0.1425142327
H   H28       1.0  0.10430  0.16740  0.09030  1.0000 0.1425142327
H   H29       1.0  0.00690  0.36570  0.47000  1.0000 0.1425142327
H   H30       1.0  0.99310  0.86570  0.03000  1.0000 0.1425142327
H   H31       1.0  0.99310  0.63430  0.53000  1.0000 0.1425142327
H   H32       1.0  0.00690  0.13430  0.97000  1.0000 0.1425142327
H   H33       1.0  0.70320  0.13760  0.82940  1.0000 0.1425142327
H   H34       1.0  0.29680  0.63760  0.67060  1.0000 0.1425142327
H   H35       1.0  0.29680  0.86240  0.17060  1.0000 0.1425142327
H   H36       1.0  0.70320  0.36240  0.32940  1.0000 0.1425142327
H   H37       1.0  0.80170  0.12540  0.73200  1.0000 0.1425142327
H   H38       1.0  0.19830  0.62540  0.76800  1.0000 0.1425142327
H   H39       1.0  0.19830  0.87460  0.26800  1.0000 0.1425142327
H   H40       1.0  0.80170  0.37460  0.23200  1.0000 0.1425142327
H   H41       1.0  0.87940  0.48270  0.26990  1.0000 0.1302704105
H   H42       1.0  0.12060  0.98270  0.23010  1.0000 0.1302704105
H   H43       1.0  0.12060  0.51730  0.73010  1.0000 0.1302704105
H   H44       1.0  0.87940  0.01730  0.76990  1.0000 0.1302704105
H   H45       1.0  0.94740  0.66240  0.26620  1.0000 0.1302704105
H   H46       1.0  0.05260  0.16240  0.23380  1.0000 0.1302704105
H   H47       1.0  0.05260  0.33760  0.73380  1.0000 0.1302704105
H   H48       1.0  0.94740  0.83760  0.76620  1.0000 0.1302704105
H   H49       1.0  0.25150  0.54810  0.34980  1.0000 0.1425142327
H   H50       1.0  0.74850  0.04810  0.15020  1.0000 0.1425142327
H   H51       1.0  0.74850  0.45190  0.65020  1.0000 0.1425142327
H   H52       1.0  0.25150  0.95190  0.84980  1.0000 0.1425142327
H   H53       1.0  0.01420  0.42800  0.13030  1.0000 0.1234280432
H   H54       1.0  0.98580  0.92800  0.36970  1.0000 0.1234280432
H   H55       1.0  0.98580  0.57200  0.86970  1.0000 0.1234280432
H   H56       1.0  0.01420  0.07200  0.63030  1.0000 0.1234280432
H   H57       1.0  0.69750  0.52810  0.02340  1.0000 0.1500468358
H   H58       1.0  0.30250  0.02810  0.47660  1.0000 0.1500468358
H   H59       1.0  0.30250  0.47190  0.97660  1.0000 0.1500468358
H   H60       1.0  0.69750  0.97190  0.52340  1.0000 0.1500468358
H   H61       1.0  0.06130  0.60440  0.09140  1.0000 0.1302704105
H   H62       1.0  0.93870  0.10440  0.40860  1.0000 0.1302704105
H   H63       1.0  0.93870  0.39560  0.90860  1.0000 0.1302704105
H   H64       1.0  0.06130  0.89560  0.59140  1.0000 0.1302704105
C   C1        1.0  0.71160  0.22400  0.38920  1.0000 -0.0201005538
C   C2        1.0  0.28840  0.72400  0.11080  1.0000 -0.0201005538
C   C3        1.0  0.28840  0.77600  0.61080  1.0000 -0.0201005538
C   C4        1.0  0.71160  0.27600  0.88920  1.0000 -0.0201005538
C   C5        1.0  0.76850  0.20530  0.45620  1.0000 0.0022853396
C   C6        1.0  0.23150  0.70530  0.04380  1.0000 0.0022853396
C   C7        1.0  0.23150  0.79470  0.54380  1.0000 0.0022853396
C   C8        1.0  0.76850  0.29470  0.95620  1.0000 0.0022853396
C   C9        1.0  0.11750  0.29930  0.13970  1.0000 0.0070699739
C   C10       1.0  0.88250  0.79930  0.36030  1.0000 0.0070699739
C   C11       1.0  0.88250  0.70070  0.86030  1.0000 0.0070699739
C   C12       1.0  0.11750  0.20070  0.63970  1.0000 0.0070699739
C   C13       1.0  0.06300  0.31520  0.19040  1.0000 -0.0025520208
C   C14       1.0  0.93700  0.81520  0.30960  1.0000 -0.0025520208
C   C15       1.0  0.93700  0.68480  0.80960  1.0000 -0.0025520208
C   C16       1.0  0.06300  0.18480  0.69040  1.0000 -0.0025520208
C   C17       1.0  0.13940  0.32560  0.55350  1.0000 -0.027467168
C   C18       1.0  0.86060  0.82560  0.94650  1.0000 -0.027467168
C   C19       1.0  0.86060  0.67440  0.44650  1.0000 -0.027467168
C   C20       1.0  0.13940  0.17440  0.05350  1.0000 -0.027467168
C   C21       1.0  0.08630  0.34420  0.48720  1.0000 -0.027467168
C   C22       1.0  0.91370  0.84420  0.01280  1.0000 -0.027467168
C   C23       1.0  0.91370  0.65580  0.51280  1.0000 -0.027467168
C   C24       1.0  0.08630  0.15580  0.98720  1.0000 -0.027467168
C   C25       1.0  0.66710  0.15190  0.78390  1.0000 -0.0201005538
C   C26       1.0  0.33290  0.65190  0.71610  1.0000 -0.0201005538
C   C27       1.0  0.33290  0.84810  0.21610  1.0000 -0.0201005538
C   C28       1.0  0.66710  0.34810  0.28390  1.0000 -0.0201005538
C   C29       1.0  0.72210  0.14500  0.73010  1.0000 -0.0025520208
C   C30       1.0  0.27790  0.64500  0.76990  1.0000 -0.0095532117
C   C31       1.0  0.27790  0.85500  0.26990  1.0000 -0.0095532117
C   C32       1.0  0.72210  0.35500  0.23010  1.0000 -0.0095532117
C   C33       1.0  0.07200  0.50530  0.31450  1.0000 0.0070699739
C   C34       1.0  0.92800  0.00530  0.18550  1.0000 0.0070699739
C   C35       1.0  0.92800  0.49470  0.68550  1.0000 0.0070699739
C   C36       1.0  0.07200  0.99470  0.81450  1.0000 0.0070699739
C   C37       1.0  0.93830  0.51540  0.28070  1.0000 -0.1000761164
C   C38       1.0  0.06170  0.01540  0.21930  1.0000 -0.1000761164
C   C39       1.0  0.06170  0.48460  0.71930  1.0000 -0.1000761164
C   C40       1.0  0.93830  0.98460  0.78070  1.0000 -0.1000761164
C   C41       1.0  0.89130  0.57400  0.26280  1.0000 -0.0025520208
C   C42       1.0  0.10870  0.07400  0.23720  1.0000 -0.0025520208
C   C43       1.0  0.10870  0.42600  0.73720  1.0000 -0.0025520208
C   C44       1.0  0.89130  0.92600  0.76280  1.0000 -0.0025520208
C   C45       1.0  0.97860  0.62300  0.27800  1.0000 -0.1090846423
C   C46       1.0  0.02140  0.12300  0.22200  1.0000 -0.1090846423
C   C47       1.0  0.02140  0.37700  0.72200  1.0000 -0.1090846423
C   C48       1.0  0.97860  0.87700  0.77800  1.0000 -0.1090846423
C   C49       1.0  0.11310  0.61250  0.31120  1.0000 -0.0704865435
C   C50       1.0  0.88690  0.11250  0.18880  1.0000 -0.0704865435
C   C51       1.0  0.88690  0.38750  0.68880  1.0000 -0.0704865435
C   C52       1.0  0.11310  0.88750  0.81120  1.0000 -0.0704865435
C   C53       1.0  0.16080  0.55450  0.32870  1.0000 -0.0917928645
C   C54       1.0  0.83920  0.05450  0.17130  1.0000 -0.0917928645
C   C55       1.0  0.83920  0.44550  0.67130  1.0000 -0.0917928645
C   C56       1.0  0.16080  0.94550  0.82870  1.0000 -0.0917928645
C   C57       1.0  0.12830  0.44280  0.33630  1.0000 0.5609749669
C   C58       1.0  0.87170  0.94280  0.16370  1.0000 0.5609749669
C   C59       1.0  0.87170  0.55720  0.66370  1.0000 0.5609749669
C   C60       1.0  0.12830  0.05720  0.83630  1.0000 0.5609749669
C   C61       1.0  0.74490  0.58560  0.22740  1.0000 0.5609749669
C   C62       1.0  0.25510  0.08560  0.27260  1.0000 0.5609749669
C   C63       1.0  0.25510  0.41440  0.77260  1.0000 0.5609749669
C   C64       1.0  0.74490  0.91440  0.72740  1.0000 0.5609749669
C   C65       1.0  0.06060  0.51490  0.11630  1.0000 0.0070699739
C   C66       1.0  0.93940  0.01490  0.38370  1.0000 0.0070699739
C   C67       1.0  0.93940  0.48510  0.88370  1.0000 0.0070699739
C   C68       1.0  0.06060  0.98510  0.61630  1.0000 0.0070699739
C   C69       1.0  0.97830  0.46490  0.11060  1.0000 -0.1090846423
C   C70       1.0  0.02170  0.96490  0.38940  1.0000 -0.1090846423
C   C71       1.0  0.02170  0.53510  0.88940  1.0000 -0.1090846423
C   C72       1.0  0.97830  0.03510  0.61060  1.0000 -0.1090846423
C   C73       1.0  0.84190  0.46890  0.07550  1.0000 0.0022853396
C   C74       1.0  0.15810  0.96890  0.42450  1.0000 0.0022853396
C   C75       1.0  0.15810  0.53110  0.92450  1.0000 0.0022853396
C   C76       1.0  0.84190  0.03110  0.57550  1.0000 0.0022853396
C   C77       1.0  0.78800  0.52470  0.04690  1.0000 -0.1000761164
C   C78       1.0  0.21200  0.02470  0.45310  1.0000 -0.1000761164
C   C79       1.0  0.21200  0.47530  0.95310  1.0000 -0.1000761164
C   C80       1.0  0.78800  0.97530  0.54690  1.0000 -0.1000761164
C   C81       1.0  0.87050  0.57460  0.05410  1.0000 -0.057586191
C   C82       1.0  0.12950  0.07460  0.44590  1.0000 -0.057586191
C   C83       1.0  0.12950  0.42540  0.94590  1.0000 -0.057586191
C   C84       1.0  0.87050  0.92540  0.55410  1.0000 -0.057586191
C   C85       1.0  0.00660  0.57050  0.08780  1.0000 -0.0917928645
C   C86       1.0  0.99340  0.07050  0.41220  1.0000 -0.0917928645
C   C87       1.0  0.99340  0.42950  0.91220  1.0000 -0.0917928645
C   C88       1.0  0.00660  0.92950  0.58780  1.0000 -0.0917928645
C   C89       1.0  0.20720  0.50820  0.15590  1.0000 0.5500181282
C   C90       1.0  0.79280  0.00820  0.34410  1.0000 0.5500181282
C   C91       1.0  0.79280  0.49180  0.84410  1.0000 0.5500181282
C   C92       1.0  0.20720  0.99180  0.65590  1.0000 0.5500181282
C   C93       1.0  0.75290  0.41530  0.06920  1.0000 0.5360658283
C   C94       1.0  0.24710  0.91530  0.43080  1.0000 0.5360658283
C   C95       1.0  0.24710  0.58470  0.93080  1.0000 0.5360658283
C   C96       1.0  0.75290  0.08470  0.56920  1.0000 0.5360658283
S   S1        1.0  0.79941  0.64529  0.02091  1.0000 1.150168018
S   S2        1.0  0.20059  0.14529  0.47909  1.0000 1.150168018
S   S3        1.0  0.20059  0.35471  0.97909  1.0000 1.150168018
S   S4        1.0  0.79941  0.85471  0.52091  1.0000 1.150168018
S   S5        1.0  0.22540  0.67492  0.32695  1.0000 1.150168018
S   S6        1.0  0.77460  0.17492  0.17305  1.0000 1.1448829139
S   S7        1.0  0.77460  0.32508  0.67305  1.0000 1.150168018
S   S8        1.0  0.22540  0.82508  0.82695  1.0000 1.1448829139
N   N1        1.0  0.67920  0.21400  0.49100  1.0000 -0.1501577066
N   N2        1.0  0.32080  0.71400  0.00900  1.0000 -0.1501577066
N   N3        1.0  0.32080  0.78600  0.50900  1.0000 -0.1501577066
N   N4        1.0  0.67920  0.28600  0.99100  1.0000 -0.1501577066
N   N5        1.0  0.57030  0.23720  0.44600  1.0000 -0.027467168
N   N6        1.0  0.42970  0.73720  0.05400  1.0000 -0.027467168
N   N7        1.0  0.42970  0.76280  0.55400  1.0000 -0.027467168
N   N8        1.0  0.57030  0.26280  0.94600  1.0000 -0.027467168
N   N9        1.0  0.58720  0.24390  0.38430  1.0000 -0.1501577066
N   N10       1.0  0.41280  0.74390  0.11570  1.0000 -0.1501577066
N   N11       1.0  0.41280  0.75610  0.61570  1.0000 -0.1501577066
N   N12       1.0  0.58720  0.25610  0.88430  1.0000 -0.1501577066
N   N13       1.0  0.16160  0.31380  0.25140  1.0000 -0.1610193325
N   N14       1.0  0.83840  0.81380  0.24860  1.0000 -0.1610193325
N   N15       1.0  0.83840  0.68620  0.74860  1.0000 -0.1610193325
N   N16       1.0  0.16160  0.18620  0.75140  1.0000 -0.1610193325
N   N17       1.0  0.27240  0.29680  0.23780  1.0000 -0.0201005538
N   N18       1.0  0.72760  0.79680  0.26220  1.0000 -0.0201005538
N   N19       1.0  0.72760  0.70320  0.76220  1.0000 -0.0201005538
N   N20       1.0  0.27240  0.20320  0.73780  1.0000 -0.0201005538
N   N21       1.0  0.24700  0.28770  0.16970  1.0000 -0.1438939085
N   N22       1.0  0.75300  0.78770  0.33030  1.0000 -0.1438939085
N   N23       1.0  0.75300  0.71230  0.83030  1.0000 -0.1438939085
N   N24       1.0  0.24700  0.21230  0.66970  1.0000 -0.1438939085
N   N25       1.0  0.16830  0.32640  0.44980  1.0000 -0.166085433
N   N26       1.0  0.83170  0.82640  0.05020  1.0000 -0.166085433
N   N27       1.0  0.83170  0.67360  0.55020  1.0000 -0.166085433
N   N28       1.0  0.16830  0.17360  0.94980  1.0000 -0.166085433
N   N29       1.0  0.26770  0.29640  0.49410  1.0000 -0.0095532117
N   N30       1.0  0.73230  0.79640  0.00590  1.0000 -0.0095532117
N   N31       1.0  0.73230  0.70360  0.50590  1.0000 -0.0095532117
N   N32       1.0  0.26770  0.20360  0.99410  1.0000 -0.0095532117
N   N33       1.0  0.25340  0.29480  0.55750  1.0000 -0.1501577066
N   N34       1.0  0.74660  0.79480  0.94250  1.0000 -0.1501577066
N   N35       1.0  0.74660  0.70520  0.44250  1.0000 -0.1501577066
N   N36       1.0  0.25340  0.20520  0.05750  1.0000 -0.1501577066
N   N37       1.0  0.63800  0.17220  0.67420  1.0000 -0.1501577066
N   N38       1.0  0.36200  0.67220  0.82580  1.0000 -0.1501577066
N   N39       1.0  0.36200  0.82780  0.32580  1.0000 -0.1501577066
N   N40       1.0  0.63800  0.32780  0.17420  1.0000 -0.1501577066
N   N41       1.0  0.53620  0.19500  0.69300  1.0000 -0.0201005538
N   N42       1.0  0.46380  0.69500  0.80700  1.0000 -0.0201005538
N   N43       1.0  0.46380  0.80500  0.30700  1.0000 -0.0201005538
N   N44       1.0  0.53620  0.30500  0.19300  1.0000 -0.0201005538
N   N45       1.0  0.55310  0.18250  0.75960  1.0000 -0.1610193325
N   N46       1.0  0.44690  0.68250  0.74040  1.0000 -0.1610193325
N   N47       1.0  0.44690  0.81750  0.24040  1.0000 -0.1610193325
N   N48       1.0  0.55310  0.31750  0.25960  1.0000 -0.1610193325
O   O1        1.0  0.24930  0.43694  0.36780  1.0000 -0.5324344671
O   O2        1.0  0.75070  0.93694  0.13220  1.0000 -0.5362610852
O   O3        1.0  0.75070  0.56306  0.63220  1.0000 -0.5362610852
O   O4        1.0  0.24930  0.06306  0.86780  1.0000 -0.5324344671
O   O5        1.0  0.04630  0.39798  0.32270  1.0000 -0.5488358175
O   O6        1.0  0.95370  0.89798  0.17730  1.0000 -0.5488358175
O   O7        1.0  0.95370  0.60202  0.67730  1.0000 -0.5488358175
O   O8        1.0  0.04630  0.10202  0.82270  1.0000 -0.5488358175
O   O9        1.0  0.67260  0.53830  0.21130  1.0000 -0.5488358175
O   O10       1.0  0.32740  0.03830  0.28870  1.0000 -0.5488358175
O   O11       1.0  0.32740  0.46170  0.78870  1.0000 -0.5488358175
O   O12       1.0  0.67260  0.96170  0.71130  1.0000 -0.5488358175
O   O13       1.0  0.70400  0.63880  0.21690  1.0000 -0.5708890642
O   O14       1.0  0.29600  0.13880  0.28310  1.0000 -0.5708890642
O   O15       1.0  0.29600  0.36120  0.78310  1.0000 -0.5708890642
O   O16       1.0  0.70400  0.86120  0.71690  1.0000 -0.5708890642
O   O17       1.0  0.17710  0.72000  0.36520  1.0000 -0.6352534329
O   O18       1.0  0.82290  0.22000  0.13480  1.0000 -0.6348515188
O   O19       1.0  0.82290  0.28000  0.63480  1.0000 -0.6352534329
O   O20       1.0  0.17710  0.78000  0.86520  1.0000 -0.6352534329
O   O21       1.0  0.22810  0.69620  0.26030  1.0000 -0.5708890642
O   O22       1.0  0.77190  0.19620  0.23970  1.0000 -0.5708890642
O   O23       1.0  0.77190  0.30380  0.73970  1.0000 -0.5708890642
O   O24       1.0  0.22810  0.80380  0.76030  1.0000 -0.5708890642
O   O25       1.0  0.35290  0.65150  0.36880  1.0000 -0.5708890642
O   O26       1.0  0.64710  0.15150  0.13120  1.0000 -0.5708890642
O   O27       1.0  0.64710  0.34850  0.63120  1.0000 -0.5708890642
O   O28       1.0  0.35290  0.84850  0.86880  1.0000 -0.5708890642
O   O29       1.0  0.28550  0.54820  0.14420  1.0000 -0.5362610852
O   O30       1.0  0.71450  0.04820  0.35580  1.0000 -0.5362610852
O   O31       1.0  0.71450  0.45180  0.85580  1.0000 -0.5362610852
O   O32       1.0  0.28550  0.95180  0.64420  1.0000 -0.5362610852
O   O33       1.0  0.23980  0.46470  0.19660  1.0000 -0.5168634092
O   O34       1.0  0.76020  0.96470  0.30340  1.0000 -0.5168634092
O   O35       1.0  0.76020  0.53530  0.80340  1.0000 -0.5168634092
O   O36       1.0  0.23980  0.03530  0.69660  1.0000 -0.5168634092
O   O37       1.0  0.80640  0.36604  0.09690  1.0000 -0.5324344671
O   O38       1.0  0.19360  0.86604  0.40310  1.0000 -0.5324344671
O   O39       1.0  0.19360  0.63396  0.90310  1.0000 -0.5324344671
O   O40       1.0  0.80640  0.13396  0.59690  1.0000 -0.5324344671
O   O41       1.0  0.63050  0.42004  0.03850  1.0000 -0.5324344671
O   O42       1.0  0.36950  0.92004  0.46150  1.0000 -0.5324344671
O   O43       1.0  0.36950  0.57996  0.96150  1.0000 -0.5324344671
O   O44       1.0  0.63050  0.07996  0.53850  1.0000 -0.5324344671
O   O45       1.0  0.70410  0.65987  0.05840  1.0000 -0.6221395766
O   O46       1.0  0.29590  0.15987  0.44160  1.0000 -0.6221395766
O   O47       1.0  0.29590  0.34013  0.94160  1.0000 -0.6221395766
O   O48       1.0  0.70410  0.84013  0.55840  1.0000 -0.6221395766
O   O49       1.0  0.90950  0.68795  0.03470  1.0000 -0.6134447491
O   O50       1.0  0.09050  0.18795  0.46530  1.0000 -0.6134447491
O   O51       1.0  0.09050  0.31205  0.96530  1.0000 -0.6134447491
O   O52       1.0  0.90950  0.81205  0.53470  1.0000 -0.6134447491
O   O53       1.0  0.73090  0.63760  0.94730  1.0000 -0.6022140717
O   O54       1.0  0.26910  0.13760  0.55270  1.0000 -0.6022140717
O   O55       1.0  0.26910  0.36240  0.05270  1.0000 -0.6022140717
O   O56       1.0  0.73090  0.86240  0.44730  1.0000 -0.6022140717
O   O57       1.0  0.50776  0.25053  0.56896  1.0000 -0.7858081793
O   O58       1.0  0.49224  0.75053  0.93104  1.0000 -0.7858081793
O   O59       1.0  0.49224  0.74947  0.43104  1.0000 -0.7858081793
O   O60       1.0  0.50776  0.24947  0.06896  1.0000 -0.7858081793
O   O61       1.0  0.31360  0.26454  0.36960  1.0000 -0.7672756648
O   O62       1.0  0.68640  0.76454  0.13040  1.0000 -0.7672756648
O   O63       1.0  0.68640  0.73546  0.63040  1.0000 -0.7672756648
O   O64       1.0  0.31360  0.23546  0.86960  1.0000 -0.7672756648
