# DDEC6 charges by PACMAN v1.1 (https://github.com/mtap-research/PACMAN-charge/)
data_2013[La][dia]3[ASR]1
_chemical_formula_sum              "La4 C16 O32"
_cell_length_a       10.016
_cell_length_b       11.38
_cell_length_c       12.821
_cell_angle_alpha    80.39
_cell_angle_beta     80.65
_cell_angle_gamma    66.34

_symmetry_space_group_name_H-M    "P 1"
_symmetry_Int_Tables_number       1

loop_
  _symmetry_equiv_pos_as_xyz
  'x, y, z'

loop_
  _atom_site_type_symbol
  _atom_site_label
  _atom_site_symmetry_multiplicity
  _atom_site_fract_x
  _atom_site_fract_y
  _atom_site_fract_z
  _atom_site_occupancy
  _atom_site_charge
La  La1       1.0  0.30138  0.10814  0.21182  1.0000 1.6374762437
La  La2       1.0  0.69862  0.89186  0.78818  1.0000 1.6207269808
La  La3       1.0  0.61975  0.48789  0.25039  1.0000 1.6885377547
La  La4       1.0  0.38025  0.51211  0.74961  1.0000 1.6885377547
C   C1        1.0  0.45300  0.32340  0.17350  1.0000 0.5011045566
C   C2        1.0  0.54700  0.67660  0.82650  1.0000 0.5011045566
C   C3        1.0  0.48040  0.26020  0.28380  1.0000 0.5222856065
C   C4        1.0  0.51960  0.73980  0.71620  1.0000 0.5222856065
C   C5        1.0  0.39990  0.79390  0.21070  1.0000 0.4690156361
C   C6        1.0  0.60010  0.20610  0.78930  1.0000 0.4690156361
C   C7        1.0  0.49200  0.79820  0.28630  1.0000 0.5011045566
C   C8        1.0  0.50800  0.20180  0.71370  1.0000 0.5011045566
C   C9        1.0  0.94330  0.26310  0.19660  1.0000 0.5758224508
C   C10       1.0  0.05670  0.73690  0.80340  1.0000 0.5758224508
C   C11       1.0  0.98000  0.36210  0.24080  1.0000 0.5622496387
C   C12       1.0  0.02000  0.63790  0.75920  1.0000 0.5622496387
C   C13       1.0  0.42000  0.53430  0.49020  1.0000 0.5256039282
C   C14       1.0  0.58000  0.46570  0.50980  1.0000 0.5222856065
C   C15       1.0  0.56780  0.97020  0.03320  1.0000 0.5222856065
C   C16       1.0  0.43220  0.02980  0.96680  1.0000 0.5222856065
O   O1        1.0  0.54940  0.30170  0.33240  1.0000 -0.4893200913
O   O2        1.0  0.45060  0.69830  0.66760  1.0000 -0.4893200913
O   O3        1.0  0.43470  0.17350  0.31840  1.0000 -0.4582061985
O   O4        1.0  0.56530  0.82650  0.68160  1.0000 -0.4529922993
O   O5        1.0  0.39240  0.28300  0.11900  1.0000 -0.4529922993
O   O6        1.0  0.60760  0.71700  0.88100  1.0000 -0.4529922993
O   O7        1.0  0.49090  0.41890  0.13780  1.0000 -0.4677295605
O   O8        1.0  0.50910  0.58110  0.86220  1.0000 -0.4677295605
O   O9        1.0  0.60180  0.69990  0.30380  1.0000 -0.4529922993
O   O10       1.0  0.39820  0.30010  0.69620  1.0000 -0.4529922993
O   O11       1.0  0.42000  0.68950  0.17360  1.0000 -0.4582061985
O   O12       1.0  0.58000  0.31050  0.82640  1.0000 -0.4582061985
O   O13       1.0  0.45850  0.90720  0.31090  1.0000 -0.4296168754
O   O14       1.0  0.54150  0.09280  0.68910  1.0000 -0.4296168754
O   O15       1.0  0.28880  0.89970  0.18160  1.0000 -0.4985310951
O   O16       1.0  0.71120  0.10030  0.81840  1.0000 -0.4893200913
O   O17       1.0  0.04860  0.15980  0.17090  1.0000 -0.4893200913
O   O18       1.0  0.95140  0.84020  0.82910  1.0000 -0.4844741443
O   O19       1.0  0.11170  0.32810  0.25190  1.0000 -0.5053664068
O   O20       1.0  0.88830  0.67190  0.74810  1.0000 -0.4985310951
O   O21       1.0  0.87780  0.46370  0.25830  1.0000 -0.4529922993
O   O22       1.0  0.12220  0.53630  0.74170  1.0000 -0.4529922993
O   O23       1.0  0.81330  0.28350  0.19340  1.0000 -0.4893200913
O   O24       1.0  0.18670  0.71650  0.80660  1.0000 -0.4893200913
O   O25       1.0  0.40060  0.56060  0.39030  1.0000 -0.5254393437
O   O26       1.0  0.59940  0.43940  0.60970  1.0000 -0.5254393437
O   O27       1.0  0.32230  0.56560  0.56450  1.0000 -0.4296168754
O   O28       1.0  0.67770  0.43440  0.43550  1.0000 -0.4296168754
O   O29       1.0  0.55230  0.99130  0.12510  1.0000 -0.4411259809
O   O30       1.0  0.44770  0.00870  0.87490  1.0000 -0.4411259809
O   O31       1.0  0.68430  0.89660  0.98410  1.0000 -0.4677295605
O   O32       1.0  0.31570  0.10340  0.01590  1.0000 -0.4677295605
