# DDEC6 charges by PACMAN v1.1 (https://github.com/mtap-research/PACMAN-charge/)
data_2013[La][nan]3[ASR]2
_chemical_formula_sum              "La8 H28 C60 O56"
_cell_length_a       14.5418
_cell_length_b       14.5418
_cell_length_c       18.1032
_cell_angle_alpha    61.8697
_cell_angle_beta     118.13
_cell_angle_gamma    137.389

_symmetry_space_group_name_H-M    "P 1"
_symmetry_Int_Tables_number       1

loop_
  _symmetry_equiv_pos_as_xyz
  'x, y, z'

loop_
  _atom_site_type_symbol
  _atom_site_label
  _atom_site_symmetry_multiplicity
  _atom_site_fract_x
  _atom_site_fract_y
  _atom_site_fract_z
  _atom_site_occupancy
  _atom_site_charge
La  La1       1.0  0.76198  0.09806  0.86584  1.0000 1.7719942945
La  La2       1.0  0.09806  0.76198  0.63416  1.0000 1.7719942945
La  La3       1.0  0.23802  0.90194  0.13416  1.0000 1.7719942945
La  La4       1.0  0.90194  0.23802  0.36584  1.0000 1.7719942945
La  La5       1.0  0.05774  0.41178  0.71470  1.0000 1.8824943918
La  La6       1.0  0.41178  0.05774  0.78530  1.0000 1.8824943918
La  La7       1.0  0.94226  0.58822  0.28530  1.0000 1.8824943918
La  La8       1.0  0.58822  0.94226  0.21470  1.0000 1.8824943918
H   H1        1.0  0.85410  0.98890  0.98410  1.0000 0.3272648621
H   H2        1.0  0.98890  0.85410  0.51590  1.0000 0.3272648621
H   H3        1.0  0.14590  0.01110  0.01590  1.0000 0.3272648621
H   H4        1.0  0.01110  0.14590  0.48410  1.0000 0.3272648621
H   H5        1.0  0.94720  0.12640  0.94260  1.0000 0.2941721696
H   H6        1.0  0.12640  0.94720  0.55740  1.0000 0.2954072374
H   H7        1.0  0.05280  0.87360  0.05740  1.0000 0.2954072374
H   H8        1.0  0.87360  0.05280  0.44260  1.0000 0.2941721696
H   H9        1.0  0.55490  0.97070  0.96980  1.0000 0.3195174354
H   H10       1.0  0.97070  0.55490  0.53020  1.0000 0.3195174354
H   H11       1.0  0.44510  0.02930  0.03020  1.0000 0.3195174354
H   H12       1.0  0.02930  0.44510  0.46980  1.0000 0.3195174354
H   H13       1.0  0.48180  0.87340  0.93650  1.0000 0.3195174354
H   H14       1.0  0.87340  0.48180  0.56350  1.0000 0.3195174354
H   H15       1.0  0.51820  0.12660  0.06350  1.0000 0.3195174354
H   H16       1.0  0.12660  0.51820  0.43650  1.0000 0.3195174354
H   H17       1.0  0.66840  0.94160  0.54130  1.0000 0.1321394704
H   H18       1.0  0.94160  0.66840  0.95870  1.0000 0.1321394704
H   H19       1.0  0.33160  0.05840  0.45870  1.0000 0.1321394704
H   H20       1.0  0.05840  0.33160  0.04130  1.0000 0.1321394704
H   H21       1.0  0.45350  0.74490  0.57380  1.0000 0.1398107875
H   H22       1.0  0.74490  0.45350  0.92620  1.0000 0.1398107875
H   H23       1.0  0.54650  0.25510  0.42620  1.0000 0.1398107875
H   H24       1.0  0.25510  0.54650  0.07380  1.0000 0.1398107875
H   H25       1.0  0.75280  0.82440  0.76610  1.0000 0.1321394704
H   H26       1.0  0.82440  0.75280  0.73390  1.0000 0.1321394704
H   H27       1.0  0.24720  0.17560  0.23390  1.0000 0.1321394704
H   H28       1.0  0.17560  0.24720  0.26610  1.0000 0.1321394704
C   C1        1.0  0.70030  0.07050  0.58280  1.0000 -0.0637331345
C   C2        1.0  0.07050  0.70030  0.91720  1.0000 -0.0637331345
C   C3        1.0  0.29970  0.92950  0.41720  1.0000 -0.0637331345
C   C4        1.0  0.92950  0.29970  0.08280  1.0000 -0.0637331345
C   C5        1.0  0.62880  0.94620  0.56610  1.0000 -0.0818510633
C   C6        1.0  0.94620  0.62880  0.93390  1.0000 -0.0818510633
C   C7        1.0  0.37120  0.05380  0.43390  1.0000 -0.0818510633
C   C8        1.0  0.05380  0.37120  0.06610  1.0000 -0.0818510633
C   C9        1.0  0.49930  0.82790  0.58530  1.0000 -0.086169405
C   C10       1.0  0.82790  0.49930  0.91470  1.0000 -0.086169405
C   C11       1.0  0.50070  0.17210  0.41470  1.0000 -0.086169405
C   C12       1.0  0.17210  0.50070  0.08530  1.0000 -0.086169405
C   C13       1.0  0.43750  0.83230  0.62170  1.0000 -0.028868394
C   C14       1.0  0.83230  0.43750  0.87830  1.0000 -0.028868394
C   C15       1.0  0.56250  0.16770  0.37830  1.0000 -0.028868394
C   C16       1.0  0.16770  0.56250  0.12170  1.0000 -0.028868394
C   C17       1.0  0.50820  0.95580  0.64020  1.0000 -0.0671449062
C   C18       1.0  0.95580  0.50820  0.85980  1.0000 -0.0671449062
C   C19       1.0  0.49180  0.04420  0.35980  1.0000 -0.0671449062
C   C20       1.0  0.04420  0.49180  0.14020  1.0000 -0.0671449062
C   C21       1.0  0.64110  0.07590  0.62140  1.0000 -0.041028432
C   C22       1.0  0.07590  0.64110  0.87860  1.0000 -0.041028432
C   C23       1.0  0.35890  0.92410  0.37860  1.0000 -0.041028432
C   C24       1.0  0.92410  0.35890  0.12140  1.0000 -0.041028432
C   C25       1.0  0.83670  0.19650  0.55650  1.0000 0.618516745
C   C26       1.0  0.19650  0.83670  0.94350  1.0000 0.618516745
C   C27       1.0  0.16330  0.80350  0.44350  1.0000 0.618516745
C   C28       1.0  0.80350  0.16330  0.05650  1.0000 0.618516745
C   C29       1.0  0.71360  0.20840  0.64080  1.0000 0.6084466148
C   C30       1.0  0.20840  0.71360  0.85920  1.0000 0.6084466148
C   C31       1.0  0.28640  0.79160  0.35920  1.0000 0.6084466148
C   C32       1.0  0.79160  0.28640  0.14080  1.0000 0.6084466148
C   C33       1.0  0.45690  0.97470  0.68190  1.0000 0.6287376303
C   C34       1.0  0.97470  0.45690  0.81810  1.0000 0.6287376303
C   C35       1.0  0.54310  0.02530  0.31810  1.0000 0.6287376303
C   C36       1.0  0.02530  0.54310  0.18190  1.0000 0.6287376303
C   C37       1.0  0.29620  0.70080  0.64020  1.0000 0.5752297062
C   C38       1.0  0.70080  0.29620  0.85980  1.0000 0.5752297062
C   C39       1.0  0.70380  0.29920  0.35980  1.0000 0.5752297062
C   C40       1.0  0.29920  0.70380  0.14020  1.0000 0.5752297062
C   C41       1.0  0.84420  0.88580  0.76090  1.0000 -0.0955100787
C   C42       1.0  0.88580  0.84420  0.73910  1.0000 -0.0955100787
C   C43       1.0  0.15580  0.11420  0.23910  1.0000 -0.0955100787
C   C44       1.0  0.11420  0.15580  0.26090  1.0000 -0.0955100787
C   C45       1.0  0.93520  0.01640  0.77510  1.0000 -0.041028432
C   C46       1.0  0.01640  0.93520  0.72490  1.0000 -0.041028432
C   C47       1.0  0.06480  0.98360  0.22490  1.0000 -0.041028432
C   C48       1.0  0.98360  0.06480  0.27510  1.0000 -0.041028432
C   C49       1.0  0.07060  0.10980  0.76390  1.0000 -0.041028432
C   C50       1.0  0.10980  0.07060  0.73610  1.0000 -0.041028432
C   C51       1.0  0.92940  0.89020  0.23610  1.0000 -0.041028432
C   C52       1.0  0.89020  0.92940  0.26390  1.0000 -0.041028432
C   C53       1.0  0.88520  0.05600  0.80140  1.0000 0.585791232
C   C54       1.0  0.05600  0.88520  0.69860  1.0000 0.585791232
C   C55       1.0  0.11480  0.94400  0.19860  1.0000 0.585791232
C   C56       1.0  0.94400  0.11480  0.30140  1.0000 0.585791232
C   C57       1.0  0.17720  0.25060  0.78670  1.0000 0.6026478428
C   C58       1.0  0.25060  0.17720  0.71330  1.0000 0.6026478428
C   C59       1.0  0.82280  0.74940  0.21330  1.0000 0.6026478428
C   C60       1.0  0.74940  0.82280  0.28670  1.0000 0.6026478428
O   O1        1.0  0.92230  0.29890  0.59060  1.0000 -0.587113848
O   O2        1.0  0.29890  0.92230  0.90940  1.0000 -0.587113848
O   O3        1.0  0.07770  0.70110  0.40940  1.0000 -0.587113848
O   O4        1.0  0.70110  0.07770  0.09060  1.0000 -0.587113848
O   O5        1.0  0.85880  0.19420  0.49920  1.0000 -0.587113848
O   O6        1.0  0.19420  0.85880  0.00080  1.0000 -0.587113848
O   O7        1.0  0.14120  0.80580  0.50080  1.0000 -0.587113848
O   O8        1.0  0.80580  0.14120  0.99920  1.0000 -0.587113848
O   O9        1.0  0.80150  0.23830  0.71120  1.0000 -0.6697309595
O   O10       1.0  0.23830  0.80150  0.78880  1.0000 -0.6697309595
O   O11       1.0  0.19850  0.76170  0.28880  1.0000 -0.6697309595
O   O12       1.0  0.76170  0.19850  0.21120  1.0000 -0.6697309595
O   O13       1.0  0.68440  0.28140  0.58870  1.0000 -0.4841352385
O   O14       1.0  0.28140  0.68440  0.91130  1.0000 -0.4841352385
O   O15       1.0  0.31560  0.71860  0.41130  1.0000 -0.4841352385
O   O16       1.0  0.71860  0.31560  0.08870  1.0000 -0.4841352385
O   O17       1.0  0.53010  0.00790  0.75510  1.0000 -0.6408675593
O   O18       1.0  0.00790  0.53010  0.74490  1.0000 -0.6408675593
O   O19       1.0  0.46990  0.99210  0.24490  1.0000 -0.6408675593
O   O20       1.0  0.99210  0.46990  0.25510  1.0000 -0.6408675593
O   O21       1.0  0.35690  0.97050  0.64660  1.0000 -0.5977249128
O   O22       1.0  0.97050  0.35690  0.85340  1.0000 -0.5977249128
O   O23       1.0  0.64310  0.02950  0.35340  1.0000 -0.5977249128
O   O24       1.0  0.02950  0.64310  0.14660  1.0000 -0.5977249128
O   O25       1.0  0.24130  0.69630  0.68030  1.0000 -0.6318141204
O   O26       1.0  0.69630  0.24130  0.81970  1.0000 -0.6318141204
O   O27       1.0  0.75870  0.30370  0.31970  1.0000 -0.6318141204
O   O28       1.0  0.30370  0.75870  0.18030  1.0000 -0.6318141204
O   O29       1.0  0.23670  0.59630  0.61730  1.0000 -0.524570806
O   O30       1.0  0.59630  0.23670  0.88270  1.0000 -0.524570806
O   O31       1.0  0.76330  0.40370  0.38270  1.0000 -0.524570806
O   O32       1.0  0.40370  0.76330  0.11730  1.0000 -0.524570806
O   O33       1.0  0.76160  0.96800  0.80790  1.0000 -0.570721848
O   O34       1.0  0.96800  0.76160  0.69210  1.0000 -0.570721848
O   O35       1.0  0.23840  0.03200  0.19210  1.0000 -0.570721848
O   O36       1.0  0.03200  0.23840  0.30790  1.0000 -0.570721848
O   O37       1.0  0.96820  0.17620  0.81640  1.0000 -0.6408675593
O   O38       1.0  0.17620  0.96820  0.68360  1.0000 -0.6408675593
O   O39       1.0  0.03180  0.82380  0.18360  1.0000 -0.6408675593
O   O40       1.0  0.82380  0.03180  0.31640  1.0000 -0.6408675593
O   O41       1.0  0.18280  0.34740  0.73380  1.0000 -0.5977249128
O   O42       1.0  0.34740  0.18280  0.76620  1.0000 -0.5977249128
O   O43       1.0  0.81720  0.65260  0.26620  1.0000 -0.5977249128
O   O44       1.0  0.65260  0.81720  0.23380  1.0000 -0.5977249128
O   O45       1.0  0.25370  0.25750  0.85870  1.0000 -0.4914212209
O   O46       1.0  0.25750  0.25370  0.64130  1.0000 -0.4914212209
O   O47       1.0  0.74630  0.74250  0.14130  1.0000 -0.4914212209
O   O48       1.0  0.74250  0.74630  0.35870  1.0000 -0.4914212209
O   O49       1.0  0.93430  0.06830  0.99010  1.0000 -0.6408675593
O   O50       1.0  0.06830  0.93430  0.50990  1.0000 -0.6408675593
O   O51       1.0  0.06570  0.93170  0.00990  1.0000 -0.6408675593
O   O52       1.0  0.93170  0.06570  0.49010  1.0000 -0.6408675593
O   O53       1.0  0.52720  0.96020  0.91900  1.0000 -0.728000952
O   O54       1.0  0.96020  0.52720  0.58100  1.0000 -0.728000952
O   O55       1.0  0.47280  0.03980  0.08100  1.0000 -0.728000952
O   O56       1.0  0.03980  0.47280  0.41900  1.0000 -0.728000952
