# DDEC6 charges by PACMAN v1.1 (https://github.com/mtap-research/PACMAN-charge/)
data_2013[Cd][pcu]3[ASR]4
_chemical_formula_sum              "Cd4 H72 C104 N8 O16"
_cell_length_a       16.3488
_cell_length_b       16.3488
_cell_length_c       16.602
_cell_angle_alpha    74.1194
_cell_angle_beta     105.881
_cell_angle_gamma    129.103

_symmetry_space_group_name_H-M    "P 1"
_symmetry_Int_Tables_number       1

loop_
  _symmetry_equiv_pos_as_xyz
  'x, y, z'

loop_
  _atom_site_type_symbol
  _atom_site_label
  _atom_site_symmetry_multiplicity
  _atom_site_fract_x
  _atom_site_fract_y
  _atom_site_fract_z
  _atom_site_occupancy
  _atom_site_charge
Cd  Cd1       1.0  0.51244  0.95406  0.91134  1.0000 0.8542107173
Cd  Cd2       1.0  0.95406  0.51244  0.58866  1.0000 0.8542107173
Cd  Cd3       1.0  0.48756  0.04594  0.08866  1.0000 0.8542107173
Cd  Cd4       1.0  0.04594  0.48756  0.41134  1.0000 0.8542107173
H   H1        1.0  0.63650  0.75050  0.92890  1.0000 0.1187370761
H   H2        1.0  0.75050  0.63650  0.57110  1.0000 0.1187370761
H   H3        1.0  0.36350  0.24950  0.07110  1.0000 0.1187370761
H   H4        1.0  0.24950  0.36350  0.42890  1.0000 0.1187370761
H   H5        1.0  0.69190  0.67170  0.88350  1.0000 0.1078329842
H   H6        1.0  0.67170  0.69190  0.61650  1.0000 0.1078329842
H   H7        1.0  0.30810  0.32830  0.11650  1.0000 0.1078329842
H   H8        1.0  0.32830  0.30810  0.38350  1.0000 0.1078329842
H   H9        1.0  0.66070  0.80070  0.64770  1.0000 0.1020672113
H   H10       1.0  0.80070  0.66070  0.85230  1.0000 0.1020672113
H   H11       1.0  0.33930  0.19930  0.35230  1.0000 0.1020672113
H   H12       1.0  0.19930  0.33930  0.14770  1.0000 0.1020672113
H   H13       1.0  0.60890  0.88210  0.69420  1.0000 0.1187370761
H   H14       1.0  0.88210  0.60890  0.80580  1.0000 0.1187370761
H   H15       1.0  0.39110  0.11790  0.30580  1.0000 0.1187370761
H   H16       1.0  0.11790  0.39110  0.19420  1.0000 0.1187370761
H   H17       1.0  0.32140  0.07880  0.70800  1.0000 0.1187370761
H   H18       1.0  0.07880  0.32140  0.79200  1.0000 0.1187370761
H   H19       1.0  0.67860  0.92120  0.29200  1.0000 0.1187370761
H   H20       1.0  0.92120  0.67860  0.20800  1.0000 0.1187370761
H   H21       1.0  0.22510  0.14570  0.65640  1.0000 0.1078329842
H   H22       1.0  0.14570  0.22510  0.84360  1.0000 0.1078329842
H   H23       1.0  0.77490  0.85430  0.34360  1.0000 0.1078329842
H   H24       1.0  0.85430  0.77490  0.15640  1.0000 0.1078329842
H   H25       1.0  0.28450  0.21710  0.88770  1.0000 0.1187370761
H   H26       1.0  0.21710  0.28450  0.61230  1.0000 0.1187370761
H   H27       1.0  0.71550  0.78290  0.11230  1.0000 0.1187370761
H   H28       1.0  0.78290  0.71550  0.38770  1.0000 0.1187370761
H   H29       1.0  0.37230  0.14590  0.93480  1.0000 0.1298971257
H   H30       1.0  0.14590  0.37230  0.56520  1.0000 0.1298971257
H   H31       1.0  0.62770  0.85410  0.06520  1.0000 0.1298971257
H   H32       1.0  0.85410  0.62770  0.43480  1.0000 0.1298971257
H   H33       1.0  0.26620  0.81040  0.81990  1.0000 0.1078329842
H   H34       1.0  0.81040  0.26620  0.68010  1.0000 0.1078329842
H   H35       1.0  0.73380  0.18960  0.18010  1.0000 0.1078329842
H   H36       1.0  0.18960  0.73380  0.31990  1.0000 0.1078329842
H   H37       1.0  0.10620  0.64220  0.83610  1.0000 0.1381601539
H   H38       1.0  0.64220  0.10620  0.66390  1.0000 0.1381601539
H   H39       1.0  0.89380  0.35780  0.16390  1.0000 0.1381601539
H   H40       1.0  0.35780  0.89380  0.33610  1.0000 0.1381601539
H   H41       1.0  0.24150  0.56090  0.04880  1.0000 0.1298971257
H   H42       1.0  0.56090  0.24150  0.45120  1.0000 0.1298971257
H   H43       1.0  0.75850  0.43910  0.95120  1.0000 0.1298971257
H   H44       1.0  0.43910  0.75850  0.54880  1.0000 0.1298971257
H   H45       1.0  0.39550  0.73190  0.03210  1.0000 0.1078329842
H   H46       1.0  0.73190  0.39550  0.46790  1.0000 0.1078329842
H   H47       1.0  0.60450  0.26810  0.96790  1.0000 0.1078329842
H   H48       1.0  0.26810  0.60450  0.53210  1.0000 0.1078329842
H   H49       1.0  0.06030  0.42690  0.99480  1.0000 0.1298971257
H   H50       1.0  0.42690  0.06030  0.50520  1.0000 0.1298971257
H   H51       1.0  0.93970  0.57310  0.00520  1.0000 0.1298971257
H   H52       1.0  0.57310  0.93970  0.49480  1.0000 0.1298971257
H   H53       1.0  0.97920  0.46960  0.84650  1.0000 0.1565979623
H   H54       1.0  0.46960  0.97920  0.65350  1.0000 0.1565979623
H   H55       1.0  0.02080  0.53040  0.15350  1.0000 0.1565979623
H   H56       1.0  0.53040  0.02080  0.34650  1.0000 0.1565979623
H   H57       1.0  0.80040  0.34520  0.80030  1.0000 0.1466951795
H   H58       1.0  0.34520  0.80040  0.69970  1.0000 0.1466951795
H   H59       1.0  0.19960  0.65480  0.19970  1.0000 0.1466951795
H   H60       1.0  0.65480  0.19960  0.30030  1.0000 0.1466951795
H   H61       1.0  0.64170  0.18530  0.80460  1.0000 0.1078329842
H   H62       1.0  0.18530  0.64170  0.69540  1.0000 0.1078329842
H   H63       1.0  0.35830  0.81470  0.19540  1.0000 0.1078329842
H   H64       1.0  0.81470  0.35830  0.30460  1.0000 0.1078329842
H   H65       1.0  0.75090  0.08530  0.01280  1.0000 0.1020672113
H   H66       1.0  0.08530  0.75090  0.48720  1.0000 0.1020672113
H   H67       1.0  0.24910  0.91470  0.98720  1.0000 0.1020672113
H   H68       1.0  0.91470  0.24910  0.51280  1.0000 0.1020672113
H   H69       1.0  0.91680  0.25140  0.01000  1.0000 0.1298971257
H   H70       1.0  0.25140  0.91680  0.49000  1.0000 0.1298971257
H   H71       1.0  0.08320  0.74860  0.99000  1.0000 0.1298971257
H   H72       1.0  0.74860  0.08320  0.51000  1.0000 0.1298971257
C   C1        1.0  0.57440  0.86900  0.84490  1.0000 0.5498852559
C   C2        1.0  0.86900  0.57440  0.65510  1.0000 0.5449450441
C   C3        1.0  0.42560  0.13100  0.15510  1.0000 0.5449450441
C   C4        1.0  0.13100  0.42560  0.34490  1.0000 0.5449450441
C   C5        1.0  0.61030  0.81850  0.81350  1.0000 -0.0132181012
C   C6        1.0  0.81850  0.61030  0.68650  1.0000 -0.0132181012
C   C7        1.0  0.38970  0.18150  0.18650  1.0000 -0.0132181012
C   C8        1.0  0.18150  0.38970  0.31350  1.0000 -0.0132181012
C   C9        1.0  0.64030  0.75990  0.87190  1.0000 -0.1091468514
C   C10       1.0  0.75990  0.64030  0.62810  1.0000 -0.1091468514
C   C11       1.0  0.35970  0.24010  0.12810  1.0000 -0.1091468514
C   C12       1.0  0.24010  0.35970  0.37190  1.0000 -0.1091468514
C   C13       1.0  0.67650  0.71510  0.84480  1.0000 -0.1390553511
C   C14       1.0  0.71510  0.67650  0.65520  1.0000 -0.1390553511
C   C15       1.0  0.32350  0.28490  0.15520  1.0000 -0.1390553511
C   C16       1.0  0.28490  0.32350  0.34480  1.0000 -0.1390553511
C   C17       1.0  0.68890  0.73370  0.76450  1.0000 0.0719743144
C   C18       1.0  0.73370  0.68890  0.73550  1.0000 0.0719743144
C   C19       1.0  0.31110  0.26630  0.23550  1.0000 0.0719743144
C   C20       1.0  0.26630  0.31110  0.26450  1.0000 0.0719743144
C   C21       1.0  0.65810  0.79230  0.70490  1.0000 -0.1606383793
C   C22       1.0  0.79230  0.65810  0.79510  1.0000 -0.1606383793
C   C23       1.0  0.34190  0.20770  0.29510  1.0000 -0.1606383793
C   C24       1.0  0.20770  0.34190  0.20490  1.0000 -0.1606383793
C   C25       1.0  0.62330  0.83790  0.73260  1.0000 -0.1091468514
C   C26       1.0  0.83790  0.62330  0.76740  1.0000 -0.1091468514
C   C27       1.0  0.37670  0.16210  0.26740  1.0000 -0.1091468514
C   C28       1.0  0.16210  0.37670  0.23260  1.0000 -0.1091468514
C   C29       1.0  0.41570  0.05510  0.86180  1.0000 0.5498852559
C   C30       1.0  0.05510  0.41570  0.63820  1.0000 0.5498852559
C   C31       1.0  0.58430  0.94490  0.13820  1.0000 0.5498852559
C   C32       1.0  0.94490  0.58430  0.36180  1.0000 0.5498852559
C   C33       1.0  0.35710  0.10330  0.83020  1.0000 -0.0325196319
C   C34       1.0  0.10330  0.35710  0.66980  1.0000 -0.0325196319
C   C35       1.0  0.64290  0.89670  0.16980  1.0000 -0.0325196319
C   C36       1.0  0.89670  0.64290  0.33020  1.0000 -0.0325196319
C   C37       1.0  0.31270  0.10630  0.74450  1.0000 -0.1153159983
C   C38       1.0  0.10630  0.31270  0.75550  1.0000 -0.1091468514
C   C39       1.0  0.68730  0.89370  0.25550  1.0000 -0.1153159983
C   C40       1.0  0.89370  0.68730  0.24450  1.0000 -0.1153159983
C   C41       1.0  0.25690  0.14850  0.71240  1.0000 -0.1530536286
C   C42       1.0  0.14850  0.25690  0.78760  1.0000 -0.1530536286
C   C43       1.0  0.74310  0.85150  0.28760  1.0000 -0.1530536286
C   C44       1.0  0.85150  0.74310  0.21240  1.0000 -0.1530536286
C   C45       1.0  0.24930  0.19590  0.76650  1.0000 0.0719743144
C   C46       1.0  0.19590  0.24930  0.73350  1.0000 0.0719743144
C   C47       1.0  0.75070  0.80410  0.23350  1.0000 0.0719743144
C   C48       1.0  0.80410  0.75070  0.26650  1.0000 0.0719743144
C   C49       1.0  0.29170  0.19010  0.84980  1.0000 -0.1390553511
C   C50       1.0  0.19010  0.29170  0.65020  1.0000 -0.1390553511
C   C51       1.0  0.70830  0.80990  0.15020  1.0000 -0.1390553511
C   C52       1.0  0.80990  0.70830  0.34980  1.0000 -0.1390553511
C   C53       1.0  0.34390  0.14610  0.87810  1.0000 -0.1024103056
C   C54       1.0  0.14610  0.34390  0.62190  1.0000 -0.1024103056
C   C55       1.0  0.65610  0.85390  0.12190  1.0000 -0.1024103056
C   C56       1.0  0.85390  0.65610  0.37810  1.0000 -0.1024103056
C   C57       1.0  0.26070  0.76110  0.86670  1.0000 0.0719743144
C   C58       1.0  0.76110  0.26070  0.63330  1.0000 0.0719743144
C   C59       1.0  0.73930  0.23890  0.13330  1.0000 0.0719743144
C   C60       1.0  0.23890  0.73930  0.36670  1.0000 0.0719743144
C   C61       1.0  0.16580  0.65820  0.87530  1.0000 -0.1982607528
C   C62       1.0  0.65820  0.16580  0.62470  1.0000 -0.1982607528
C   C63       1.0  0.83420  0.34180  0.12470  1.0000 -0.1982607528
C   C64       1.0  0.34180  0.83420  0.37530  1.0000 -0.1982607528
C   C65       1.0  0.15700  0.58080  0.93820  1.0000 0.1466951795
C   C66       1.0  0.58080  0.15700  0.56180  1.0000 0.1466951795
C   C67       1.0  0.84300  0.41920  0.06180  1.0000 0.1466951795
C   C68       1.0  0.41920  0.84300  0.43820  1.0000 0.1466951795
C   C69       1.0  0.24480  0.60940  0.00210  1.0000 -0.2263540449
C   C70       1.0  0.60940  0.24480  0.49790  1.0000 -0.2263540449
C   C71       1.0  0.75520  0.39060  0.99790  1.0000 -0.2263540449
C   C72       1.0  0.39060  0.75520  0.50210  1.0000 -0.2263540449
C   C73       1.0  0.33620  0.71320  0.99180  1.0000 0.1078329842
C   C74       1.0  0.71320  0.33620  0.50820  1.0000 0.1078329842
C   C75       1.0  0.66380  0.28680  0.00820  1.0000 0.1078329842
C   C76       1.0  0.28680  0.66380  0.49180  1.0000 0.1078329842
C   C77       1.0  0.05890  0.46990  0.94530  1.0000 -0.128447438
C   C78       1.0  0.46990  0.05890  0.55470  1.0000 -0.128447438
C   C79       1.0  0.94110  0.53010  0.05470  1.0000 -0.128447438
C   C80       1.0  0.53010  0.94110  0.44530  1.0000 -0.128447438
C   C81       1.0  0.97790  0.42650  0.89690  1.0000 -0.1024103056
C   C82       1.0  0.42650  0.97790  0.60310  1.0000 -0.1024103056
C   C83       1.0  0.02210  0.57350  0.10310  1.0000 -0.1024103056
C   C84       1.0  0.57350  0.02210  0.39690  1.0000 -0.1024103056
C   C85       1.0  0.87710  0.31890  0.90230  1.0000 0.1381601539
C   C86       1.0  0.31890  0.87710  0.59770  1.0000 0.1381601539
C   C87       1.0  0.12290  0.68110  0.09770  1.0000 0.1381601539
C   C88       1.0  0.68110  0.12290  0.40230  1.0000 0.1381601539
C   C89       1.0  0.79310  0.29330  0.84510  1.0000 -0.1982607528
C   C90       1.0  0.29330  0.79310  0.65490  1.0000 -0.1982607528
C   C91       1.0  0.20690  0.70670  0.15490  1.0000 -0.1982607528
C   C92       1.0  0.70670  0.20690  0.34510  1.0000 -0.1982607528
C   C93       1.0  0.69710  0.19670  0.84730  1.0000 0.0589498874
C   C94       1.0  0.19670  0.69710  0.65270  1.0000 0.0589498874
C   C95       1.0  0.30290  0.80330  0.15270  1.0000 0.0589498874
C   C96       1.0  0.80330  0.30290  0.34730  1.0000 0.0589498874
C   C97       1.0  0.76040  0.13840  0.96820  1.0000 0.1078329842
C   C98       1.0  0.13840  0.76040  0.53180  1.0000 0.1078329842
C   C99       1.0  0.23960  0.86160  0.03180  1.0000 0.1078329842
C   C100      1.0  0.86160  0.23960  0.46820  1.0000 0.1078329842
C   C101      1.0  0.86150  0.23930  0.96700  1.0000 -0.2263540449
C   C102      1.0  0.23930  0.86150  0.53300  1.0000 -0.2263540449
C   C103      1.0  0.13850  0.76070  0.03300  1.0000 -0.2263540449
C   C104      1.0  0.76070  0.13850  0.46700  1.0000 -0.2263540449
N   N1        1.0  0.34530  0.78770  0.92880  1.0000 -0.2427531056
N   N2        1.0  0.78770  0.34530  0.57120  1.0000 -0.2427531056
N   N3        1.0  0.65470  0.21230  0.07120  1.0000 -0.2427531056
N   N4        1.0  0.21230  0.65470  0.42880  1.0000 -0.2427531056
N   N5        1.0  0.67960  0.11680  0.90910  1.0000 -0.2263540449
N   N6        1.0  0.11680  0.67960  0.59090  1.0000 -0.2263540449
N   N7        1.0  0.32040  0.88320  0.09090  1.0000 -0.2263540449
N   N8        1.0  0.88320  0.32040  0.40910  1.0000 -0.2263540449
O   O1        1.0  0.54050  0.91790  0.78670  1.0000 -0.6103990845
O   O2        1.0  0.91790  0.54050  0.71330  1.0000 -0.6103990845
O   O3        1.0  0.45950  0.08210  0.21330  1.0000 -0.6103990845
O   O4        1.0  0.08210  0.45950  0.28670  1.0000 -0.6103990845
O   O5        1.0  0.57600  0.85980  0.92090  1.0000 -0.5311525039
O   O6        1.0  0.85980  0.57600  0.57910  1.0000 -0.5311525039
O   O7        1.0  0.42400  0.14020  0.07910  1.0000 -0.5311525039
O   O8        1.0  0.14020  0.42400  0.42090  1.0000 -0.5311525039
O   O9        1.0  0.42554  0.01926  0.80930  1.0000 -0.5536242299
O   O10       1.0  0.01926  0.42554  0.69070  1.0000 -0.5536242299
O   O11       1.0  0.57446  0.98074  0.19070  1.0000 -0.5536242299
O   O12       1.0  0.98074  0.57446  0.30930  1.0000 -0.5536242299
O   O13       1.0  0.45094  0.04866  0.93970  1.0000 -0.5885711781
O   O14       1.0  0.04866  0.45094  0.56030  1.0000 -0.5885711781
O   O15       1.0  0.54906  0.95134  0.06030  1.0000 -0.5885711781
O   O16       1.0  0.95134  0.54906  0.43970  1.0000 -0.5885711781
