# DDEC6 charges by PACMAN v1.1 (https://github.com/mtap-research/PACMAN-charge/)
data_2013[Zn][uni]3[ASR]1
_chemical_formula_sum              "Zn6 H66 C54 N12 O12"
_cell_length_a       17.686
_cell_length_b       17.686
_cell_length_c       10.1964
_cell_angle_alpha    90
_cell_angle_beta     90
_cell_angle_gamma    120

_symmetry_space_group_name_H-M    "P 1"
_symmetry_Int_Tables_number       1

loop_
  _symmetry_equiv_pos_as_xyz
  'x, y, z'

loop_
  _atom_site_type_symbol
  _atom_site_label
  _atom_site_symmetry_multiplicity
  _atom_site_fract_x
  _atom_site_fract_y
  _atom_site_fract_z
  _atom_site_occupancy
  _atom_site_charge
Zn  Zn1       1.0  0.54117  0.07448  0.01379  1.0000 0.6266782815
Zn  Zn2       1.0  0.46669  0.54117  0.18046  1.0000 0.6266782815
Zn  Zn3       1.0  0.92552  0.46669  0.34712  1.0000 0.6266782815
Zn  Zn4       1.0  0.45883  0.92552  0.51379  1.0000 0.6266782815
Zn  Zn5       1.0  0.53331  0.45883  0.68046  1.0000 0.6266782815
Zn  Zn6       1.0  0.07448  0.53331  0.84712  1.0000 0.6266782815
H   H1        1.0  0.67200  0.10800  0.79540  1.0000 0.0982757792
H   H2        1.0  0.56400  0.67200  0.96207  1.0000 0.0982757792
H   H3        1.0  0.89200  0.56400  0.12873  1.0000 0.0982757792
H   H4        1.0  0.32800  0.89200  0.29540  1.0000 0.0982757792
H   H5        1.0  0.43600  0.32800  0.46207  1.0000 0.0982757792
H   H6        1.0  0.10800  0.43600  0.62873  1.0000 0.0982757792
H   H7        1.0  0.81470  0.20660  0.74140  1.0000 0.1307773538
H   H8        1.0  0.60810  0.81470  0.90807  1.0000 0.1307773538
H   H9        1.0  0.79340  0.60810  0.07473  1.0000 0.1307773538
H   H10       1.0  0.18530  0.79340  0.24140  1.0000 0.1307773538
H   H11       1.0  0.39190  0.18530  0.40807  1.0000 0.1307773538
H   H12       1.0  0.20660  0.39190  0.57473  1.0000 0.1307773538
H   H13       1.0  0.83730  0.32820  0.07830  1.0000 0.1359640494
H   H14       1.0  0.50910  0.83730  0.24497  1.0000 0.1359640494
H   H15       1.0  0.67180  0.50910  0.41163  1.0000 0.1359640494
H   H16       1.0  0.16270  0.67180  0.57830  1.0000 0.1359640494
H   H17       1.0  0.49090  0.16270  0.74497  1.0000 0.1359640494
H   H18       1.0  0.32820  0.49090  0.91163  1.0000 0.1359640494
H   H19       1.0  0.69360  0.22600  0.12550  1.0000 0.1073142052
H   H20       1.0  0.46760  0.69360  0.29217  1.0000 0.1073142052
H   H21       1.0  0.77400  0.46760  0.45883  1.0000 0.1073142052
H   H22       1.0  0.30640  0.77400  0.62550  1.0000 0.1073142052
H   H23       1.0  0.53240  0.30640  0.79217  1.0000 0.1073142052
H   H24       1.0  0.22600  0.53240  0.95883  1.0000 0.1073142052
H   H25       1.0  0.97570  0.34830  0.92830  1.0000 0.1307773538
H   H26       1.0  0.62740  0.97570  0.09497  1.0000 0.1307773538
H   H27       1.0  0.65170  0.62740  0.26163  1.0000 0.1307773538
H   H28       1.0  0.02430  0.65170  0.42830  1.0000 0.1307773538
H   H29       1.0  0.37260  0.02430  0.59497  1.0000 0.1307773538
H   H30       1.0  0.34830  0.37260  0.76163  1.0000 0.1307773538
H   H31       1.0  0.94890  0.33900  0.77960  1.0000 0.1073142052
H   H32       1.0  0.60990  0.94890  0.94627  1.0000 0.1073142052
H   H33       1.0  0.66100  0.60990  0.11293  1.0000 0.1073142052
H   H34       1.0  0.05110  0.66100  0.27960  1.0000 0.1073142052
H   H35       1.0  0.39010  0.05110  0.44627  1.0000 0.1073142052
H   H36       1.0  0.33900  0.39010  0.61293  1.0000 0.1073142052
H   H37       1.0  0.84070  0.39030  0.74580  1.0000 0.0924963042
H   H38       1.0  0.45040  0.84070  0.91247  1.0000 0.0924963042
H   H39       1.0  0.60970  0.45040  0.07913  1.0000 0.0924963042
H   H40       1.0  0.15930  0.60970  0.24580  1.0000 0.0924963042
H   H41       1.0  0.54960  0.15930  0.41247  1.0000 0.0924963042
H   H42       1.0  0.39030  0.54960  0.57913  1.0000 0.0924963042
H   H43       1.0  0.81030  0.47500  0.88090  1.0000 0.1183946341
H   H44       1.0  0.33530  0.81030  0.04757  1.0000 0.1183946341
H   H45       1.0  0.52500  0.33530  0.21423  1.0000 0.1183946341
H   H46       1.0  0.18970  0.52500  0.38090  1.0000 0.1183946341
H   H47       1.0  0.66470  0.18970  0.54757  1.0000 0.1183946341
H   H48       1.0  0.47500  0.66470  0.71423  1.0000 0.1183946341
H   H49       1.0  0.83200  0.52290  0.74510  1.0000 0.1307773538
H   H50       1.0  0.30910  0.83200  0.91177  1.0000 0.1307773538
H   H51       1.0  0.47710  0.30910  0.07843  1.0000 0.1307773538
H   H52       1.0  0.16800  0.47710  0.24510  1.0000 0.1307773538
H   H53       1.0  0.69090  0.16800  0.41177  1.0000 0.1307773538
H   H54       1.0  0.52290  0.69090  0.57843  1.0000 0.1307773538
H   H55       1.0  0.90210  0.55760  0.85710  1.0000 0.1183946341
H   H56       1.0  0.34450  0.90210  0.02377  1.0000 0.1183946341
H   H57       1.0  0.44240  0.34450  0.19043  1.0000 0.1183946341
H   H58       1.0  0.09790  0.44240  0.35710  1.0000 0.1183946341
H   H59       1.0  0.65550  0.09790  0.52377  1.0000 0.1183946341
H   H60       1.0  0.55760  0.65550  0.69043  1.0000 0.1183946341
H   H61       1.0  0.92560  0.44520  0.94980  1.0000 0.2424266473
H   H62       1.0  0.48040  0.92560  0.11647  1.0000 0.2424266473
H   H63       1.0  0.55480  0.48040  0.28313  1.0000 0.2424266473
H   H64       1.0  0.07440  0.55480  0.44980  1.0000 0.2424266473
H   H65       1.0  0.51960  0.07440  0.61647  1.0000 0.2424266473
H   H66       1.0  0.44520  0.51960  0.78313  1.0000 0.2424266473
C   C1        1.0  0.70500  0.15340  0.85330  1.0000 0.0593066859
C   C2        1.0  0.55160  0.70500  0.01997  1.0000 0.0593066859
C   C3        1.0  0.84660  0.55160  0.18663  1.0000 0.0593066859
C   C4        1.0  0.29500  0.84660  0.35330  1.0000 0.0593066859
C   C5        1.0  0.44840  0.29500  0.51997  1.0000 0.0593066859
C   C6        1.0  0.15340  0.44840  0.68663  1.0000 0.0593066859
C   C7        1.0  0.79120  0.21300  0.81940  1.0000 -0.2353557114
C   C8        1.0  0.57820  0.79120  0.98607  1.0000 -0.2353557114
C   C9        1.0  0.78700  0.57820  0.15273  1.0000 -0.2353557114
C   C10       1.0  0.20880  0.78700  0.31940  1.0000 -0.2353557114
C   C11       1.0  0.42180  0.20880  0.48607  1.0000 -0.2353557114
C   C12       1.0  0.21300  0.42180  0.65273  1.0000 -0.2353557114
C   C13       1.0  0.84130  0.28170  0.90310  1.0000 0.1307773538
C   C14       1.0  0.55960  0.84130  0.06977  1.0000 0.1307773538
C   C15       1.0  0.71830  0.55960  0.23643  1.0000 0.1307773538
C   C16       1.0  0.15870  0.71830  0.40310  1.0000 0.1307773538
C   C17       1.0  0.44040  0.15870  0.56977  1.0000 0.1307773538
C   C18       1.0  0.28170  0.44040  0.73643  1.0000 0.1307773538
C   C19       1.0  0.80460  0.28460  0.01770  1.0000 -0.2071237927
C   C20       1.0  0.52000  0.80460  0.18437  1.0000 -0.2071237927
C   C21       1.0  0.71540  0.52000  0.35103  1.0000 -0.2071237927
C   C22       1.0  0.19540  0.71540  0.51770  1.0000 -0.2071237927
C   C23       1.0  0.48000  0.19540  0.68437  1.0000 -0.2071237927
C   C24       1.0  0.28460  0.48000  0.85103  1.0000 -0.2071237927
C   C25       1.0  0.71780  0.22260  0.04630  1.0000 0.0302037508
C   C26       1.0  0.49520  0.71780  0.21297  1.0000 0.0302037508
C   C27       1.0  0.77740  0.49520  0.37963  1.0000 0.0302037508
C   C28       1.0  0.28220  0.77740  0.54630  1.0000 0.0302037508
C   C29       1.0  0.50480  0.28220  0.71297  1.0000 0.0302037508
C   C30       1.0  0.22260  0.50480  0.87963  1.0000 0.0302037508
C   C31       1.0  0.93510  0.35080  0.86670  1.0000 -0.1700236961
C   C32       1.0  0.58430  0.93510  0.03337  1.0000 -0.1700236961
C   C33       1.0  0.64920  0.58430  0.20003  1.0000 -0.1700236961
C   C34       1.0  0.06490  0.64920  0.36670  1.0000 -0.1700236961
C   C35       1.0  0.41570  0.06490  0.53337  1.0000 -0.1700236961
C   C36       1.0  0.35080  0.41570  0.70003  1.0000 -0.1700236961
C   C37       1.0  0.89010  0.44780  0.76760  1.0000 -0.0084585233
C   C38       1.0  0.44230  0.89010  0.93427  1.0000 -0.0084585233
C   C39       1.0  0.55220  0.44230  0.10093  1.0000 -0.0084585233
C   C40       1.0  0.10990  0.55220  0.26760  1.0000 -0.0084585233
C   C41       1.0  0.55770  0.10990  0.43427  1.0000 -0.0084585233
C   C42       1.0  0.44780  0.55770  0.60093  1.0000 -0.0084585233
C   C43       1.0  0.94510  0.48870  0.64340  1.0000 0.5409432188
C   C44       1.0  0.45640  0.94510  0.81007  1.0000 0.5409432188
C   C45       1.0  0.51130  0.45640  0.97673  1.0000 0.5409432188
C   C46       1.0  0.05490  0.51130  0.14340  1.0000 0.5409432188
C   C47       1.0  0.54360  0.05490  0.31007  1.0000 0.5409432188
C   C48       1.0  0.48870  0.54360  0.47673  1.0000 0.5409432188
C   C49       1.0  0.85540  0.50620  0.81730  1.0000 -0.4461216792
C   C50       1.0  0.34920  0.85540  0.98397  1.0000 -0.4461216792
C   C51       1.0  0.49380  0.34920  0.15063  1.0000 -0.4461216792
C   C52       1.0  0.14460  0.49380  0.31730  1.0000 -0.4461216792
C   C53       1.0  0.65080  0.14460  0.48397  1.0000 -0.4461216792
C   C54       1.0  0.50620  0.65080  0.65063  1.0000 -0.4461216792
N   N1        1.0  0.94400  0.43780  0.87000  1.0000 -0.3585404917
N   N2        1.0  0.50620  0.94400  0.03667  1.0000 -0.3585404917
N   N3        1.0  0.56220  0.50620  0.20333  1.0000 -0.3585404917
N   N4        1.0  0.05600  0.56220  0.37000  1.0000 -0.3585404917
N   N5        1.0  0.49380  0.05600  0.53667  1.0000 -0.3585404917
N   N6        1.0  0.43780  0.49380  0.70333  1.0000 -0.3585404917
N   N7        1.0  0.66850  0.15780  0.96070  1.0000 -0.2353557114
N   N8        1.0  0.51070  0.66850  0.12737  1.0000 -0.2353557114
N   N9        1.0  0.84220  0.51070  0.29403  1.0000 -0.2353557114
N   N10       1.0  0.33150  0.84220  0.46070  1.0000 -0.2353557114
N   N11       1.0  0.48930  0.33150  0.62737  1.0000 -0.2353557114
N   N12       1.0  0.15780  0.48930  0.79403  1.0000 -0.2353557114
O   O1        1.0  0.02630  0.52340  0.64990  1.0000 -0.5818841919
O   O2        1.0  0.50290  0.02630  0.81657  1.0000 -0.5818841919
O   O3        1.0  0.47660  0.50290  0.98323  1.0000 -0.5818841919
O   O4        1.0  0.97370  0.47660  0.14990  1.0000 -0.5818841919
O   O5        1.0  0.49710  0.97370  0.31657  1.0000 -0.5818841919
O   O6        1.0  0.52340  0.49710  0.48323  1.0000 -0.5818841919
O   O7        1.0  0.90170  0.48160  0.54400  1.0000 -0.5579580133
O   O8        1.0  0.42010  0.90170  0.71067  1.0000 -0.5579580133
O   O9        1.0  0.51840  0.42010  0.87733  1.0000 -0.5579580133
O   O10       1.0  0.09830  0.51840  0.04400  1.0000 -0.5579580133
O   O11       1.0  0.57990  0.09830  0.21067  1.0000 -0.5579580133
O   O12       1.0  0.48160  0.57990  0.37733  1.0000 -0.5579580133
