# DDEC6 charges by PACMAN v1.1 (https://github.com/mtap-research/PACMAN-charge/)
data_2013[Co][sab]3[ASR]1
_chemical_formula_sum              "Co12 H32 C72 O52"
_cell_length_a       16.9881
_cell_length_b       16.9881
_cell_length_c       16.9881
_cell_angle_alpha    116.733
_cell_angle_beta     109.145
_cell_angle_gamma    102.839

_symmetry_space_group_name_H-M    "P 1"
_symmetry_Int_Tables_number       1

loop_
  _symmetry_equiv_pos_as_xyz
  'x, y, z'

loop_
  _atom_site_type_symbol
  _atom_site_label
  _atom_site_symmetry_multiplicity
  _atom_site_fract_x
  _atom_site_fract_y
  _atom_site_fract_z
  _atom_site_occupancy
  _atom_site_charge
Co  Co1       1.0  0.85896  0.88637  0.29605  1.0000 0.9279152429
Co  Co2       1.0  0.14104  0.43709  0.02741  1.0000 0.9279152429
Co  Co3       1.0  0.59032  0.38637  0.52741  1.0000 0.9279152429
Co  Co4       1.0  0.40968  0.93709  0.79605  1.0000 0.9279152429
Co  Co5       1.0  0.81262  0.95454  0.47898  1.0000 1.0961260474
Co  Co6       1.0  0.18738  0.66636  0.14192  1.0000 1.0961260474
Co  Co7       1.0  0.47556  0.45454  0.64192  1.0000 1.0961260474
Co  Co8       1.0  0.52444  0.16636  0.97898  1.0000 1.0961260474
Co  Co9       1.0  0.86211  0.75876  0.42085  1.0000 0.9970856137
Co  Co10      1.0  0.13789  0.55874  0.89665  1.0000 0.9970856137
Co  Co11      1.0  0.33791  0.25876  0.39665  1.0000 0.9970856137
Co  Co12      1.0  0.66209  0.05874  0.92085  1.0000 0.9970856137
H   H1        1.0  0.02690  0.22760  0.64470  1.0000 0.1326637934
H   H2        1.0  0.97310  0.61780  0.20070  1.0000 0.1326637934
H   H3        1.0  0.58290  0.72760  0.70070  1.0000 0.1326637934
H   H4        1.0  0.41710  0.11780  0.14470  1.0000 0.1326637934
H   H5        1.0  0.14110  0.12930  0.46800  1.0000 0.1403300831
H   H6        1.0  0.85890  0.32690  0.98820  1.0000 0.1403300831
H   H7        1.0  0.66130  0.62930  0.48820  1.0000 0.1403300831
H   H8        1.0  0.33870  0.82690  0.96800  1.0000 0.1403300831
H   H9        1.0  0.28740  0.36640  0.02860  1.0000 0.3397605694
H   H10       1.0  0.71260  0.74120  0.07900  1.0000 0.3397605694
H   H11       1.0  0.33780  0.86640  0.57900  1.0000 0.3397605694
H   H12       1.0  0.66220  0.24120  0.52860  1.0000 0.3397605694
H   H13       1.0  0.28810  0.40180  0.73270  1.0000 0.1326637934
H   H14       1.0  0.71190  0.44460  0.11370  1.0000 0.1326637934
H   H15       1.0  0.66910  0.90180  0.61370  1.0000 0.1326637934
H   H16       1.0  0.33090  0.94460  0.23270  1.0000 0.1326637934
H   H17       1.0  0.03510  0.13580  0.75570  1.0000 0.1403300831
H   H18       1.0  0.96490  0.72060  0.10070  1.0000 0.1403300831
H   H19       1.0  0.38010  0.63580  0.60070  1.0000 0.1403300831
H   H20       1.0  0.61990  0.22060  0.25570  1.0000 0.1403300831
H   H21       1.0  0.14660  0.95650  0.65850  1.0000 0.1326637934
H   H22       1.0  0.85340  0.51190  0.80990  1.0000 0.1326637934
H   H23       1.0  0.29800  0.45650  0.30990  1.0000 0.1326637934
H   H24       1.0  0.70200  0.01190  0.15850  1.0000 0.1326637934
H   H25       1.0  0.30750  0.23830  0.90380  1.0000 0.1326637934
H   H26       1.0  0.69250  0.59630  0.93080  1.0000 0.1326637934
H   H27       1.0  0.33450  0.73830  0.43080  1.0000 0.1326637934
H   H28       1.0  0.66550  0.09630  0.40380  1.0000 0.1326637934
H   H29       1.0  0.85900  0.82600  0.35500  1.0000 0.3130335412
H   H30       1.0  0.14100  0.49600  0.96700  1.0000 0.3130335412
H   H31       1.0  0.47100  0.32600  0.46700  1.0000 0.3130335412
H   H32       1.0  0.52900  0.99600  0.85500  1.0000 0.3130335412
C   C1        1.0  0.15770  0.41610  0.78160  1.0000 0.5272375024
C   C2        1.0  0.84230  0.62390  0.25840  1.0000 0.5272375024
C   C3        1.0  0.63450  0.91610  0.75840  1.0000 0.5272375024
C   C4        1.0  0.36550  0.12390  0.28160  1.0000 0.5272375024
C   C5        1.0  0.15590  0.33020  0.69890  1.0000 -0.0238148375
C   C6        1.0  0.84410  0.54300  0.17430  1.0000 -0.0238148375
C   C7        1.0  0.63130  0.83020  0.67430  1.0000 -0.0238148375
C   C8        1.0  0.36870  0.04300  0.19890  1.0000 -0.0238148375
C   C9        1.0  0.07610  0.23760  0.63170  1.0000 -0.1084168894
C   C10       1.0  0.92390  0.55560  0.16150  1.0000 -0.1084168894
C   C11       1.0  0.60590  0.73760  0.66150  1.0000 -0.1084168894
C   C12       1.0  0.39410  0.05560  0.13170  1.0000 -0.1084168894
C   C13       1.0  0.22180  0.26750  0.58890  1.0000 -0.0566078951
C   C14       1.0  0.77820  0.36710  0.04570  1.0000 -0.0566078951
C   C15       1.0  0.67860  0.76750  0.54570  1.0000 -0.0566078951
C   C16       1.0  0.32140  0.86710  0.08890  1.0000 -0.0566078951
C   C17       1.0  0.14570  0.17950  0.52580  1.0000 -0.0820508232
C   C18       1.0  0.85430  0.38010  0.03380  1.0000 -0.0820508232
C   C19       1.0  0.65370  0.67950  0.53380  1.0000 -0.0820508232
C   C20       1.0  0.34630  0.88010  0.02580  1.0000 -0.0820508232
C   C21       1.0  0.07140  0.16490  0.54990  1.0000 -0.0039571109
C   C22       1.0  0.92860  0.47850  0.09350  1.0000 -0.0039571109
C   C23       1.0  0.61500  0.66490  0.59350  1.0000 -0.0039571109
C   C24       1.0  0.38500  0.97850  0.04990  1.0000 -0.0039571109
C   C25       1.0  0.98460  0.06620  0.47880  1.0000 0.578415004
C   C26       1.0  0.01540  0.49420  0.08160  1.0000 0.578415004
C   C27       1.0  0.58740  0.56620  0.58160  1.0000 0.578415004
C   C28       1.0  0.41260  0.99420  0.97880  1.0000 0.578415004
C   C29       1.0  0.23270  0.34540  0.68450  1.0000 -0.1012884625
C   C30       1.0  0.76730  0.45180  0.11270  1.0000 -0.1012884625
C   C31       1.0  0.66090  0.84540  0.61270  1.0000 -0.1012884625
C   C32       1.0  0.33910  0.95180  0.18450  1.0000 -0.1012884625
C   C33       1.0  0.17270  0.19920  0.84550  1.0000 -0.0340927434
C   C34       1.0  0.82730  0.67280  0.02650  1.0000 -0.0340927434
C   C35       1.0  0.35370  0.69920  0.52650  1.0000 -0.0340927434
C   C36       1.0  0.64630  0.17280  0.34550  1.0000 -0.0340927434
C   C37       1.0  0.08740  0.12440  0.76460  1.0000 -0.0876587839
C   C38       1.0  0.91260  0.67720  0.03700  1.0000 -0.0876587839
C   C39       1.0  0.35980  0.62440  0.53700  1.0000 -0.0876587839
C   C40       1.0  0.64020  0.17720  0.26460  1.0000 -0.0876587839
C   C41       1.0  0.07730  0.03310  0.69660  1.0000 -0.0078664972
C   C42       1.0  0.92270  0.61930  0.95580  1.0000 -0.0078664972
C   C43       1.0  0.33650  0.53310  0.45580  1.0000 -0.0078664972
C   C44       1.0  0.66350  0.11930  0.19660  1.0000 -0.0078664972
C   C45       1.0  0.15290  0.01650  0.70660  1.0000 -0.0820508232
C   C46       1.0  0.84710  0.55370  0.86360  1.0000 -0.0820508232
C   C47       1.0  0.30990  0.51650  0.36360  1.0000 -0.0820508232
C   C48       1.0  0.69010  0.05370  0.20660  1.0000 -0.0820508232
C   C49       1.0  0.24560  0.09280  0.79340  1.0000 -0.0429531583
C   C50       1.0  0.75440  0.54780  0.84720  1.0000 -0.0429531583
C   C51       1.0  0.29940  0.59280  0.34720  1.0000 -0.0429531583
C   C52       1.0  0.70060  0.04780  0.29340  1.0000 -0.0429531583
C   C53       1.0  0.24970  0.18500  0.85490  1.0000 -0.1177753662
C   C54       1.0  0.75030  0.60520  0.93530  1.0000 -0.1177753662
C   C55       1.0  0.33010  0.68500  0.43530  1.0000 -0.1177753662
C   C56       1.0  0.66990  0.10520  0.35490  1.0000 -0.1177753662
C   C57       1.0  0.18810  0.30360  0.92370  1.0000 0.5451274789
C   C58       1.0  0.81190  0.73560  0.11550  1.0000 0.5451274789
C   C59       1.0  0.37990  0.80360  0.61550  1.0000 0.5451274789
C   C60       1.0  0.62010  0.23560  0.42370  1.0000 0.5451274789
C   C61       1.0  0.98400  0.95000  0.60540  1.0000 0.5870094574
C   C62       1.0  0.01600  0.62140  0.96600  1.0000 0.5870094574
C   C63       1.0  0.34460  0.45000  0.46600  1.0000 0.5870094574
C   C64       1.0  0.65540  0.12140  0.10540  1.0000 0.5870094574
C   C65       1.0  0.29730  0.29140  0.56950  1.0000 0.5870094574
C   C66       1.0  0.70270  0.27220  0.99410  1.0000 0.5870094574
C   C67       1.0  0.72190  0.79140  0.49410  1.0000 0.5870094574
C   C68       1.0  0.27810  0.77220  0.06950  1.0000 0.5870094574
C   C69       1.0  0.32580  0.07270  0.80750  1.0000 0.578415004
C   C70       1.0  0.67420  0.48170  0.74690  1.0000 0.578415004
C   C71       1.0  0.26520  0.57270  0.24690  1.0000 0.578415004
C   C72       1.0  0.73480  0.98170  0.30750  1.0000 0.578415004
O   O1        1.0  0.22810  0.49590  0.84100  1.0000 -0.5262634033
O   O2        1.0  0.77190  0.61290  0.26780  1.0000 -0.5262634033
O   O3        1.0  0.65490  0.99590  0.76780  1.0000 -0.5262634033
O   O4        1.0  0.34510  0.11290  0.34100  1.0000 -0.5262634033
O   O5        1.0  0.08320  0.40590  0.78950  1.0000 -0.5609605895
O   O6        1.0  0.91680  0.70630  0.32270  1.0000 -0.5609605895
O   O7        1.0  0.61640  0.90590  0.82270  1.0000 -0.5609605895
O   O8        1.0  0.38360  0.20630  0.28950  1.0000 -0.5609605895
O   O9        1.0  0.92130  0.06210  0.49980  1.0000 -0.5733375126
O   O10       1.0  0.07870  0.57850  0.14080  1.0000 -0.5733375126
O   O11       1.0  0.56230  0.56210  0.64080  1.0000 -0.5733375126
O   O12       1.0  0.43770  0.07850  0.99980  1.0000 -0.5733375126
O   O13       1.0  0.98320  0.00430  0.40430  1.0000 -0.493139925
O   O14       1.0  0.01680  0.42110  0.02110  1.0000 -0.493139925
O   O15       1.0  0.60000  0.50430  0.52110  1.0000 -0.493139925
O   O16       1.0  0.40000  0.92110  0.90430  1.0000 -0.493139925
O   O17       1.0  0.10830  0.30170  0.91920  1.0000 -0.5128838741
O   O18       1.0  0.89170  0.81090  0.19340  1.0000 -0.5128838741
O   O19       1.0  0.38250  0.80170  0.69340  1.0000 -0.5128838741
O   O20       1.0  0.61750  0.31090  0.41920  1.0000 -0.5128838741
O   O21       1.0  0.26100  0.37060  0.98160  1.0000 -0.3110596263
O   O22       1.0  0.73900  0.72060  0.10960  1.0000 -0.3110596263
O   O23       1.0  0.38900  0.87060  0.60960  1.0000 -0.3110596263
O   O24       1.0  0.61100  0.22060  0.48160  1.0000 -0.3110596263
O   O25       1.0  0.98000  0.87790  0.54030  1.0000 -0.493139925
O   O26       1.0  0.02000  0.56030  0.89790  1.0000 -0.493139925
O   O27       1.0  0.33760  0.37790  0.39790  1.0000 -0.493139925
O   O28       1.0  0.66240  0.06030  0.04030  1.0000 -0.493139925
O   O29       1.0  0.91520  0.97010  0.59990  1.0000 -0.5765508139
O   O30       1.0  0.08480  0.68470  0.05490  1.0000 -0.5765508139
O   O31       1.0  0.37020  0.47010  0.55490  1.0000 -0.5765508139
O   O32       1.0  0.62980  0.18470  0.09990  1.0000 -0.5765508139
O   O33       1.0  0.40260  0.14770  0.86670  1.0000 -0.5609605895
O   O34       1.0  0.59740  0.46410  0.74510  1.0000 -0.5609605895
O   O35       1.0  0.28100  0.64770  0.24510  1.0000 -0.5609605895
O   O36       1.0  0.71900  0.96410  0.36670  1.0000 -0.5609605895
O   O37       1.0  0.38020  0.35620  0.64140  1.0000 -0.5609605895
O   O38       1.0  0.61980  0.26120  0.97600  1.0000 -0.5609605895
O   O39       1.0  0.71480  0.85620  0.47600  1.0000 -0.5609605895
O   O40       1.0  0.28520  0.76120  0.14140  1.0000 -0.5609605895
O   O41       1.0  0.81690  0.83890  0.36560  1.0000 -0.8834360266
O   O42       1.0  0.18310  0.54870  0.02200  1.0000 -0.8834360266
O   O43       1.0  0.47330  0.33890  0.52200  1.0000 -0.8834360266
O   O44       1.0  0.52670  0.04870  0.86560  1.0000 -0.8834360266
O   O45       1.0  0.27740  0.24350  0.47950  1.0000 -0.5262634033
O   O46       1.0  0.72260  0.20210  0.96610  1.0000 -0.5262634033
O   O47       1.0  0.76400  0.74350  0.46610  1.0000 -0.5262634033
O   O48       1.0  0.23600  0.70210  0.97950  1.0000 -0.5262634033
O   O49       1.0  0.31330  0.98460  0.76290  1.0000 -0.5609605895
O   O50       1.0  0.68670  0.44960  0.67130  1.0000 -0.5609605895
O   O51       1.0  0.22170  0.48460  0.17130  1.0000 -0.5609605895
O   O52       1.0  0.77830  0.94960  0.26290  1.0000 -0.5609605895
