# DDEC6 charges by PACMAN v1.1 (https://github.com/mtap-research/PACMAN-charge/)
data_2013[Cu][bnn]3[ASR]1
_chemical_formula_sum              "Cu16 H88 C124 N28 O52"
_cell_length_a       16
_cell_length_b       21.411
_cell_length_c       19.198
_cell_angle_alpha    90
_cell_angle_beta     99.861
_cell_angle_gamma    90

_symmetry_space_group_name_H-M    "P 1"
_symmetry_Int_Tables_number       1

loop_
  _symmetry_equiv_pos_as_xyz
  'x, y, z'

loop_
  _atom_site_type_symbol
  _atom_site_label
  _atom_site_symmetry_multiplicity
  _atom_site_fract_x
  _atom_site_fract_y
  _atom_site_fract_z
  _atom_site_occupancy
  _atom_site_charge
Cu  Cu1       1.0  0.63877  0.35095  0.97809  1.0000 1.0679205271
Cu  Cu2       1.0  0.36123  0.85095  0.52191  1.0000 1.0679205271
Cu  Cu3       1.0  0.36123  0.64905  0.02191  1.0000 1.0679205271
Cu  Cu4       1.0  0.63877  0.14905  0.47809  1.0000 1.0679205271
Cu  Cu5       1.0  0.51047  0.22795  0.90416  1.0000 0.8763293835
Cu  Cu6       1.0  0.48953  0.72795  0.59584  1.0000 0.8763293835
Cu  Cu7       1.0  0.48953  0.77205  0.09584  1.0000 0.8763293835
Cu  Cu8       1.0  0.51047  0.27205  0.40416  1.0000 0.8763293835
Cu  Cu9       1.0  0.68744  0.26157  0.87060  1.0000 1.0445011469
Cu  Cu10      1.0  0.31256  0.76157  0.62940  1.0000 1.0445011469
Cu  Cu11      1.0  0.31256  0.73843  0.12940  1.0000 1.0445011469
Cu  Cu12      1.0  0.68744  0.23843  0.37060  1.0000 1.0445011469
Cu  Cu13      1.0  0.81268  0.37410  0.91464  1.0000 1.017412177
Cu  Cu14      1.0  0.18732  0.87410  0.58536  1.0000 1.017412177
Cu  Cu15      1.0  0.18732  0.62590  0.08536  1.0000 1.017412177
Cu  Cu16      1.0  0.81268  0.12590  0.41464  1.0000 1.017412177
H   H1        1.0  0.12260  0.33760  0.03680  1.0000 0.299854106
H   H2        1.0  0.87740  0.83760  0.46320  1.0000 0.299854106
H   H3        1.0  0.87740  0.66240  0.96320  1.0000 0.299854106
H   H4        1.0  0.12260  0.16240  0.53680  1.0000 0.299854106
H   H5        1.0  0.04840  0.12870  0.16780  1.0000 0.299854106
H   H6        1.0  0.95160  0.62870  0.33220  1.0000 0.299854106
H   H7        1.0  0.95160  0.87130  0.83220  1.0000 0.299854106
H   H8        1.0  0.04840  0.37130  0.66780  1.0000 0.299854106
H   H9        1.0  0.17730  0.43590  0.03440  1.0000 0.1397437714
H   H10       1.0  0.82270  0.93590  0.46560  1.0000 0.1397437714
H   H11       1.0  0.82270  0.56410  0.96560  1.0000 0.1397437714
H   H12       1.0  0.17730  0.06410  0.53440  1.0000 0.1397437714
H   H13       1.0  0.31000  0.28790  0.98830  1.0000 0.1224378161
H   H14       1.0  0.69000  0.78790  0.51170  1.0000 0.1224378161
H   H15       1.0  0.69000  0.71210  0.01170  1.0000 0.1224378161
H   H16       1.0  0.31000  0.21210  0.48830  1.0000 0.1224378161
H   H17       1.0  0.41020  0.46050  0.98770  1.0000 0.1397437714
H   H18       1.0  0.58980  0.96050  0.51230  1.0000 0.1397437714
H   H19       1.0  0.58980  0.53950  0.01230  1.0000 0.1397437714
H   H20       1.0  0.41020  0.03950  0.48770  1.0000 0.1397437714
H   H21       1.0  0.95770  0.15860  0.25020  1.0000 0.1306382037
H   H22       1.0  0.04230  0.65860  0.24980  1.0000 0.1306382037
H   H23       1.0  0.04230  0.84140  0.74980  1.0000 0.1306382037
H   H24       1.0  0.95770  0.34140  0.75020  1.0000 0.1306382037
H   H25       1.0  0.31950  0.13710  0.03500  1.0000 0.2856520327
H   H26       1.0  0.68050  0.63710  0.46500  1.0000 0.2856520327
H   H27       1.0  0.68050  0.86290  0.96500  1.0000 0.2856520327
H   H28       1.0  0.31950  0.36290  0.53500  1.0000 0.2856520327
H   H29       1.0  0.94780  0.24290  0.06190  1.0000 0.1306382037
H   H30       1.0  0.05220  0.74290  0.43810  1.0000 0.1306382037
H   H31       1.0  0.05220  0.75710  0.93810  1.0000 0.1306382037
H   H32       1.0  0.94780  0.25710  0.56190  1.0000 0.1306382037
H   H33       1.0  0.20120  0.03770  0.12640  1.0000 0.1306382037
H   H34       1.0  0.79880  0.53770  0.37360  1.0000 0.1306382037
H   H35       1.0  0.79880  0.96230  0.87360  1.0000 0.1306382037
H   H36       1.0  0.20120  0.46230  0.62640  1.0000 0.1306382037
H   H37       1.0  0.23340  0.93410  0.14530  1.0000 0.1306382037
H   H38       1.0  0.76660  0.43410  0.35470  1.0000 0.1306382037
H   H39       1.0  0.76660  0.06590  0.85470  1.0000 0.1306382037
H   H40       1.0  0.23340  0.56590  0.64530  1.0000 0.1306382037
H   H41       1.0  0.44390  0.95570  0.06310  1.0000 0.1224378161
H   H42       1.0  0.55610  0.45570  0.43690  1.0000 0.1224378161
H   H43       1.0  0.55610  0.04430  0.93690  1.0000 0.1224378161
H   H44       1.0  0.44390  0.54430  0.56310  1.0000 0.1224378161
H   H45       1.0  0.40740  0.05760  0.03640  1.0000 0.1306382037
H   H46       1.0  0.59260  0.55760  0.46360  1.0000 0.1306382037
H   H47       1.0  0.59260  0.94240  0.96360  1.0000 0.1306382037
H   H48       1.0  0.40740  0.44240  0.53640  1.0000 0.1306382037
H   H49       1.0  0.76390  0.27350  0.17570  1.0000 0.1306382037
H   H50       1.0  0.23610  0.77350  0.32430  1.0000 0.1306382037
H   H51       1.0  0.23610  0.72650  0.82430  1.0000 0.1306382037
H   H52       1.0  0.76390  0.22650  0.67570  1.0000 0.1306382037
H   H53       1.0  0.40190  0.30850  0.78070  1.0000 0.1570074769
H   H54       1.0  0.59810  0.80850  0.71930  1.0000 0.1570074769
H   H55       1.0  0.59810  0.69150  0.21930  1.0000 0.1570074769
H   H56       1.0  0.40190  0.19150  0.28070  1.0000 0.1570074769
H   H57       1.0  0.36170  0.33510  0.70640  1.0000 0.1306382037
H   H58       1.0  0.63830  0.83510  0.79360  1.0000 0.1306382037
H   H59       1.0  0.63830  0.66490  0.29360  1.0000 0.1306382037
H   H60       1.0  0.36170  0.16490  0.20640  1.0000 0.1306382037
H   H61       1.0  0.33810  0.26770  0.72850  1.0000 0.1306382037
H   H62       1.0  0.66190  0.76770  0.77150  1.0000 0.1306382037
H   H63       1.0  0.66190  0.73230  0.27150  1.0000 0.1306382037
H   H64       1.0  0.33810  0.23230  0.22850  1.0000 0.1306382037
H   H65       1.0  0.60700  0.19520  0.70950  1.0000 0.149094707
H   H66       1.0  0.39300  0.69520  0.79050  1.0000 0.149094707
H   H67       1.0  0.39300  0.80480  0.29050  1.0000 0.149094707
H   H68       1.0  0.60700  0.30480  0.20950  1.0000 0.149094707
H   H69       1.0  0.62890  0.26330  0.68680  1.0000 0.1397437714
H   H70       1.0  0.37110  0.76330  0.81320  1.0000 0.1397437714
H   H71       1.0  0.37110  0.73670  0.31320  1.0000 0.1397437714
H   H72       1.0  0.62890  0.23670  0.18680  1.0000 0.1397437714
H   H73       1.0  0.55020  0.24600  0.58460  1.0000 0.1224378161
H   H74       1.0  0.44980  0.74600  0.91540  1.0000 0.1224378161
H   H75       1.0  0.44980  0.75400  0.41540  1.0000 0.1224378161
H   H76       1.0  0.55020  0.25400  0.08460  1.0000 0.1224378161
H   H77       1.0  0.51880  0.18200  0.61120  1.0000 0.1128416161
H   H78       1.0  0.48120  0.68200  0.88880  1.0000 0.1128416161
H   H79       1.0  0.48120  0.81800  0.38880  1.0000 0.1128416161
H   H80       1.0  0.51880  0.31800  0.11120  1.0000 0.1128416161
H   H81       1.0  0.39560  0.22650  0.61680  1.0000 0.0976920637
H   H82       1.0  0.60440  0.72650  0.88320  1.0000 0.0976920637
H   H83       1.0  0.60440  0.77350  0.38320  1.0000 0.0976920637
H   H84       1.0  0.39560  0.27350  0.11680  1.0000 0.0976920637
H   H85       1.0  0.43090  0.29240  0.59880  1.0000 0.0913263025
H   H86       1.0  0.56910  0.79240  0.90120  1.0000 0.0913263025
H   H87       1.0  0.56910  0.70760  0.40120  1.0000 0.0913263025
H   H88       1.0  0.43090  0.20760  0.09880  1.0000 0.0913263025
C   C1        1.0  0.96619  0.19743  0.15470  1.0000 0.2194648981
C   C2        1.0  0.03381  0.69743  0.34530  1.0000 0.2194648981
C   C3        1.0  0.03381  0.80257  0.84530  1.0000 0.2194648981
C   C4        1.0  0.96619  0.30257  0.65470  1.0000 0.2194648981
C   C5        1.0  0.22688  0.41920  0.02303  1.0000 -0.2046682028
C   C6        1.0  0.77312  0.91920  0.47697  1.0000 -0.2046682028
C   C7        1.0  0.77312  0.58080  0.97697  1.0000 -0.2046682028
C   C8        1.0  0.22688  0.08080  0.52303  1.0000 -0.2046682028
C   C9        1.0  0.16908  0.25783  0.05870  1.0000 0.5274396651
C   C10       1.0  0.83092  0.75783  0.44130  1.0000 0.5274396651
C   C11       1.0  0.83092  0.74217  0.94130  1.0000 0.5274396651
C   C12       1.0  0.16908  0.24217  0.55870  1.0000 0.5274396651
C   C13       1.0  0.10449  0.18447  0.11361  1.0000 0.5274396651
C   C14       1.0  0.89551  0.68447  0.38639  1.0000 0.5274396651
C   C15       1.0  0.89551  0.81553  0.88639  1.0000 0.5274396651
C   C16       1.0  0.10449  0.31553  0.61361  1.0000 0.5274396651
C   C17       1.0  0.30600  0.33067  0.99586  1.0000 -0.2080610761
C   C18       1.0  0.69400  0.83067  0.50414  1.0000 -0.2080610761
C   C19       1.0  0.69400  0.66933  0.00414  1.0000 -0.2080610761
C   C20       1.0  0.30600  0.16933  0.49586  1.0000 -0.2080610761
C   C21       1.0  0.29119  0.45907  0.01065  1.0000 0.0080108852
C   C22       1.0  0.70881  0.95907  0.48935  1.0000 0.0080108852
C   C23       1.0  0.70881  0.54093  0.98935  1.0000 0.0080108852
C   C24       1.0  0.29119  0.04093  0.51065  1.0000 0.0080108852
C   C25       1.0  0.23521  0.35506  0.01877  1.0000 0.2194648981
C   C26       1.0  0.76479  0.85506  0.48123  1.0000 0.2194648981
C   C27       1.0  0.76479  0.64494  0.98123  1.0000 0.2194648981
C   C28       1.0  0.23521  0.14494  0.51877  1.0000 0.2194648981
C   C29       1.0  0.22192  0.16122  0.07141  1.0000 0.5274396651
C   C30       1.0  0.77808  0.66122  0.42859  1.0000 0.5274396651
C   C31       1.0  0.77808  0.83878  0.92859  1.0000 0.5274396651
C   C32       1.0  0.22192  0.33878  0.57141  1.0000 0.5274396651
C   C33       1.0  0.36534  0.43439  0.99317  1.0000 -0.1212809415
C   C34       1.0  0.63466  0.93439  0.50683  1.0000 -0.1212809415
C   C35       1.0  0.63466  0.56561  0.00683  1.0000 -0.1212809415
C   C36       1.0  0.36534  0.06561  0.49317  1.0000 -0.1212809415
C   C37       1.0  0.93094  0.18559  0.21547  1.0000 -0.2080610761
C   C38       1.0  0.06906  0.68559  0.28453  1.0000 -0.2080610761
C   C39       1.0  0.06906  0.81441  0.78453  1.0000 -0.2080610761
C   C40       1.0  0.93094  0.31441  0.71547  1.0000 -0.2080610761
C   C41       1.0  0.29980  0.05846  0.07782  1.0000 0.2194648981
C   C42       1.0  0.70020  0.55846  0.42218  1.0000 0.2194648981
C   C43       1.0  0.70020  0.94154  0.92218  1.0000 0.2194648981
C   C44       1.0  0.29980  0.44154  0.57782  1.0000 0.2194648981
C   C45       1.0  0.92448  0.23549  0.10232  1.0000 -0.1903584575
C   C46       1.0  0.07552  0.73549  0.39768  1.0000 -0.1903584575
C   C47       1.0  0.07552  0.76451  0.89768  1.0000 -0.1903584575
C   C48       1.0  0.92448  0.26451  0.60232  1.0000 -0.1903584575
C   C49       1.0  0.24910  0.02107  0.11190  1.0000 -0.1903584575
C   C50       1.0  0.75090  0.52107  0.38810  1.0000 -0.1903584575
C   C51       1.0  0.75090  0.97893  0.88810  1.0000 -0.1903584575
C   C52       1.0  0.24910  0.47893  0.61190  1.0000 -0.1903584575
C   C53       1.0  0.28289  0.52860  0.01975  1.0000 0.5976222965
C   C54       1.0  0.71711  0.02860  0.48025  1.0000 0.5976222965
C   C55       1.0  0.71711  0.47140  0.98025  1.0000 0.5976222965
C   C56       1.0  0.28289  0.97140  0.51975  1.0000 0.5976222965
C   C57       1.0  0.26940  0.95920  0.12420  1.0000 -0.0741007788
C   C58       1.0  0.73060  0.45920  0.37580  1.0000 -0.0741007788
C   C59       1.0  0.73060  0.04080  0.87580  1.0000 -0.0741007788
C   C60       1.0  0.26940  0.54080  0.62420  1.0000 -0.0741007788
C   C61       1.0  0.34219  0.93320  0.10604  1.0000 -0.0355534836
C   C62       1.0  0.65781  0.43320  0.39396  1.0000 -0.0355534836
C   C63       1.0  0.65781  0.06680  0.89396  1.0000 -0.0355534836
C   C64       1.0  0.34219  0.56680  0.60604  1.0000 -0.0355534836
C   C65       1.0  0.39380  0.97158  0.07440  1.0000 -0.0741007788
C   C66       1.0  0.60620  0.47158  0.42560  1.0000 -0.0741007788
C   C67       1.0  0.60620  0.02842  0.92560  1.0000 -0.0741007788
C   C68       1.0  0.39380  0.52842  0.57440  1.0000 -0.0741007788
C   C69       1.0  0.36310  0.86554  0.11628  1.0000 0.590287925
C   C70       1.0  0.63690  0.36554  0.38372  1.0000 0.590287925
C   C71       1.0  0.63690  0.13446  0.88372  1.0000 0.590287925
C   C72       1.0  0.36310  0.63446  0.61628  1.0000 0.590287925
C   C73       1.0  0.37260  0.03300  0.05930  1.0000 -0.2229584543
C   C74       1.0  0.62740  0.53300  0.44070  1.0000 -0.2229584543
C   C75       1.0  0.62740  0.96700  0.94070  1.0000 -0.2229584543
C   C76       1.0  0.37260  0.46700  0.55930  1.0000 -0.2229584543
C   C77       1.0  0.85473  0.21507  0.22302  1.0000 0.0037693331
C   C78       1.0  0.14527  0.71507  0.27698  1.0000 0.0037693331
C   C79       1.0  0.14527  0.78493  0.77698  1.0000 0.0037693331
C   C80       1.0  0.85473  0.28493  0.72302  1.0000 0.0037693331
C   C81       1.0  0.84736  0.26314  0.10940  1.0000 0.0080108852
C   C82       1.0  0.15264  0.76314  0.39060  1.0000 0.0080108852
C   C83       1.0  0.15264  0.73686  0.89060  1.0000 0.0080108852
C   C84       1.0  0.84736  0.23686  0.60940  1.0000 0.0080108852
C   C85       1.0  0.79830  0.29893  0.04826  1.0000 0.590287925
C   C86       1.0  0.20170  0.79893  0.45174  1.0000 0.590287925
C   C87       1.0  0.20170  0.70107  0.95174  1.0000 0.590287925
C   C88       1.0  0.79830  0.20107  0.54826  1.0000 0.590287925
C   C89       1.0  0.81409  0.25368  0.17022  1.0000 -0.1287226466
C   C90       1.0  0.18591  0.75368  0.32978  1.0000 -0.1287226466
C   C91       1.0  0.18591  0.74632  0.82978  1.0000 -0.1287226466
C   C92       1.0  0.81409  0.24632  0.67022  1.0000 -0.1287226466
C   C93       1.0  0.81710  0.20363  0.28894  1.0000 0.590287925
C   C94       1.0  0.18290  0.70363  0.21106  1.0000 0.590287925
C   C95       1.0  0.18290  0.79637  0.71106  1.0000 0.590287925
C   C96       1.0  0.81710  0.29637  0.78894  1.0000 0.590287925
C   C97       1.0  0.37167  0.37063  0.98408  1.0000 -0.0043640193
C   C98       1.0  0.62833  0.87063  0.51592  1.0000 -0.0043640193
C   C99       1.0  0.62833  0.62937  0.01592  1.0000 -0.0043640193
C   C100      1.0  0.37167  0.12937  0.48408  1.0000 -0.0043640193
C   C101      1.0  0.45031  0.34258  0.96336  1.0000 0.5751714917
C   C102      1.0  0.54969  0.84258  0.53664  1.0000 0.5751714917
C   C103      1.0  0.54969  0.65742  0.03664  1.0000 0.5751714917
C   C104      1.0  0.45031  0.15742  0.46336  1.0000 0.5751714917
C   C105      1.0  0.52680  0.26164  0.73920  1.0000 0.4789417001
C   C106      1.0  0.47320  0.76164  0.76080  1.0000 0.4789417001
C   C107      1.0  0.47320  0.73836  0.26080  1.0000 0.4789417001
C   C108      1.0  0.52680  0.23836  0.23920  1.0000 0.4789417001
C   C109      1.0  0.38260  0.29820  0.73190  1.0000 -0.3151194242
C   C110      1.0  0.61740  0.79820  0.76810  1.0000 -0.3151194242
C   C111      1.0  0.61740  0.70180  0.26810  1.0000 -0.3151194242
C   C112      1.0  0.38260  0.20180  0.23190  1.0000 -0.3151194242
C   C113      1.0  0.58300  0.23480  0.69130  1.0000 -0.3042550845
C   C114      1.0  0.41700  0.73480  0.80870  1.0000 -0.3042550845
C   C115      1.0  0.41700  0.76520  0.30870  1.0000 -0.3042550845
C   C116      1.0  0.58300  0.26520  0.19130  1.0000 -0.3042550845
C   C117      1.0  0.52620  0.22610  0.62210  1.0000 -0.1575194088
C   C118      1.0  0.47380  0.72610  0.87790  1.0000 -0.1575194088
C   C119      1.0  0.47380  0.77390  0.37790  1.0000 -0.1575194088
C   C120      1.0  0.52620  0.27390  0.12210  1.0000 -0.1575194088
C   C121      1.0  0.44190  0.25580  0.62880  1.0000 -0.1059567717
C   C122      1.0  0.55810  0.75580  0.87120  1.0000 -0.1059567717
C   C123      1.0  0.55810  0.74420  0.37120  1.0000 -0.1059567717
C   C124      1.0  0.44190  0.24420  0.12880  1.0000 -0.1059567717
N   N1        1.0  0.22968  0.21895  0.04607  1.0000 -0.5173676531
N   N2        1.0  0.77032  0.71895  0.45393  1.0000 -0.5109206397
N   N3        1.0  0.77032  0.78105  0.95393  1.0000 -0.5109206397
N   N4        1.0  0.22968  0.28105  0.54607  1.0000 -0.5109206397
N   N5        1.0  0.16315  0.14115  0.10760  1.0000 -0.5173676531
N   N6        1.0  0.83685  0.64115  0.39240  1.0000 -0.5173676531
N   N7        1.0  0.83685  0.85885  0.89240  1.0000 -0.5173676531
N   N8        1.0  0.16315  0.35885  0.60760  1.0000 -0.5173676531
N   N9        1.0  0.10333  0.24352  0.09085  1.0000 -0.5173676531
N   N10       1.0  0.89667  0.74352  0.40915  1.0000 -0.5173676531
N   N11       1.0  0.89667  0.75648  0.90915  1.0000 -0.5173676531
N   N12       1.0  0.10333  0.25648  0.59085  1.0000 -0.5173676531
N   N13       1.0  0.17005  0.31831  0.03819  1.0000 -0.3263582302
N   N14       1.0  0.82995  0.81831  0.46181  1.0000 -0.3263582302
N   N15       1.0  0.82995  0.68169  0.96181  1.0000 -0.3263582302
N   N16       1.0  0.17005  0.18169  0.53819  1.0000 -0.3263582302
N   N17       1.0  0.04169  0.16476  0.14798  1.0000 -0.3422879366
N   N18       1.0  0.95831  0.66476  0.35202  1.0000 -0.3422879366
N   N19       1.0  0.95831  0.83524  0.85202  1.0000 -0.3422879366
N   N20       1.0  0.04169  0.33524  0.64798  1.0000 -0.3422879366
N   N21       1.0  0.28386  0.12114  0.05884  1.0000 -0.3658715424
N   N22       1.0  0.71614  0.62114  0.44116  1.0000 -0.3658715424
N   N23       1.0  0.71614  0.87886  0.94116  1.0000 -0.3658715424
N   N24       1.0  0.28386  0.37886  0.55884  1.0000 -0.3658715424
N   N25       1.0  0.45350  0.27241  0.70155  1.0000 -0.0505475712
N   N26       1.0  0.54650  0.77241  0.79845  1.0000 -0.0505475712
N   N27       1.0  0.54650  0.72759  0.29845  1.0000 -0.0505475712
N   N28       1.0  0.45350  0.22759  0.20155  1.0000 -0.0505475712
O   O1        1.0  0.34396  0.56138  0.00677  1.0000 -0.5276536234
O   O2        1.0  0.65604  0.06138  0.49323  1.0000 -0.5276536234
O   O3        1.0  0.65604  0.43862  0.99323  1.0000 -0.5276536234
O   O4        1.0  0.34396  0.93862  0.50677  1.0000 -0.5276536234
O   O5        1.0  0.21645  0.54815  0.03892  1.0000 -0.5680667994
O   O6        1.0  0.78355  0.04815  0.46108  1.0000 -0.5680667994
O   O7        1.0  0.78355  0.45185  0.96108  1.0000 -0.5680667994
O   O8        1.0  0.21645  0.95185  0.53892  1.0000 -0.5680667994
O   O9        1.0  0.30660  0.82885  0.12967  1.0000 -0.5109206397
O   O10       1.0  0.69340  0.32885  0.37033  1.0000 -0.5109206397
O   O11       1.0  0.69340  0.17115  0.87033  1.0000 -0.5109206397
O   O12       1.0  0.30660  0.67115  0.62967  1.0000 -0.5109206397
O   O13       1.0  0.43745  0.85062  0.11054  1.0000 -0.5680667994
O   O14       1.0  0.56255  0.35062  0.38946  1.0000 -0.5680667994
O   O15       1.0  0.56255  0.14938  0.88946  1.0000 -0.5680667994
O   O16       1.0  0.43745  0.64938  0.61054  1.0000 -0.5680667994
O   O17       1.0  0.73082  0.32534  0.05865  1.0000 -0.5276536234
O   O18       1.0  0.26918  0.82534  0.44135  1.0000 -0.5276536234
O   O19       1.0  0.26918  0.67466  0.94135  1.0000 -0.5276536234
O   O20       1.0  0.73082  0.17466  0.55865  1.0000 -0.5276536234
O   O21       1.0  0.82429  0.29750  0.99021  1.0000 -0.6095438985
O   O22       1.0  0.17571  0.79750  0.50979  1.0000 -0.6095438985
O   O23       1.0  0.17571  0.70250  0.00979  1.0000 -0.6095438985
O   O24       1.0  0.82429  0.20250  0.49021  1.0000 -0.6095438985
O   O25       1.0  0.75753  0.23931  0.29789  1.0000 -0.5276536234
O   O26       1.0  0.24247  0.73931  0.20211  1.0000 -0.5276536234
O   O27       1.0  0.24247  0.76069  0.70211  1.0000 -0.5276536234
O   O28       1.0  0.75753  0.26069  0.79789  1.0000 -0.5276536234
O   O29       1.0  0.84787  0.16085  0.32863  1.0000 -0.5513310073
O   O30       1.0  0.15213  0.66085  0.17137  1.0000 -0.5513310073
O   O31       1.0  0.15213  0.83915  0.67137  1.0000 -0.5513310073
O   O32       1.0  0.84787  0.33915  0.82863  1.0000 -0.5513310073
O   O33       1.0  0.69554  0.35149  0.88508  1.0000 -0.9347719339
O   O34       1.0  0.30446  0.85149  0.61492  1.0000 -0.9347719339
O   O35       1.0  0.30446  0.64851  0.11492  1.0000 -0.9347719339
O   O36       1.0  0.69554  0.14851  0.38508  1.0000 -0.9347719339
O   O37       1.0  0.61935  0.26313  0.94951  1.0000 -0.8948565511
O   O38       1.0  0.38065  0.76313  0.55049  1.0000 -0.8948565511
O   O39       1.0  0.38065  0.73687  0.05049  1.0000 -0.8948565511
O   O40       1.0  0.61935  0.23687  0.44951  1.0000 -0.8951643494
O   O41       1.0  0.54903  0.27218  0.80314  1.0000 -0.5647722272
O   O42       1.0  0.45097  0.77218  0.69686  1.0000 -0.5647722272
O   O43       1.0  0.45097  0.72782  0.19686  1.0000 -0.5647722272
O   O44       1.0  0.54903  0.22782  0.30314  1.0000 -0.5647722272
O   O45       1.0  0.51773  0.37095  0.97962  1.0000 -0.4997693685
O   O46       1.0  0.48227  0.87095  0.52038  1.0000 -0.4997693685
O   O47       1.0  0.48227  0.62905  0.02038  1.0000 -0.4997693685
O   O48       1.0  0.51773  0.12905  0.47962  1.0000 -0.4997693685
O   O49       1.0  0.43957  0.29234  0.93004  1.0000 -0.5513310073
O   O50       1.0  0.56043  0.79234  0.56996  1.0000 -0.5513310073
O   O51       1.0  0.56043  0.70766  0.06996  1.0000 -0.5513310073
O   O52       1.0  0.43957  0.20766  0.43004  1.0000 -0.5513310073
