# DDEC6 charges by PACMAN v1.1 (https://github.com/mtap-research/PACMAN-charge/)
data_2013[Cu][nan]3[ASR]4
_chemical_formula_sum              "Cu8 H12 C32 O24"
_cell_length_a       7.4054
_cell_length_b       18.811
_cell_length_c       13.309
_cell_angle_alpha    90
_cell_angle_beta     116.458
_cell_angle_gamma    90

_symmetry_space_group_name_H-M    "P 1"
_symmetry_Int_Tables_number       1

loop_
  _symmetry_equiv_pos_as_xyz
  'x, y, z'

loop_
  _atom_site_type_symbol
  _atom_site_label
  _atom_site_symmetry_multiplicity
  _atom_site_fract_x
  _atom_site_fract_y
  _atom_site_fract_z
  _atom_site_occupancy
  _atom_site_charge
Cu  Cu1       1.0  0.44383  0.07552  0.50622  1.0000 1.0868064682
Cu  Cu2       1.0  0.55617  0.57552  0.99378  1.0000 1.0868064682
Cu  Cu3       1.0  0.55617  0.92448  0.49378  1.0000 1.0868064682
Cu  Cu4       1.0  0.44383  0.42448  0.00622  1.0000 1.0868064682
Cu  Cu5       1.0  0.88590  0.05901  0.56850  1.0000 1.009199969
Cu  Cu6       1.0  0.11410  0.55901  0.93150  1.0000 1.009199969
Cu  Cu7       1.0  0.11410  0.94099  0.43150  1.0000 1.009199969
Cu  Cu8       1.0  0.88590  0.44099  0.06850  1.0000 1.009199969
H   H1        1.0  0.40770  0.23150  0.70570  1.0000 0.1465776185
H   H2        1.0  0.59230  0.73150  0.79430  1.0000 0.1465776185
H   H3        1.0  0.59230  0.76850  0.29430  1.0000 0.1465776185
H   H4        1.0  0.40770  0.26850  0.20570  1.0000 0.1465776185
H   H5        1.0  0.39920  0.32300  0.81390  1.0000 0.1551459017
H   H6        1.0  0.60080  0.82300  0.68610  1.0000 0.1551459017
H   H7        1.0  0.60080  0.67700  0.18610  1.0000 0.1551459017
H   H8        1.0  0.39920  0.17700  0.31390  1.0000 0.1551459017
H   H9        1.0  0.99380  0.26600  0.80200  1.0000 0.1416935096
H   H10       1.0  0.00620  0.76600  0.69800  1.0000 0.1416935096
H   H11       1.0  0.00620  0.73400  0.19800  1.0000 0.1416935096
H   H12       1.0  0.99380  0.23400  0.30200  1.0000 0.1416935096
C   C1        1.0  0.70530  0.17640  0.67390  1.0000 0.6070631067
C   C2        1.0  0.29470  0.67640  0.82610  1.0000 0.6070631067
C   C3        1.0  0.29470  0.82360  0.32610  1.0000 0.6070631067
C   C4        1.0  0.70530  0.32360  0.17390  1.0000 0.6070631067
C   C5        1.0  0.70280  0.23890  0.74310  1.0000 -0.027548742
C   C6        1.0  0.29720  0.73890  0.75690  1.0000 -0.027548742
C   C7        1.0  0.29720  0.76110  0.25690  1.0000 -0.027548742
C   C8        1.0  0.70280  0.26110  0.24310  1.0000 -0.027548742
C   C9        1.0  0.52470  0.25720  0.74740  1.0000 -0.0488190302
C   C10       1.0  0.47530  0.75720  0.75260  1.0000 -0.0488190302
C   C11       1.0  0.47530  0.74280  0.25260  1.0000 -0.0488190302
C   C12       1.0  0.52470  0.24280  0.24740  1.0000 -0.0488190302
C   C13       1.0  0.52000  0.31220  0.81180  1.0000 -0.1685466287
C   C14       1.0  0.48000  0.81220  0.68820  1.0000 -0.1685466287
C   C15       1.0  0.48000  0.68780  0.18820  1.0000 -0.1685466287
C   C16       1.0  0.52000  0.18780  0.31180  1.0000 -0.1685466287
C   C17       1.0  0.69240  0.35370  0.87600  1.0000 0.3413733165
C   C18       1.0  0.30760  0.85370  0.62400  1.0000 0.3413733165
C   C19       1.0  0.30760  0.64630  0.12400  1.0000 0.3413733165
C   C20       1.0  0.69240  0.14630  0.37600  1.0000 0.3413733165
C   C21       1.0  0.87310  0.33540  0.87310  1.0000 -0.1685466287
C   C22       1.0  0.12690  0.83540  0.62690  1.0000 -0.1685466287
C   C23       1.0  0.12690  0.66460  0.12690  1.0000 -0.1685466287
C   C24       1.0  0.87310  0.16460  0.37310  1.0000 -0.1685466287
C   C25       1.0  0.87430  0.27780  0.80500  1.0000 -0.0640010428
C   C26       1.0  0.12570  0.77780  0.69500  1.0000 -0.0640010428
C   C27       1.0  0.12570  0.72220  0.19500  1.0000 -0.0640010428
C   C28       1.0  0.87430  0.22220  0.30500  1.0000 -0.0640010428
C   C29       1.0  0.06290  0.37480  0.93860  1.0000 0.6295449654
C   C30       1.0  0.93710  0.87480  0.56140  1.0000 0.6295449654
C   C31       1.0  0.93710  0.62520  0.06140  1.0000 0.6295449654
C   C32       1.0  0.06290  0.12520  0.43860  1.0000 0.6295449654
O   O1        1.0  0.53420  0.14550  0.62310  1.0000 -0.5356254061
O   O2        1.0  0.46580  0.64550  0.87690  1.0000 -0.5356254061
O   O3        1.0  0.46580  0.85450  0.37690  1.0000 -0.5356254061
O   O4        1.0  0.53420  0.35450  0.12310  1.0000 -0.5356254061
O   O5        1.0  0.86410  0.15894  0.66900  1.0000 -0.5652243574
O   O6        1.0  0.13590  0.65894  0.83100  1.0000 -0.5652243574
O   O7        1.0  0.13590  0.84106  0.33100  1.0000 -0.5608430704
O   O8        1.0  0.86410  0.34106  0.16900  1.0000 -0.5652243574
O   O9        1.0  0.20720  0.36657  0.91230  1.0000 -0.4857987841
O   O10       1.0  0.79280  0.86657  0.58770  1.0000 -0.4857987841
O   O11       1.0  0.79280  0.63343  0.08770  1.0000 -0.4857987841
O   O12       1.0  0.20720  0.13343  0.41230  1.0000 -0.4857987841
O   O13       1.0  0.08480  0.41676  0.01830  1.0000 -0.598671936
O   O14       1.0  0.91520  0.91676  0.48170  1.0000 -0.598671936
O   O15       1.0  0.91520  0.58324  0.98170  1.0000 -0.598671936
O   O16       1.0  0.08480  0.08324  0.51830  1.0000 -0.598671936
O   O17       1.0  0.32990  0.99160  0.41020  1.0000 -0.8953215559
O   O18       1.0  0.67010  0.49160  0.08980  1.0000 -0.8953215559
O   O19       1.0  0.67010  0.00840  0.58980  1.0000 -0.8944275459
O   O20       1.0  0.32990  0.50840  0.91020  1.0000 -0.8944275459
O   O21       1.0  0.67020  0.40738  0.93330  1.0000 -0.5608430704
O   O22       1.0  0.32980  0.90738  0.56670  1.0000 -0.5608430704
O   O23       1.0  0.32980  0.59262  0.06670  1.0000 -0.5608430704
O   O24       1.0  0.67020  0.09262  0.43330  1.0000 -0.5608430704
