# DDEC6 charges by PACMAN v1.1 (https://github.com/mtap-research/PACMAN-charge/)
data_2013[Ni][xmz]3[ASR]5
_chemical_formula_sum              "Ni6 H86 C144 N12 O26"
_cell_length_a       18.3693
_cell_length_b       18.3693
_cell_length_c       18.3693
_cell_angle_alpha    106.033
_cell_angle_beta     106.033
_cell_angle_gamma    106.033

_symmetry_space_group_name_H-M    "P 1"
_symmetry_Int_Tables_number       1

loop_
  _symmetry_equiv_pos_as_xyz
  'x, y, z'

loop_
  _atom_site_type_symbol
  _atom_site_label
  _atom_site_symmetry_multiplicity
  _atom_site_fract_x
  _atom_site_fract_y
  _atom_site_fract_z
  _atom_site_occupancy
  _atom_site_charge
Ni  Ni1       1.0  0.75002  0.81816  0.68229  1.0000 0.9831179488
Ni  Ni2       1.0  0.25002  0.18229  0.31816  1.0000 0.9831179488
Ni  Ni3       1.0  0.68229  0.75002  0.81816  1.0000 0.9831179488
Ni  Ni4       1.0  0.31816  0.25002  0.18229  1.0000 0.9831179488
Ni  Ni5       1.0  0.81816  0.68229  0.75002  1.0000 0.9831179488
Ni  Ni6       1.0  0.18229  0.31816  0.25002  1.0000 0.9831179488
H   H1        1.0  0.69722  0.69722  0.69722  1.0000 0.3720697123
H   H2        1.0  0.19722  0.19722  0.19722  1.0000 0.3720697123
H   H3        1.0  0.57832  0.29788  0.32270  1.0000 0.1092864424
H   H4        1.0  0.42200  0.70224  0.67764  1.0000 0.1092864424
H   H5        1.0  0.32270  0.57832  0.29788  1.0000 0.1092864424
H   H6        1.0  0.67764  0.42200  0.70224  1.0000 0.1092864424
H   H7        1.0  0.29788  0.32270  0.57832  1.0000 0.1092864424
H   H8        1.0  0.70224  0.67764  0.42200  1.0000 0.1092864424
H   H9        1.0  0.17764  0.20224  0.92200  1.0000 0.1092864424
H   H10       1.0  0.82270  0.79788  0.07832  1.0000 0.1092864424
H   H11       1.0  0.20224  0.92200  0.17764  1.0000 0.1092864424
H   H12       1.0  0.79788  0.07832  0.82270  1.0000 0.1092864424
H   H13       1.0  0.92200  0.17764  0.20224  1.0000 0.1092864424
H   H14       1.0  0.07832  0.82270  0.79788  1.0000 0.1092864424
H   H15       1.0  0.69281  0.24656  0.35312  1.0000 0.1092864424
H   H16       1.0  0.30751  0.75334  0.64693  1.0000 0.1092864424
H   H17       1.0  0.35312  0.69281  0.24656  1.0000 0.1092864424
H   H18       1.0  0.64693  0.30751  0.75334  1.0000 0.1092864424
H   H19       1.0  0.24656  0.35312  0.69281  1.0000 0.1092864424
H   H20       1.0  0.75334  0.64693  0.30751  1.0000 0.1092864424
H   H21       1.0  0.14693  0.25334  0.80751  1.0000 0.1092864424
H   H22       1.0  0.85312  0.74656  0.19281  1.0000 0.1092864424
H   H23       1.0  0.25334  0.80751  0.14693  1.0000 0.1092864424
H   H24       1.0  0.74656  0.19281  0.85312  1.0000 0.1092864424
H   H25       1.0  0.80751  0.14693  0.25334  1.0000 0.1092864424
H   H26       1.0  0.19281  0.85312  0.74656  1.0000 0.1092864424
H   H27       1.0  0.53413  0.04550  0.38587  1.0000 0.0991646552
H   H28       1.0  0.46608  0.95443  0.61407  1.0000 0.0991646552
H   H29       1.0  0.38587  0.53413  0.04550  1.0000 0.0991646552
H   H30       1.0  0.61407  0.46608  0.95443  1.0000 0.0991646552
H   H31       1.0  0.04550  0.38587  0.53413  1.0000 0.0991646552
H   H32       1.0  0.95443  0.61407  0.46608  1.0000 0.0991646552
H   H33       1.0  0.11407  0.45443  0.96608  1.0000 0.0991646552
H   H34       1.0  0.88587  0.54550  0.03413  1.0000 0.0991646552
H   H35       1.0  0.45443  0.96608  0.11407  1.0000 0.0991646552
H   H36       1.0  0.54550  0.03413  0.88587  1.0000 0.0991646552
H   H37       1.0  0.96608  0.11407  0.45443  1.0000 0.0991646552
H   H38       1.0  0.03413  0.88587  0.54550  1.0000 0.0991646552
H   H39       1.0  0.42531  0.10180  0.36297  1.0000 0.1092864424
H   H40       1.0  0.57500  0.89846  0.63736  1.0000 0.1092864424
H   H41       1.0  0.36297  0.42531  0.10180  1.0000 0.1092864424
H   H42       1.0  0.63736  0.57500  0.89846  1.0000 0.1092864424
H   H43       1.0  0.10180  0.36297  0.42531  1.0000 0.1092864424
H   H44       1.0  0.89846  0.63736  0.57500  1.0000 0.1092864424
H   H45       1.0  0.13736  0.39846  0.07500  1.0000 0.1092864424
H   H46       1.0  0.86297  0.60180  0.92531  1.0000 0.1092864424
H   H47       1.0  0.39846  0.07500  0.13736  1.0000 0.1092864424
H   H48       1.0  0.60180  0.92531  0.86297  1.0000 0.1092864424
H   H49       1.0  0.07500  0.13736  0.39846  1.0000 0.1092864424
H   H50       1.0  0.92531  0.86297  0.60180  1.0000 0.1092864424
H   H51       1.0  0.64214  0.05847  0.47119  1.0000 0.1092864424
H   H52       1.0  0.35801  0.94163  0.52875  1.0000 0.1092864424
H   H53       1.0  0.47119  0.64214  0.05847  1.0000 0.1092864424
H   H54       1.0  0.52875  0.35801  0.94163  1.0000 0.1092864424
H   H55       1.0  0.05847  0.47119  0.64214  1.0000 0.1092864424
H   H56       1.0  0.94163  0.52875  0.35801  1.0000 0.1092864424
H   H57       1.0  0.02875  0.44163  0.85801  1.0000 0.1092864424
H   H58       1.0  0.97119  0.55847  0.14214  1.0000 0.1092864424
H   H59       1.0  0.44163  0.85801  0.02875  1.0000 0.1092864424
H   H60       1.0  0.55847  0.14214  0.97119  1.0000 0.1092864424
H   H61       1.0  0.85801  0.02875  0.44163  1.0000 0.1092864424
H   H62       1.0  0.14214  0.97119  0.55847  1.0000 0.1092864424
H   H63       1.0  0.81485  0.91606  0.46204  1.0000 0.116997818
H   H64       1.0  0.18441  0.08328  0.53761  1.0000 0.116997818
H   H65       1.0  0.46204  0.81485  0.91606  1.0000 0.116997818
H   H66       1.0  0.53761  0.18441  0.08328  1.0000 0.116997818
H   H67       1.0  0.91606  0.46204  0.81485  1.0000 0.116997818
H   H68       1.0  0.08328  0.53761  0.18441  1.0000 0.116997818
H   H69       1.0  0.03761  0.58328  0.68441  1.0000 0.116997818
H   H70       1.0  0.96204  0.41606  0.31485  1.0000 0.116997818
H   H71       1.0  0.58328  0.68441  0.03761  1.0000 0.116997818
H   H72       1.0  0.41606  0.31485  0.96204  1.0000 0.116997818
H   H73       1.0  0.68441  0.03761  0.58328  1.0000 0.116997818
H   H74       1.0  0.31485  0.96204  0.41606  1.0000 0.116997818
H   H75       1.0  0.80975  0.83200  0.54813  1.0000 0.087060117
H   H76       1.0  0.19140  0.16913  0.45331  1.0000 0.087060117
H   H77       1.0  0.54813  0.80975  0.83200  1.0000 0.087060117
H   H78       1.0  0.45331  0.19140  0.16913  1.0000 0.087060117
H   H79       1.0  0.83200  0.54813  0.80975  1.0000 0.087060117
H   H80       1.0  0.16913  0.45331  0.19140  1.0000 0.087060117
H   H81       1.0  0.95331  0.66913  0.69140  1.0000 0.087060117
H   H82       1.0  0.04813  0.33200  0.30975  1.0000 0.087060117
H   H83       1.0  0.66913  0.69140  0.95331  1.0000 0.087060117
H   H84       1.0  0.33200  0.30975  0.04813  1.0000 0.087060117
H   H85       1.0  0.69140  0.95331  0.66913  1.0000 0.087060117
H   H86       1.0  0.30975  0.04813  0.33200  1.0000 0.087060117
C   C1        1.0  0.42290  0.22901  0.32119  1.0000 0.5876788902
C   C2        1.0  0.57712  0.77108  0.67844  1.0000 0.5847290564
C   C3        1.0  0.32119  0.42290  0.22901  1.0000 0.5876788902
C   C4        1.0  0.67844  0.57712  0.77108  1.0000 0.5847290564
C   C5        1.0  0.22901  0.32119  0.42290  1.0000 0.5876788902
C   C6        1.0  0.77108  0.67844  0.57712  1.0000 0.5847290564
C   C7        1.0  0.17844  0.27108  0.07712  1.0000 0.5847290564
C   C8        1.0  0.82119  0.72901  0.92290  1.0000 0.5876788902
C   C9        1.0  0.27108  0.07712  0.17844  1.0000 0.5847290564
C   C10       1.0  0.72901  0.92290  0.82119  1.0000 0.5876788902
C   C11       1.0  0.07712  0.17844  0.27108  1.0000 0.5847290564
C   C12       1.0  0.92290  0.82119  0.72901  1.0000 0.5876788902
C   C13       1.0  0.49480  0.20310  0.34195  1.0000 -0.0160003066
C   C14       1.0  0.50564  0.79740  0.65881  1.0000 -0.0160003066
C   C15       1.0  0.34195  0.49480  0.20310  1.0000 -0.0160003066
C   C16       1.0  0.65881  0.50564  0.79740  1.0000 -0.0160003066
C   C17       1.0  0.20310  0.34195  0.49480  1.0000 -0.0160003066
C   C18       1.0  0.79740  0.65881  0.50564  1.0000 -0.0160003066
C   C19       1.0  0.15881  0.29740  0.00564  1.0000 -0.0160003066
C   C20       1.0  0.84195  0.70310  0.99480  1.0000 -0.0160003066
C   C21       1.0  0.29740  0.00564  0.15881  1.0000 -0.0160003066
C   C22       1.0  0.70310  0.99480  0.84195  1.0000 -0.0160003066
C   C23       1.0  0.00564  0.15881  0.29740  1.0000 -0.0160003066
C   C24       1.0  0.99480  0.84195  0.70310  1.0000 -0.0145963714
C   C25       1.0  0.56999  0.24324  0.33788  1.0000 -0.1007206724
C   C26       1.0  0.43041  0.75705  0.66267  1.0000 -0.1007206724
C   C27       1.0  0.33788  0.56999  0.24324  1.0000 -0.1007206724
C   C28       1.0  0.66267  0.43041  0.75705  1.0000 -0.1007206724
C   C29       1.0  0.24324  0.33788  0.56999  1.0000 -0.1007206724
C   C30       1.0  0.75705  0.66267  0.43041  1.0000 -0.1007206724
C   C31       1.0  0.16267  0.25705  0.93041  1.0000 -0.1007206724
C   C32       1.0  0.83788  0.74324  0.06999  1.0000 -0.1007206724
C   C33       1.0  0.25705  0.93041  0.16267  1.0000 -0.1007206724
C   C34       1.0  0.74324  0.06999  0.83788  1.0000 -0.1007206724
C   C35       1.0  0.93041  0.16267  0.25705  1.0000 -0.1007206724
C   C36       1.0  0.06999  0.83788  0.74324  1.0000 -0.1007206724
C   C37       1.0  0.63339  0.21441  0.35438  1.0000 -0.1124848529
C   C38       1.0  0.36689  0.78571  0.64585  1.0000 -0.1124848529
C   C39       1.0  0.35438  0.63339  0.21441  1.0000 -0.1124848529
C   C40       1.0  0.64585  0.36689  0.78571  1.0000 -0.1124848529
C   C41       1.0  0.21441  0.35438  0.63339  1.0000 -0.1124848529
C   C42       1.0  0.78571  0.64585  0.36689  1.0000 -0.1124848529
C   C43       1.0  0.14585  0.28571  0.86689  1.0000 -0.1124848529
C   C44       1.0  0.85438  0.71441  0.13339  1.0000 -0.1124848529
C   C45       1.0  0.28571  0.86689  0.14585  1.0000 -0.1124848529
C   C46       1.0  0.71441  0.13339  0.85438  1.0000 -0.1124848529
C   C47       1.0  0.86689  0.14585  0.28571  1.0000 -0.1124848529
C   C48       1.0  0.13339  0.85438  0.71441  1.0000 -0.1124848529
C   C49       1.0  0.54605  0.10271  0.37488  1.0000 -0.1224209559
C   C50       1.0  0.45416  0.89745  0.62527  1.0000 -0.1224209559
C   C51       1.0  0.37488  0.54605  0.10271  1.0000 -0.1224209559
C   C52       1.0  0.62527  0.45416  0.89745  1.0000 -0.1224209559
C   C53       1.0  0.10271  0.37488  0.54605  1.0000 -0.1224209559
C   C54       1.0  0.89745  0.62527  0.45416  1.0000 -0.1224209559
C   C55       1.0  0.12527  0.39745  0.95416  1.0000 -0.1224209559
C   C56       1.0  0.87488  0.60271  0.04605  1.0000 -0.1224209559
C   C57       1.0  0.39745  0.95416  0.12527  1.0000 -0.1224209559
C   C58       1.0  0.60271  0.04605  0.87488  1.0000 -0.1224209559
C   C59       1.0  0.95416  0.12527  0.39745  1.0000 -0.1224209559
C   C60       1.0  0.04605  0.87488  0.60271  1.0000 -0.1224209559
C   C61       1.0  0.48393  0.13265  0.36056  1.0000 -0.0903843553
C   C62       1.0  0.51646  0.86771  0.63993  1.0000 -0.0903843553
C   C63       1.0  0.36056  0.48393  0.13265  1.0000 -0.0903843553
C   C64       1.0  0.63993  0.51646  0.86771  1.0000 -0.0903843553
C   C65       1.0  0.13265  0.36056  0.48393  1.0000 -0.0903843553
C   C66       1.0  0.86771  0.63993  0.51646  1.0000 -0.0903843553
C   C67       1.0  0.13993  0.36771  0.01646  1.0000 -0.0903843553
C   C68       1.0  0.86056  0.63265  0.98393  1.0000 -0.0903843553
C   C69       1.0  0.36771  0.01646  0.13993  1.0000 -0.0903843553
C   C70       1.0  0.63265  0.98393  0.86056  1.0000 -0.0903843553
C   C71       1.0  0.01646  0.13993  0.36771  1.0000 -0.0903843553
C   C72       1.0  0.98393  0.86056  0.63265  1.0000 -0.0903843553
C   C73       1.0  0.62270  0.14409  0.37407  1.0000 0.0438328918
C   C74       1.0  0.37760  0.85598  0.62607  1.0000 0.0438328918
C   C75       1.0  0.37407  0.62270  0.14409  1.0000 0.0438328918
C   C76       1.0  0.62607  0.37760  0.85598  1.0000 0.0438328918
C   C77       1.0  0.14409  0.37407  0.62270  1.0000 0.0438328918
C   C78       1.0  0.85598  0.62607  0.37760  1.0000 0.0438328918
C   C79       1.0  0.12607  0.35598  0.87760  1.0000 0.0438328918
C   C80       1.0  0.87407  0.64409  0.12270  1.0000 0.0438328918
C   C81       1.0  0.35598  0.87760  0.12607  1.0000 0.0438328918
C   C82       1.0  0.64409  0.12270  0.87407  1.0000 0.0438328918
C   C83       1.0  0.87760  0.12607  0.35598  1.0000 0.0438328918
C   C84       1.0  0.12270  0.87407  0.64409  1.0000 0.0438328918
C   C85       1.0  0.68975  0.11429  0.39565  1.0000 0.2236945935
C   C86       1.0  0.31047  0.88569  0.60432  1.0000 0.2236945935
C   C87       1.0  0.39565  0.68975  0.11429  1.0000 0.2236945935
C   C88       1.0  0.60432  0.31047  0.88569  1.0000 0.2236945935
C   C89       1.0  0.11429  0.39565  0.68975  1.0000 0.2236945935
C   C90       1.0  0.88569  0.60432  0.31047  1.0000 0.2236945935
C   C91       1.0  0.10432  0.38569  0.81047  1.0000 0.2236945935
C   C92       1.0  0.89565  0.61429  0.18975  1.0000 0.2236945935
C   C93       1.0  0.38569  0.81047  0.10432  1.0000 0.2236945935
C   C94       1.0  0.61429  0.18975  0.89565  1.0000 0.2236945935
C   C95       1.0  0.81047  0.10432  0.38569  1.0000 0.2236945935
C   C96       1.0  0.18975  0.89565  0.61429  1.0000 0.2236945935
C   C97       1.0  0.68968  0.06865  0.44609  1.0000 -0.2228551859
C   C98       1.0  0.31040  0.93130  0.55382  1.0000 -0.2228551859
C   C99       1.0  0.44609  0.68968  0.06865  1.0000 -0.2228551859
C   C100      1.0  0.55382  0.31040  0.93130  1.0000 -0.2228551859
C   C101      1.0  0.06865  0.44609  0.68968  1.0000 -0.2228551859
C   C102      1.0  0.93130  0.55382  0.31040  1.0000 -0.2228551859
C   C103      1.0  0.05382  0.43130  0.81040  1.0000 -0.2228551859
C   C104      1.0  0.94609  0.56865  0.18968  1.0000 -0.2228551859
C   C105      1.0  0.43130  0.81040  0.05382  1.0000 -0.2228551859
C   C106      1.0  0.56865  0.18968  0.94609  1.0000 -0.2228551859
C   C107      1.0  0.81040  0.05382  0.43130  1.0000 -0.2228551859
C   C108      1.0  0.18968  0.94609  0.56865  1.0000 -0.2228551859
C   C109      1.0  0.74999  0.03612  0.46370  1.0000 0.0991646552
C   C110      1.0  0.24999  0.96370  0.53612  1.0000 0.1092864424
C   C111      1.0  0.46370  0.74999  0.03612  1.0000 0.0991646552
C   C112      1.0  0.53612  0.24999  0.96370  1.0000 0.0991646552
C   C113      1.0  0.03612  0.46370  0.74999  1.0000 0.1092864424
C   C114      1.0  0.96370  0.53612  0.24999  1.0000 0.0991646552
C   C115      1.0  0.74999  0.98559  0.51440  1.0000 0.0991646552
C   C116      1.0  0.24999  0.01440  0.48559  1.0000 0.0991646552
C   C117      1.0  0.51440  0.74999  0.98559  1.0000 0.0991646552
C   C118      1.0  0.48559  0.24999  0.01440  1.0000 0.0991646552
C   C119      1.0  0.98559  0.51440  0.74999  1.0000 0.0991646552
C   C120      1.0  0.01440  0.48559  0.24999  1.0000 0.0991646552
C   C121      1.0  0.78619  0.92692  0.50684  1.0000 -0.1824467671
C   C122      1.0  0.21388  0.07316  0.49340  1.0000 -0.1824467671
C   C123      1.0  0.50684  0.78619  0.92692  1.0000 -0.1824467671
C   C124      1.0  0.49340  0.21388  0.07316  1.0000 -0.1824467671
C   C125      1.0  0.92692  0.50684  0.78619  1.0000 -0.1824467671
C   C126      1.0  0.07316  0.49340  0.21388  1.0000 -0.1824467671
C   C127      1.0  0.99340  0.57316  0.71388  1.0000 -0.1824467671
C   C128      1.0  0.00684  0.42692  0.28619  1.0000 -0.1824467671
C   C129      1.0  0.57316  0.71388  0.99340  1.0000 -0.1824467671
C   C130      1.0  0.42692  0.28619  0.00684  1.0000 -0.1824467671
C   C131      1.0  0.71388  0.99340  0.57316  1.0000 -0.1824467671
C   C132      1.0  0.28619  0.00684  0.42692  1.0000 -0.1824467671
C   C133      1.0  0.78454  0.87992  0.55509  1.0000 0.116997818
C   C134      1.0  0.21655  0.12114  0.44612  1.0000 0.116997818
C   C135      1.0  0.55509  0.78454  0.87992  1.0000 0.116997818
C   C136      1.0  0.44612  0.21655  0.12114  1.0000 0.116997818
C   C137      1.0  0.87992  0.55509  0.78454  1.0000 0.116997818
C   C138      1.0  0.12114  0.44612  0.21655  1.0000 0.116997818
C   C139      1.0  0.94612  0.62114  0.71655  1.0000 0.116997818
C   C140      1.0  0.05509  0.37992  0.28454  1.0000 0.116997818
C   C141      1.0  0.62114  0.71655  0.94612  1.0000 0.116997818
C   C142      1.0  0.37992  0.28454  0.05509  1.0000 0.116997818
C   C143      1.0  0.71655  0.94612  0.62114  1.0000 0.116997818
C   C144      1.0  0.28454  0.05509  0.37992  1.0000 0.116997818
N   N1        1.0  0.75102  0.88945  0.61250  1.0000 -0.1985934816
N   N2        1.0  0.25102  0.11250  0.38945  1.0000 -0.1985934816
N   N3        1.0  0.61250  0.75102  0.88945  1.0000 -0.1985934816
N   N4        1.0  0.38945  0.25102  0.11250  1.0000 -0.1985934816
N   N5        1.0  0.88945  0.61250  0.75102  1.0000 -0.1985934816
N   N6        1.0  0.11250  0.38945  0.25102  1.0000 -0.1985934816
N   N7        1.0  0.75009  0.13334  0.36663  1.0000 -0.3610211404
N   N8        1.0  0.25009  0.86663  0.63334  1.0000 -0.3610211404
N   N9        1.0  0.36663  0.75009  0.13334  1.0000 -0.3610211404
N   N10       1.0  0.63334  0.25009  0.86663  1.0000 -0.3610211404
N   N11       1.0  0.13334  0.36663  0.75009  1.0000 -0.3610211404
N   N12       1.0  0.86663  0.63334  0.25009  1.0000 -0.3610211404
O   O1        1.0  0.74375  0.74375  0.74375  1.0000 -0.8276760769
O   O2        1.0  0.24375  0.24375  0.24375  1.0000 -0.8248654199
O   O3        1.0  0.42261  0.27380  0.27913  1.0000 -0.5420154524
O   O4        1.0  0.57762  0.72448  0.71884  1.0000 -0.553197946
O   O5        1.0  0.27913  0.42261  0.27380  1.0000 -0.5420154524
O   O6        1.0  0.71884  0.57762  0.72448  1.0000 -0.553197946
O   O7        1.0  0.27380  0.27913  0.42261  1.0000 -0.5420154524
O   O8        1.0  0.72448  0.71884  0.57762  1.0000 -0.553197946
O   O9        1.0  0.21884  0.22448  0.07762  1.0000 -0.553197946
O   O10       1.0  0.77913  0.77380  0.92261  1.0000 -0.5420154524
O   O11       1.0  0.22448  0.07762  0.21884  1.0000 -0.553197946
O   O12       1.0  0.77380  0.92261  0.77913  1.0000 -0.5420154524
O   O13       1.0  0.07762  0.21884  0.22448  1.0000 -0.553197946
O   O14       1.0  0.92261  0.77913  0.77380  1.0000 -0.5420154524
O   O15       1.0  0.36690  0.19888  0.34608  1.0000 -0.553197946
O   O16       1.0  0.63294  0.80145  0.65337  1.0000 -0.553197946
O   O17       1.0  0.34608  0.36690  0.19888  1.0000 -0.553197946
O   O18       1.0  0.65337  0.63294  0.80145  1.0000 -0.553197946
O   O19       1.0  0.19888  0.34608  0.36690  1.0000 -0.553197946
O   O20       1.0  0.80145  0.65337  0.63294  1.0000 -0.553197946
O   O21       1.0  0.15337  0.30145  0.13294  1.0000 -0.553197946
O   O22       1.0  0.84608  0.69888  0.86690  1.0000 -0.553197946
O   O23       1.0  0.30145  0.13294  0.15337  1.0000 -0.553197946
O   O24       1.0  0.69888  0.86690  0.84608  1.0000 -0.553197946
O   O25       1.0  0.13294  0.15337  0.30145  1.0000 -0.553197946
O   O26       1.0  0.86690  0.84608  0.69888  1.0000 -0.553197946
