# DDEC6 charges by PACMAN v1.1 (https://github.com/mtap-research/PACMAN-charge/)
data_2013[Ni][ant]3[ASR]2
_chemical_formula_sum              "Ni8 H56 C104 N8 O32"
_cell_length_a       16.783
_cell_length_b       14.189
_cell_length_c       18.6834
_cell_angle_alpha    90
_cell_angle_beta     97.743
_cell_angle_gamma    90

_symmetry_space_group_name_H-M    "P 1"
_symmetry_Int_Tables_number       1

loop_
  _symmetry_equiv_pos_as_xyz
  'x, y, z'

loop_
  _atom_site_type_symbol
  _atom_site_label
  _atom_site_symmetry_multiplicity
  _atom_site_fract_x
  _atom_site_fract_y
  _atom_site_fract_z
  _atom_site_occupancy
  _atom_site_charge
Ni  Ni1       1.0  0.04602  0.27460  0.17614  1.0000 0.8138455523
Ni  Ni2       1.0  0.95398  0.72540  0.82386  1.0000 0.8138455523
Ni  Ni3       1.0  0.95398  0.27460  0.32386  1.0000 0.8138455523
Ni  Ni4       1.0  0.04602  0.72540  0.67614  1.0000 0.8138455523
Ni  Ni5       1.0  0.54602  0.77460  0.17614  1.0000 0.8138455523
Ni  Ni6       1.0  0.45398  0.22540  0.82386  1.0000 0.8138455523
Ni  Ni7       1.0  0.45398  0.77460  0.32386  1.0000 0.8138455523
Ni  Ni8       1.0  0.54602  0.22540  0.67614  1.0000 0.8138455523
H   H1        1.0  0.96657  0.19376  0.03052  1.0000 0.0990195952
H   H2        1.0  0.03343  0.80624  0.96948  1.0000 0.0990195952
H   H3        1.0  0.03343  0.19376  0.46948  1.0000 0.0990195952
H   H4        1.0  0.96657  0.80624  0.53052  1.0000 0.0990195952
H   H5        1.0  0.46657  0.69376  0.03052  1.0000 0.0990195952
H   H6        1.0  0.53343  0.30624  0.96948  1.0000 0.0990195952
H   H7        1.0  0.53343  0.69376  0.46948  1.0000 0.0990195952
H   H8        1.0  0.46657  0.30624  0.53052  1.0000 0.0990195952
H   H9        1.0  0.01124  0.10151  0.92723  1.0000 0.1305192703
H   H10       1.0  0.98876  0.89849  0.07277  1.0000 0.1305192703
H   H11       1.0  0.98876  0.10151  0.57277  1.0000 0.1305192703
H   H12       1.0  0.01124  0.89849  0.42723  1.0000 0.1305192703
H   H13       1.0  0.51124  0.60151  0.92723  1.0000 0.1305192703
H   H14       1.0  0.48876  0.39849  0.07277  1.0000 0.1305192703
H   H15       1.0  0.48876  0.60151  0.57277  1.0000 0.1305192703
H   H16       1.0  0.51124  0.39849  0.42723  1.0000 0.1305192703
H   H17       1.0  0.25443  0.11750  0.03814  1.0000 0.1305192703
H   H18       1.0  0.74557  0.88250  0.96186  1.0000 0.1305192703
H   H19       1.0  0.74557  0.11750  0.46186  1.0000 0.1305192703
H   H20       1.0  0.25443  0.88250  0.53814  1.0000 0.1305192703
H   H21       1.0  0.75443  0.61750  0.03814  1.0000 0.1305192703
H   H22       1.0  0.24557  0.38250  0.96186  1.0000 0.1305192703
H   H23       1.0  0.24557  0.61750  0.46186  1.0000 0.1305192703
H   H24       1.0  0.75443  0.38250  0.53814  1.0000 0.1305192703
H   H25       1.0  0.20020  0.20947  0.13628  1.0000 0.1077970307
H   H26       1.0  0.79980  0.79053  0.86372  1.0000 0.1077970307
H   H27       1.0  0.79980  0.20947  0.36372  1.0000 0.1077970307
H   H28       1.0  0.20020  0.79053  0.63628  1.0000 0.1077970307
H   H29       1.0  0.70020  0.70947  0.13628  1.0000 0.1077970307
H   H30       1.0  0.29980  0.29053  0.86372  1.0000 0.1077970307
H   H31       1.0  0.29980  0.70947  0.36372  1.0000 0.1077970307
H   H32       1.0  0.70020  0.29053  0.63628  1.0000 0.1077970307
H   H33       1.0  0.06915  0.94756  0.90601  1.0000 0.0990195952
H   H34       1.0  0.93085  0.05244  0.09399  1.0000 0.0990195952
H   H35       1.0  0.93085  0.94756  0.59399  1.0000 0.0990195952
H   H36       1.0  0.06915  0.05244  0.40601  1.0000 0.0990195952
H   H37       1.0  0.56915  0.44756  0.90601  1.0000 0.0990195952
H   H38       1.0  0.43085  0.55244  0.09399  1.0000 0.0990195952
H   H39       1.0  0.43085  0.44756  0.59399  1.0000 0.0990195952
H   H40       1.0  0.56915  0.55244  0.40601  1.0000 0.0990195952
H   H41       1.0  0.24056  0.91464  0.75380  1.0000 0.1213184943
H   H42       1.0  0.75944  0.08536  0.24620  1.0000 0.1213184943
H   H43       1.0  0.75944  0.91464  0.74620  1.0000 0.1213184943
H   H44       1.0  0.24056  0.08536  0.25380  1.0000 0.1213184943
H   H45       1.0  0.74056  0.41464  0.75380  1.0000 0.1213184943
H   H46       1.0  0.25944  0.58536  0.24620  1.0000 0.1213184943
H   H47       1.0  0.25944  0.41464  0.74620  1.0000 0.1213184943
H   H48       1.0  0.74056  0.58536  0.25380  1.0000 0.1213184943
H   H49       1.0  0.27124  0.14002  0.90979  1.0000 0.1077970307
H   H50       1.0  0.72876  0.85998  0.09021  1.0000 0.1077970307
H   H51       1.0  0.72876  0.14002  0.59021  1.0000 0.1077970307
H   H52       1.0  0.27124  0.85998  0.40979  1.0000 0.1077970307
H   H53       1.0  0.77124  0.64002  0.90979  1.0000 0.1077970307
H   H54       1.0  0.22876  0.35998  0.09021  1.0000 0.0990195952
H   H55       1.0  0.22876  0.64002  0.59021  1.0000 0.1077970307
H   H56       1.0  0.77124  0.35998  0.40979  1.0000 0.1077970307
C   C1        1.0  0.02965  0.17476  0.02939  1.0000 0.0990195952
C   C2        1.0  0.97035  0.82524  0.97061  1.0000 0.0990195952
C   C3        1.0  0.97035  0.17476  0.47061  1.0000 0.0990195952
C   C4        1.0  0.02965  0.82524  0.52939  1.0000 0.0990195952
C   C5        1.0  0.52965  0.67476  0.02939  1.0000 0.0990195952
C   C6        1.0  0.47035  0.32524  0.97061  1.0000 0.0990195952
C   C7        1.0  0.47035  0.67476  0.47061  1.0000 0.0990195952
C   C8        1.0  0.52965  0.32524  0.52939  1.0000 0.0990195952
C   C9        1.0  0.05511  0.12328  0.97297  1.0000 -0.1877861621
C   C10       1.0  0.94489  0.87672  0.02703  1.0000 -0.1877861621
C   C11       1.0  0.94489  0.12328  0.52703  1.0000 -0.1877861621
C   C12       1.0  0.05511  0.87672  0.47297  1.0000 -0.1877861621
C   C13       1.0  0.55511  0.62328  0.97297  1.0000 -0.1877861621
C   C14       1.0  0.44489  0.37672  0.02703  1.0000 -0.1877861621
C   C15       1.0  0.44489  0.62328  0.52703  1.0000 -0.1877861621
C   C16       1.0  0.55511  0.37672  0.47297  1.0000 -0.1877861621
C   C17       1.0  0.13721  0.10280  0.97387  1.0000 0.1213184943
C   C18       1.0  0.86279  0.89720  0.02613  1.0000 0.1213184943
C   C19       1.0  0.86279  0.10280  0.52613  1.0000 0.1213184943
C   C20       1.0  0.13721  0.89720  0.47387  1.0000 0.1213184943
C   C21       1.0  0.63721  0.60280  0.97387  1.0000 0.1213184943
C   C22       1.0  0.36279  0.39720  0.02613  1.0000 0.1213184943
C   C23       1.0  0.36279  0.60280  0.52613  1.0000 0.1213184943
C   C24       1.0  0.63721  0.39720  0.47387  1.0000 0.1213184943
C   C25       1.0  0.19032  0.13414  0.03375  1.0000 -0.1814393402
C   C26       1.0  0.80968  0.86586  0.96625  1.0000 -0.1814393402
C   C27       1.0  0.80968  0.13414  0.46625  1.0000 -0.1814393402
C   C28       1.0  0.19032  0.86586  0.53375  1.0000 -0.1814393402
C   C29       1.0  0.69032  0.63414  0.03375  1.0000 -0.1814393402
C   C30       1.0  0.30968  0.36586  0.96625  1.0000 -0.1814393402
C   C31       1.0  0.30968  0.63414  0.46625  1.0000 -0.1814393402
C   C32       1.0  0.69032  0.36586  0.53375  1.0000 -0.1814393402
C   C33       1.0  0.16076  0.18460  0.08860  1.0000 0.1077970307
C   C34       1.0  0.83924  0.81540  0.91140  1.0000 0.1077970307
C   C35       1.0  0.83924  0.18460  0.41140  1.0000 0.1077970307
C   C36       1.0  0.16076  0.81540  0.58860  1.0000 0.1077970307
C   C37       1.0  0.66076  0.68460  0.08860  1.0000 0.1077970307
C   C38       1.0  0.33924  0.31540  0.91140  1.0000 0.1077970307
C   C39       1.0  0.33924  0.68460  0.41140  1.0000 0.1077970307
C   C40       1.0  0.66076  0.31540  0.58860  1.0000 0.1077970307
C   C41       1.0  0.16684  0.05031  0.91458  1.0000 0.0460172015
C   C42       1.0  0.83316  0.94969  0.08542  1.0000 0.0460172015
C   C43       1.0  0.83316  0.05031  0.58542  1.0000 0.0460172015
C   C44       1.0  0.16684  0.94969  0.41458  1.0000 0.0460172015
C   C45       1.0  0.66684  0.55031  0.91458  1.0000 0.0460172015
C   C46       1.0  0.33316  0.44969  0.08542  1.0000 0.0460172015
C   C47       1.0  0.33316  0.55031  0.58542  1.0000 0.0460172015
C   C48       1.0  0.66684  0.44969  0.41458  1.0000 0.0460172015
C   C49       1.0  0.12381  0.97146  0.88520  1.0000 -0.1378977393
C   C50       1.0  0.87619  0.02854  0.11480  1.0000 -0.1378977393
C   C51       1.0  0.87619  0.97146  0.61480  1.0000 -0.1378977393
C   C52       1.0  0.12381  0.02854  0.38520  1.0000 -0.1378977393
C   C53       1.0  0.62381  0.47146  0.88520  1.0000 -0.1378977393
C   C54       1.0  0.37619  0.52854  0.11480  1.0000 -0.1378977393
C   C55       1.0  0.37619  0.47146  0.61480  1.0000 -0.1378977393
C   C56       1.0  0.62381  0.52854  0.38520  1.0000 -0.1378977393
C   C57       1.0  0.15111  0.92094  0.82873  1.0000 -0.0190687612
C   C58       1.0  0.84889  0.07906  0.17127  1.0000 -0.0190687612
C   C59       1.0  0.84889  0.92094  0.67127  1.0000 -0.0190687612
C   C60       1.0  0.15111  0.07906  0.32873  1.0000 -0.0190687612
C   C61       1.0  0.65111  0.42094  0.82873  1.0000 -0.0190687612
C   C62       1.0  0.34889  0.57906  0.17127  1.0000 -0.0190687612
C   C63       1.0  0.34889  0.42094  0.67127  1.0000 -0.0190687612
C   C64       1.0  0.65111  0.57906  0.32873  1.0000 -0.0190687612
C   C65       1.0  0.22057  0.95127  0.79984  1.0000 -0.1063658941
C   C66       1.0  0.77943  0.04873  0.20016  1.0000 -0.1063658941
C   C67       1.0  0.77943  0.95127  0.70016  1.0000 -0.1063658941
C   C68       1.0  0.22057  0.04873  0.29984  1.0000 -0.1063658941
C   C69       1.0  0.72057  0.45127  0.79984  1.0000 -0.1063658941
C   C70       1.0  0.27943  0.54873  0.20016  1.0000 -0.1063658941
C   C71       1.0  0.27943  0.45127  0.70016  1.0000 -0.1063658941
C   C72       1.0  0.72057  0.54873  0.29984  1.0000 -0.1063658941
C   C73       1.0  0.26459  0.03018  0.82959  1.0000 -0.0038508342
C   C74       1.0  0.73541  0.96982  0.17041  1.0000 -0.0038508342
C   C75       1.0  0.73541  0.03018  0.67041  1.0000 -0.005609404
C   C76       1.0  0.26459  0.96982  0.32959  1.0000 -0.0038508342
C   C77       1.0  0.76459  0.53018  0.82959  1.0000 -0.0038508342
C   C78       1.0  0.23541  0.46982  0.17041  1.0000 -0.005609404
C   C79       1.0  0.23541  0.53018  0.67041  1.0000 -0.005609404
C   C80       1.0  0.76459  0.46982  0.32959  1.0000 -0.0038508342
C   C81       1.0  0.23745  0.07812  0.88751  1.0000 -0.1272660831
C   C82       1.0  0.76255  0.92188  0.11249  1.0000 -0.1272660831
C   C83       1.0  0.76255  0.07812  0.61249  1.0000 -0.1272660831
C   C84       1.0  0.23745  0.92188  0.38751  1.0000 -0.1272660831
C   C85       1.0  0.73745  0.57812  0.88751  1.0000 -0.1272660831
C   C86       1.0  0.26255  0.42188  0.11249  1.0000 -0.1272660831
C   C87       1.0  0.26255  0.57812  0.61249  1.0000 -0.1272660831
C   C88       1.0  0.73745  0.42188  0.38751  1.0000 -0.1272660831
C   C89       1.0  0.10223  0.83647  0.80052  1.0000 0.5937400831
C   C90       1.0  0.89777  0.16353  0.19948  1.0000 0.5937400831
C   C91       1.0  0.89777  0.83647  0.69948  1.0000 0.5937400831
C   C92       1.0  0.10223  0.16353  0.30052  1.0000 0.5937400831
C   C93       1.0  0.60223  0.33647  0.80052  1.0000 0.5937400831
C   C94       1.0  0.39777  0.66353  0.19948  1.0000 0.5937400831
C   C95       1.0  0.39777  0.33647  0.69948  1.0000 0.5937400831
C   C96       1.0  0.60223  0.66353  0.30052  1.0000 0.5937400831
C   C97       1.0  0.33936  0.06587  0.79841  1.0000 0.5687631293
C   C98       1.0  0.66064  0.93413  0.20159  1.0000 0.5687631293
C   C99       1.0  0.66064  0.06587  0.70159  1.0000 0.5687631293
C   C100      1.0  0.33936  0.93413  0.29841  1.0000 0.5687631293
C   C101      1.0  0.83936  0.56587  0.79841  1.0000 0.5687631293
C   C102      1.0  0.16064  0.43413  0.20159  1.0000 0.5687631293
C   C103      1.0  0.16064  0.56587  0.70159  1.0000 0.5687631293
C   C104      1.0  0.83936  0.43413  0.29841  1.0000 0.5687631293
N   N1        1.0  0.08165  0.20544  0.08663  1.0000 -0.210346468
N   N2        1.0  0.91835  0.79456  0.91337  1.0000 -0.210346468
N   N3        1.0  0.91835  0.20544  0.41337  1.0000 -0.210346468
N   N4        1.0  0.08165  0.79456  0.58663  1.0000 -0.210346468
N   N5        1.0  0.58165  0.70544  0.08663  1.0000 -0.210346468
N   N6        1.0  0.41835  0.29456  0.91337  1.0000 -0.210346468
N   N7        1.0  0.41835  0.70544  0.41337  1.0000 -0.210346468
N   N8        1.0  0.58165  0.29456  0.58663  1.0000 -0.210346468
O   O1        1.0  0.04515  0.80993  0.83622  1.0000 -0.577643715
O   O2        1.0  0.95485  0.19007  0.16378  1.0000 -0.577643715
O   O3        1.0  0.95485  0.80993  0.66378  1.0000 -0.577643715
O   O4        1.0  0.04515  0.19007  0.33622  1.0000 -0.577643715
O   O5        1.0  0.54515  0.30993  0.83622  1.0000 -0.577643715
O   O6        1.0  0.45485  0.69007  0.16378  1.0000 -0.577643715
O   O7        1.0  0.45485  0.30993  0.66378  1.0000 -0.577643715
O   O8        1.0  0.54515  0.69007  0.33622  1.0000 -0.577643715
O   O9        1.0  0.12057  0.79835  0.74311  1.0000 -0.5113381884
O   O10       1.0  0.87943  0.20165  0.25689  1.0000 -0.5113381884
O   O11       1.0  0.87943  0.79835  0.75689  1.0000 -0.5113381884
O   O12       1.0  0.12057  0.20165  0.24311  1.0000 -0.5113381884
O   O13       1.0  0.62057  0.29835  0.74311  1.0000 -0.5113381884
O   O14       1.0  0.37943  0.70165  0.25689  1.0000 -0.5113381884
O   O15       1.0  0.37943  0.29835  0.75689  1.0000 -0.5113381884
O   O16       1.0  0.62057  0.70165  0.24311  1.0000 -0.5113381884
O   O17       1.0  0.37641  0.13393  0.83929  1.0000 -0.5728681238
O   O18       1.0  0.62359  0.86607  0.16071  1.0000 -0.5728681238
O   O19       1.0  0.62359  0.13393  0.66071  1.0000 -0.5728681238
O   O20       1.0  0.37641  0.86607  0.33929  1.0000 -0.5728681238
O   O21       1.0  0.87641  0.63393  0.83929  1.0000 -0.5728681238
O   O22       1.0  0.12359  0.36607  0.16071  1.0000 -0.5728681238
O   O23       1.0  0.12359  0.63393  0.66071  1.0000 -0.5728681238
O   O24       1.0  0.87641  0.36607  0.33929  1.0000 -0.5728681238
O   O25       1.0  0.35895  0.03296  0.74208  1.0000 -0.5113381884
O   O26       1.0  0.64105  0.96704  0.25792  1.0000 -0.5113381884
O   O27       1.0  0.64105  0.03296  0.75792  1.0000 -0.5014391171
O   O28       1.0  0.35895  0.96704  0.24208  1.0000 -0.5113381884
O   O29       1.0  0.85895  0.53296  0.74208  1.0000 -0.5113381884
O   O30       1.0  0.14105  0.46704  0.25792  1.0000 -0.5113381884
O   O31       1.0  0.14105  0.53296  0.75792  1.0000 -0.5014391171
O   O32       1.0  0.85895  0.46704  0.24208  1.0000 -0.5113381884
