# DDEC6 charges by PACMAN v1.1 (https://github.com/mtap-research/PACMAN-charge/)
data_2013[Cd][dia]3[ASR]1
_chemical_formula_sum              "Cd4 H68 C68 N20 O16"
_cell_length_a       12.2048
_cell_length_b       12.2048
_cell_length_c       16.7987
_cell_angle_alpha    66.2623
_cell_angle_beta     113.738
_cell_angle_gamma    105.544

_symmetry_space_group_name_H-M    "P 1"
_symmetry_Int_Tables_number       1

loop_
  _symmetry_equiv_pos_as_xyz
  'x, y, z'

loop_
  _atom_site_type_symbol
  _atom_site_label
  _atom_site_symmetry_multiplicity
  _atom_site_fract_x
  _atom_site_fract_y
  _atom_site_fract_z
  _atom_site_occupancy
  _atom_site_charge
Cd  Cd1       1.0  0.82566  0.33074  0.36870  1.0000 0.7809934062
Cd  Cd2       1.0  0.33074  0.82566  0.13130  1.0000 0.7809934062
Cd  Cd3       1.0  0.17434  0.66926  0.63130  1.0000 0.7809934062
Cd  Cd4       1.0  0.66926  0.17434  0.86870  1.0000 0.7809934062
H   H1        1.0  0.64910  0.10630  0.07830  1.0000 0.1191968851
H   H2        1.0  0.10630  0.64910  0.42170  1.0000 0.1191968851
H   H3        1.0  0.35090  0.89370  0.92170  1.0000 0.1191968851
H   H4        1.0  0.89370  0.35090  0.57830  1.0000 0.1191968851
H   H5        1.0  0.79520  0.27040  0.06950  1.0000 0.1316382629
H   H6        1.0  0.27040  0.79520  0.43050  1.0000 0.1316382629
H   H7        1.0  0.20480  0.72960  0.93050  1.0000 0.1316382629
H   H8        1.0  0.72960  0.20480  0.56950  1.0000 0.1316382629
H   H9        1.0  0.86550  0.35810  0.18140  1.0000 0.1191968851
H   H10       1.0  0.35810  0.86550  0.31860  1.0000 0.1191968851
H   H11       1.0  0.13450  0.64190  0.81860  1.0000 0.1191968851
H   H12       1.0  0.64190  0.13450  0.68140  1.0000 0.1191968851
H   H13       1.0  0.57250  0.36770  0.37660  1.0000 0.1191968851
H   H14       1.0  0.36770  0.57250  0.12340  1.0000 0.1191968851
H   H15       1.0  0.42750  0.63230  0.62340  1.0000 0.1191968851
H   H16       1.0  0.63230  0.42750  0.87660  1.0000 0.1191968851
H   H17       1.0  0.85100  0.61260  0.37540  1.0000 0.1191968851
H   H18       1.0  0.61260  0.85100  0.12460  1.0000 0.1191968851
H   H19       1.0  0.14900  0.38740  0.62460  1.0000 0.1191968851
H   H20       1.0  0.38740  0.14900  0.87540  1.0000 0.1191968851
H   H21       1.0  0.69210  0.70290  0.36970  1.0000 0.1316382629
H   H22       1.0  0.70290  0.69210  0.13030  1.0000 0.1316382629
H   H23       1.0  0.30790  0.29710  0.63030  1.0000 0.1316382629
H   H24       1.0  0.29710  0.30790  0.86970  1.0000 0.1316382629
H   H25       1.0  0.45050  0.62810  0.32250  1.0000 0.1124790502
H   H26       1.0  0.62810  0.45050  0.17750  1.0000 0.1124790502
H   H27       1.0  0.54950  0.37190  0.67750  1.0000 0.1124790502
H   H28       1.0  0.37190  0.54950  0.82250  1.0000 0.1124790502
H   H29       1.0  0.41530  0.48790  0.35210  1.0000 0.1191968851
H   H30       1.0  0.48790  0.41530  0.14790  1.0000 0.1191968851
H   H31       1.0  0.58470  0.51210  0.64790  1.0000 0.1191968851
H   H32       1.0  0.51210  0.58470  0.85210  1.0000 0.1191968851
H   H33       1.0  0.52290  0.62470  0.46780  1.0000 0.1124790502
H   H34       1.0  0.62470  0.52290  0.03220  1.0000 0.1124790502
H   H35       1.0  0.47710  0.37530  0.53220  1.0000 0.1124790502
H   H36       1.0  0.37530  0.47710  0.96780  1.0000 0.1124790502
H   H37       1.0  0.39400  0.55220  0.45140  1.0000 0.1013252963
H   H38       1.0  0.55220  0.39400  0.04860  1.0000 0.1013252963
H   H39       1.0  0.60600  0.44780  0.54860  1.0000 0.1013252963
H   H40       1.0  0.44780  0.60600  0.95140  1.0000 0.1013252963
H   H41       1.0  0.79910  0.04750  0.51180  1.0000 0.1191968851
H   H42       1.0  0.04750  0.79910  0.98820  1.0000 0.1191968851
H   H43       1.0  0.20090  0.95250  0.48820  1.0000 0.1191968851
H   H44       1.0  0.95250  0.20090  0.01180  1.0000 0.1191968851
H   H45       1.0  0.10430  0.25270  0.51940  1.0000 0.1191968851
H   H46       1.0  0.25270  0.10430  0.98060  1.0000 0.1191968851
H   H47       1.0  0.89570  0.74730  0.48060  1.0000 0.1191968851
H   H48       1.0  0.74730  0.89570  0.01940  1.0000 0.1191968851
H   H49       1.0  0.14890  0.05790  0.63610  1.0000 0.1352773947
H   H50       1.0  0.05790  0.14890  0.86390  1.0000 0.1352773947
H   H51       1.0  0.85110  0.94210  0.36390  1.0000 0.1352773947
H   H52       1.0  0.94210  0.85110  0.13610  1.0000 0.1352773947
H   H53       1.0  0.86340  0.85160  0.62940  1.0000 0.1191968851
H   H54       1.0  0.85160  0.86340  0.87060  1.0000 0.1191968851
H   H55       1.0  0.13660  0.14840  0.37060  1.0000 0.1191968851
H   H56       1.0  0.14840  0.13660  0.12940  1.0000 0.1191968851
H   H57       1.0  0.00010  0.83850  0.65980  1.0000 0.1191968851
H   H58       1.0  0.83850  0.00010  0.84020  1.0000 0.1191968851
H   H59       1.0  0.99990  0.16150  0.34020  1.0000 0.1191968851
H   H60       1.0  0.16150  0.99990  0.15980  1.0000 0.1191968851
H   H61       1.0  0.94620  0.80200  0.78910  1.0000 0.1124790502
H   H62       1.0  0.80200  0.94620  0.71090  1.0000 0.1124790502
H   H63       1.0  0.05380  0.19800  0.21090  1.0000 0.1124790502
H   H64       1.0  0.19800  0.05380  0.28910  1.0000 0.1124790502
H   H65       1.0  0.04810  0.91170  0.77980  1.0000 0.1013252963
H   H66       1.0  0.91170  0.04810  0.72020  1.0000 0.1013252963
H   H67       1.0  0.95190  0.08830  0.22020  1.0000 0.1013252963
H   H68       1.0  0.08830  0.95190  0.27980  1.0000 0.1013252963
C   C1        1.0  0.60020  0.14740  0.31900  1.0000 0.515565638
C   C2        1.0  0.14740  0.60020  0.18100  1.0000 0.515565638
C   C3        1.0  0.39980  0.85260  0.68100  1.0000 0.515565638
C   C4        1.0  0.85260  0.39980  0.81900  1.0000 0.515565638
C   C5        1.0  0.52780  0.99860  0.19280  1.0000 0.5480415267
C   C6        1.0  0.99860  0.52780  0.30720  1.0000 0.5480415267
C   C7        1.0  0.47220  0.00140  0.80720  1.0000 0.5480415267
C   C8        1.0  0.00140  0.47220  0.69280  1.0000 0.5480415267
C   C9        1.0  0.66000  0.17080  0.24910  1.0000 0.0625177776
C   C10       1.0  0.17080  0.66000  0.25090  1.0000 0.0625177776
C   C11       1.0  0.34000  0.82920  0.75090  1.0000 0.0625177776
C   C12       1.0  0.82920  0.34000  0.74910  1.0000 0.0625177776
C   C13       1.0  0.62090  0.10730  0.18840  1.0000 -0.047342109
C   C14       1.0  0.10730  0.62090  0.31160  1.0000 -0.047342109
C   C15       1.0  0.37910  0.89270  0.81160  1.0000 -0.047342109
C   C16       1.0  0.89270  0.37910  0.68840  1.0000 -0.047342109
C   C17       1.0  0.67390  0.14610  0.12090  1.0000 -0.0854480485
C   C18       1.0  0.14610  0.67390  0.37910  1.0000 -0.0854480485
C   C19       1.0  0.32610  0.85390  0.87910  1.0000 -0.0854480485
C   C20       1.0  0.85390  0.32610  0.62090  1.0000 -0.0854480485
C   C21       1.0  0.76220  0.24200  0.11650  1.0000 -0.149380851
C   C22       1.0  0.24200  0.76220  0.38350  1.0000 -0.149380851
C   C23       1.0  0.23780  0.75800  0.88350  1.0000 -0.149380851
C   C24       1.0  0.75800  0.23780  0.61650  1.0000 -0.149380851
C   C25       1.0  0.80180  0.29600  0.18210  1.0000 0.0701581692
C   C26       1.0  0.29600  0.80180  0.31790  1.0000 0.0701581692
C   C27       1.0  0.19820  0.70400  0.81790  1.0000 0.0701581692
C   C28       1.0  0.70400  0.19820  0.68210  1.0000 0.0701581692
C   C29       1.0  0.62310  0.44010  0.37530  1.0000 0.0878312909
C   C30       1.0  0.44010  0.62310  0.12470  1.0000 0.0878312909
C   C31       1.0  0.37690  0.55990  0.62470  1.0000 0.0878312909
C   C32       1.0  0.55990  0.37690  0.87530  1.0000 0.0878312909
C   C33       1.0  0.77400  0.57380  0.37490  1.0000 -0.0420738626
C   C34       1.0  0.57380  0.77400  0.12510  1.0000 -0.0420738626
C   C35       1.0  0.22600  0.42620  0.62510  1.0000 -0.0420738626
C   C36       1.0  0.42620  0.22600  0.87490  1.0000 -0.0420738626
C   C37       1.0  0.68760  0.62460  0.37150  1.0000 -0.1030136453
C   C38       1.0  0.62460  0.68760  0.12850  1.0000 -0.1030136453
C   C39       1.0  0.31240  0.37540  0.62850  1.0000 -0.1030136453
C   C40       1.0  0.37540  0.31240  0.87150  1.0000 -0.1030136453
C   C41       1.0  0.47520  0.55220  0.36960  1.0000 -0.1436040136
C   C42       1.0  0.55220  0.47520  0.13040  1.0000 -0.1436040136
C   C43       1.0  0.52480  0.44780  0.63040  1.0000 -0.1436040136
C   C44       1.0  0.44780  0.52480  0.86960  1.0000 -0.1436040136
C   C45       1.0  0.47630  0.55050  0.45790  1.0000 -0.1932184635
C   C46       1.0  0.55050  0.47630  0.04210  1.0000 -0.1932184635
C   C47       1.0  0.52370  0.44950  0.54210  1.0000 -0.1932184635
C   C48       1.0  0.44950  0.52370  0.95790  1.0000 -0.1932184635
C   C49       1.0  0.88110  0.07530  0.52850  1.0000 0.0878312909
C   C50       1.0  0.07530  0.88110  0.97150  1.0000 0.0878312909
C   C51       1.0  0.11890  0.92470  0.47150  1.0000 0.0878312909
C   C52       1.0  0.92470  0.11890  0.02850  1.0000 0.0878312909
C   C53       1.0  0.04730  0.18650  0.53270  1.0000 -0.0420738626
C   C54       1.0  0.18650  0.04730  0.96730  1.0000 -0.0420738626
C   C55       1.0  0.95270  0.81350  0.46730  1.0000 -0.0420738626
C   C56       1.0  0.81350  0.95270  0.03270  1.0000 -0.0420738626
C   C57       1.0  0.07290  0.07990  0.59710  1.0000 -0.1206778395
C   C58       1.0  0.07990  0.07290  0.90290  1.0000 -0.1206778395
C   C59       1.0  0.92710  0.92010  0.40290  1.0000 -0.1206778395
C   C60       1.0  0.92010  0.92710  0.09710  1.0000 -0.1206778395
C   C61       1.0  0.94510  0.88690  0.65530  1.0000 -0.1266350797
C   C62       1.0  0.88690  0.94510  0.84470  1.0000 -0.1266350797
C   C63       1.0  0.05490  0.11310  0.34470  1.0000 -0.1266350797
C   C64       1.0  0.11310  0.05490  0.15530  1.0000 -0.1266350797
C   C65       1.0  0.96410  0.88430  0.75140  1.0000 -0.1932184635
C   C66       1.0  0.88430  0.96410  0.74860  1.0000 -0.1932184635
C   C67       1.0  0.03590  0.11570  0.24860  1.0000 -0.1932184635
C   C68       1.0  0.11570  0.03590  0.25140  1.0000 -0.1932184635
N   N1        1.0  0.75160  0.26180  0.24670  1.0000 -0.2761565405
N   N2        1.0  0.26180  0.75160  0.25330  1.0000 -0.2761565405
N   N3        1.0  0.24840  0.73820  0.75330  1.0000 -0.2761565405
N   N4        1.0  0.73820  0.24840  0.74670  1.0000 -0.2761565405
N   N5        1.0  0.59190  0.53770  0.37120  1.0000 0.041152081
N   N6        1.0  0.53770  0.59190  0.12880  1.0000 0.041152081
N   N7        1.0  0.40810  0.46230  0.62880  1.0000 0.041152081
N   N8        1.0  0.46230  0.40810  0.87120  1.0000 0.041152081
N   N9        1.0  0.73470  0.45770  0.37740  1.0000 -0.2964689578
N   N10       1.0  0.45770  0.73470  0.12260  1.0000 -0.2964689578
N   N11       1.0  0.26530  0.54230  0.62260  1.0000 -0.2964689578
N   N12       1.0  0.54230  0.26530  0.87740  1.0000 -0.2964689578
N   N13       1.0  0.96520  0.01020  0.59400  1.0000 0.041152081
N   N14       1.0  0.01020  0.96520  0.90600  1.0000 0.041152081
N   N15       1.0  0.03480  0.98980  0.40600  1.0000 0.041152081
N   N16       1.0  0.98980  0.03480  0.09400  1.0000 0.041152081
N   N17       1.0  0.92740  0.18500  0.48960  1.0000 -0.2964689578
N   N18       1.0  0.18500  0.92740  0.01040  1.0000 -0.2964689578
N   N19       1.0  0.07260  0.81500  0.51040  1.0000 -0.2964689578
N   N20       1.0  0.81500  0.07260  0.98960  1.0000 -0.2964689578
O   O1        1.0  0.65470  0.19130  0.38170  1.0000 -0.5624702084
O   O2        1.0  0.19130  0.65470  0.11830  1.0000 -0.5624702084
O   O3        1.0  0.34530  0.80870  0.61830  1.0000 -0.5624702084
O   O4        1.0  0.80870  0.34530  0.88170  1.0000 -0.5624702084
O   O5        1.0  0.50250  0.08730  0.30840  1.0000 -0.5015833187
O   O6        1.0  0.08730  0.50250  0.19160  1.0000 -0.5015833187
O   O7        1.0  0.49750  0.91270  0.69160  1.0000 -0.5015833187
O   O8        1.0  0.91270  0.49750  0.80840  1.0000 -0.5015833187
O   O9        1.0  0.43500  0.00900  0.12670  1.0000 -0.5187059599
O   O10       1.0  0.00900  0.43500  0.37330  1.0000 -0.5187059599
O   O11       1.0  0.56500  0.99100  0.87330  1.0000 -0.5187059599
O   O12       1.0  0.99100  0.56500  0.62670  1.0000 -0.5187059599
O   O13       1.0  0.55170  0.90330  0.25770  1.0000 -0.5481167095
O   O14       1.0  0.90330  0.55170  0.24230  1.0000 -0.5481167095
O   O15       1.0  0.44830  0.09670  0.74230  1.0000 -0.5481167095
O   O16       1.0  0.09670  0.44830  0.75770  1.0000 -0.5481167095
