# DDEC6 charges by PACMAN v1.1 (https://github.com/mtap-research/PACMAN-charge/)
data_2013[Ni][cds]3[ASR]1
_chemical_formula_sum              "Ni2 H52 C72 N16"
_cell_length_a       12.9132
_cell_length_b       12.9132
_cell_length_c       17.2072
_cell_angle_alpha    74.2259
_cell_angle_beta     105.774
_cell_angle_gamma    136.102

_symmetry_space_group_name_H-M    "P 1"
_symmetry_Int_Tables_number       1

loop_
  _symmetry_equiv_pos_as_xyz
  'x, y, z'

loop_
  _atom_site_type_symbol
  _atom_site_label
  _atom_site_symmetry_multiplicity
  _atom_site_fract_x
  _atom_site_fract_y
  _atom_site_fract_z
  _atom_site_occupancy
  _atom_site_charge
Ni  Ni1       1.0  0.97251  0.91739  0.61039  1.0000 0.5554684487
Ni  Ni2       1.0  0.08261  0.02749  0.11039  1.0000 0.5554684487
H   H1        1.0  0.81970  0.83390  0.76310  1.0000 0.099322908
H   H2        1.0  0.16610  0.18030  0.26310  1.0000 0.099322908
H   H3        1.0  0.60290  0.79730  0.76460  1.0000 0.1188764144
H   H4        1.0  0.20270  0.39710  0.26460  1.0000 0.1188764144
H   H5        1.0  0.52450  0.84290  0.62130  1.0000 0.1188764144
H   H6        1.0  0.15710  0.47550  0.12130  1.0000 0.1188764144
H   H7        1.0  0.69700  0.95140  0.33620  1.0000 0.1095479217
H   H8        1.0  0.04860  0.30300  0.83620  1.0000 0.1095479217
H   H9        1.0  0.88660  0.97820  0.29700  1.0000 0.1188764144
H   H10       1.0  0.02180  0.11340  0.79700  1.0000 0.1188764144
H   H11       1.0  0.03200  0.97480  0.42650  1.0000 0.099322908
H   H12       1.0  0.02520  0.96800  0.92650  1.0000 0.099322908
H   H13       1.0  0.39290  0.68650  0.47870  1.0000 0.1188764144
H   H14       1.0  0.31350  0.60710  0.97870  1.0000 0.1188764144
H   H15       1.0  0.21490  0.69010  0.40860  1.0000 0.1311249133
H   H16       1.0  0.30990  0.78510  0.90860  1.0000 0.1311249133
H   H17       1.0  0.53850  0.14030  0.36730  1.0000 0.1385153518
H   H18       1.0  0.85970  0.46150  0.86730  1.0000 0.1385153518
H   H19       1.0  0.71790  0.13590  0.43190  1.0000 0.1188764144
H   H20       1.0  0.86410  0.28210  0.93190  1.0000 0.1188764144
H   H21       1.0  0.34800  0.07920  0.24550  1.0000 0.099322908
H   H22       1.0  0.92080  0.65200  0.74550  1.0000 0.099322908
H   H23       1.0  0.93260  0.79860  0.29080  1.0000 0.1188764144
H   H24       1.0  0.20140  0.06740  0.79080  1.0000 0.1188764144
H   H25       1.0  0.05710  0.73930  0.39910  1.0000 0.1188764144
H   H26       1.0  0.26070  0.94290  0.89910  1.0000 0.1188764144
H   H27       1.0  0.63590  0.59410  0.61640  1.0000 0.099322908
H   H28       1.0  0.40590  0.36410  0.11640  1.0000 0.099322908
H   H29       1.0  0.55470  0.34650  0.63670  1.0000 0.1188764144
H   H30       1.0  0.65350  0.44530  0.13670  1.0000 0.1188764144
H   H31       1.0  0.77650  0.39790  0.62640  1.0000 0.1188764144
H   H32       1.0  0.60210  0.22350  0.12640  1.0000 0.1188764144
H   H33       1.0  0.33950  0.90350  0.56060  1.0000 0.1188764144
H   H34       1.0  0.09650  0.66050  0.06060  1.0000 0.1188764144
H   H35       1.0  0.47010  0.17070  0.52260  1.0000 0.1188764144
H   H36       1.0  0.82930  0.52990  0.02260  1.0000 0.1188764144
H   H37       1.0  0.29840  0.18780  0.54290  1.0000 0.099322908
H   H38       1.0  0.81220  0.70160  0.04290  1.0000 0.099322908
H   H39       1.0  0.94080  0.50700  0.50800  1.0000 0.1188764144
H   H40       1.0  0.49300  0.05920  0.00800  1.0000 0.1188764144
H   H41       1.0  0.99620  0.36680  0.52210  1.0000 0.1311249133
H   H42       1.0  0.63320  0.00380  0.02210  1.0000 0.1311249133
H   H43       1.0  0.27240  0.55180  0.72560  1.0000 0.1311249133
H   H44       1.0  0.44820  0.72760  0.22560  1.0000 0.1311249133
H   H45       1.0  0.22540  0.69980  0.70820  1.0000 0.1188764144
H   H46       1.0  0.30020  0.77460  0.20820  1.0000 0.1188764144
H   H47       1.0  0.96050  0.15510  0.59860  1.0000 0.1095479217
H   H48       1.0  0.84490  0.03950  0.09860  1.0000 0.1095479217
H   H49       1.0  0.33620  0.25720  0.67640  1.0000 0.1188764144
H   H50       1.0  0.74280  0.66380  0.17640  1.0000 0.1188764144
H   H51       1.0  0.38950  0.48070  0.68030  1.0000 0.1311249133
H   H52       1.0  0.51930  0.61050  0.18030  1.0000 0.1311249133
C   C1        1.0  0.76686  0.84154  0.71699  1.0000 0.0308411254
C   C2        1.0  0.15846  0.23314  0.21699  1.0000 0.0308411254
C   C3        1.0  0.64503  0.82177  0.71885  1.0000 -0.1792020283
C   C4        1.0  0.17823  0.35497  0.21885  1.0000 -0.1792020283
C   C5        1.0  0.60128  0.84592  0.63974  1.0000 -0.2210945699
C   C6        1.0  0.15408  0.39872  0.13974  1.0000 -0.2210945699
C   C7        1.0  0.69528  0.87624  0.59123  1.0000 0.1188764144
C   C8        1.0  0.12376  0.30472  0.09123  1.0000 0.1188764144
C   C9        1.0  0.69132  0.90952  0.50630  1.0000 -0.0477388583
C   C10       1.0  0.09048  0.30868  0.00630  1.0000 -0.0477388583
C   C11       1.0  0.78426  0.94034  0.45815  1.0000 0.1385153518
C   C12       1.0  0.05966  0.21574  0.95815  1.0000 0.1385153518
C   C13       1.0  0.76705  0.95315  0.37136  1.0000 -0.2148111377
C   C14       1.0  0.04685  0.23295  0.87136  1.0000 -0.2148111377
C   C15       1.0  0.87164  0.96856  0.34943  1.0000 -0.1710401961
C   C16       1.0  0.03144  0.12836  0.84943  1.0000 -0.1710401961
C   C17       1.0  0.95332  0.96648  0.42379  1.0000 0.0404921362
C   C18       1.0  0.03352  0.04668  0.92379  1.0000 0.0404921362
C   C19       1.0  0.57456  0.91062  0.46199  1.0000 0.0755162288
C   C20       1.0  0.08938  0.42544  0.96199  1.0000 0.0755162288
C   C21       1.0  0.42272  0.77748  0.45537  1.0000 -0.1292860621
C   C22       1.0  0.22252  0.57728  0.95537  1.0000 -0.1292860621
C   C23       1.0  0.31577  0.77963  0.41424  1.0000 -0.1792020283
C   C24       1.0  0.22037  0.68423  0.91424  1.0000 -0.1792020283
C   C25       1.0  0.35898  0.91468  0.38163  1.0000 0.1626656737
C   C26       1.0  0.08532  0.64102  0.88163  1.0000 0.1626656737
C   C27       1.0  0.50978  0.04924  0.38871  1.0000 -0.1792020283
C   C28       1.0  0.95076  0.49022  0.88871  1.0000 -0.1792020283
C   C29       1.0  0.61673  0.04627  0.42807  1.0000 -0.1292860621
C   C30       1.0  0.95373  0.38327  0.92807  1.0000 -0.1292860621
C   C31       1.0  0.25952  0.00166  0.26966  1.0000 0.0912992518
C   C32       1.0  0.99834  0.74048  0.76966  1.0000 0.0912992518
C   C33       1.0  0.03225  0.84755  0.29470  1.0000 -0.032889488
C   C34       1.0  0.15245  0.96775  0.79470  1.0000 -0.032889488
C   C35       1.0  0.10057  0.81443  0.35556  1.0000 -0.1104899038
C   C36       1.0  0.18557  0.89943  0.85556  1.0000 -0.1104899038
C   C37       1.0  0.69750  0.58124  0.61480  1.0000 0.0404921362
C   C38       1.0  0.41876  0.30250  0.11480  1.0000 0.0404921362
C   C39       1.0  0.65013  0.44013  0.62677  1.0000 -0.1710401961
C   C40       1.0  0.55987  0.34987  0.12677  1.0000 -0.1710401961
C   C41       1.0  0.77240  0.46854  0.62091  1.0000 -0.2210945699
C   C42       1.0  0.53146  0.22760  0.12091  1.0000 -0.2210945699
C   C43       1.0  0.89255  0.62791  0.60480  1.0000 0.1311249133
C   C44       1.0  0.37209  0.10745  0.10480  1.0000 0.1311249133
C   C45       1.0  0.04177  0.70881  0.59785  1.0000 -0.0477388583
C   C46       1.0  0.29119  0.95823  0.09785  1.0000 -0.0477388583
C   C47       1.0  0.15994  0.86510  0.58350  1.0000 0.1385153518
C   C48       1.0  0.13490  0.84006  0.08350  1.0000 0.1385153518
C   C49       1.0  0.30306  0.94438  0.56110  1.0000 -0.2210945699
C   C50       1.0  0.05562  0.69694  0.06110  1.0000 -0.2210945699
C   C51       1.0  0.37558  0.09186  0.54054  1.0000 -0.1710401961
C   C52       1.0  0.90814  0.62442  0.04054  1.0000 -0.1710401961
C   C53       1.0  0.27646  0.09948  0.55226  1.0000 0.0308411254
C   C54       1.0  0.90052  0.72354  0.05226  1.0000 0.0308411254
C   C55       1.0  0.07694  0.61764  0.60679  1.0000 0.0755162288
C   C56       1.0  0.38236  0.92306  0.10679  1.0000 0.0755162288
C   C57       1.0  0.00826  0.51714  0.55124  1.0000 -0.1380223248
C   C58       1.0  0.48286  0.99174  0.05124  1.0000 -0.1380223248
C   C59       1.0  0.04012  0.43182  0.56010  1.0000 -0.1866869245
C   C60       1.0  0.56818  0.95988  0.06010  1.0000 -0.1866869245
C   C61       1.0  0.13729  0.44401  0.62557  1.0000 0.1626656737
C   C62       1.0  0.55599  0.86271  0.12557  1.0000 0.1626656737
C   C63       1.0  0.20693  0.54383  0.68172  1.0000 -0.1792020283
C   C64       1.0  0.45617  0.79307  0.18172  1.0000 -0.1792020283
C   C65       1.0  0.17758  0.63136  0.67155  1.0000 -0.1292860621
C   C66       1.0  0.36864  0.82242  0.17155  1.0000 -0.1292860621
C   C67       1.0  0.06037  0.20731  0.61807  1.0000 0.0912992518
C   C68       1.0  0.79269  0.93963  0.11807  1.0000 0.0912992518
C   C69       1.0  0.26668  0.26444  0.66093  1.0000 -0.0441379666
C   C70       1.0  0.73556  0.73332  0.16093  1.0000 -0.0441379666
C   C71       1.0  0.29780  0.38938  0.66332  1.0000 -0.1013940599
C   C72       1.0  0.61062  0.70220  0.16332  1.0000 -0.1013940599
N   N1        1.0  0.79751  0.87233  0.64167  1.0000 -0.3099041794
N   N2        1.0  0.12767  0.20249  0.14167  1.0000 -0.3099041794
N   N3        1.0  0.90432  0.95126  0.48883  1.0000 -0.2986151838
N   N4        1.0  0.04874  0.09568  0.98883  1.0000 -0.2986151838
N   N5        1.0  0.24722  0.91500  0.33936  1.0000 0.0011357253
N   N6        1.0  0.08500  0.75278  0.83936  1.0000 0.0011357253
N   N7        1.0  0.13130  0.96354  0.23983  1.0000 -0.2647946987
N   N8        1.0  0.03646  0.86870  0.73983  1.0000 -0.2647946987
N   N9        1.0  0.84102  0.69354  0.60101  1.0000 -0.2986151838
N   N10       1.0  0.30646  0.15898  0.10101  1.0000 -0.2986151838
N   N11       1.0  0.14892  0.96660  0.57809  1.0000 -0.2986151838
N   N12       1.0  0.03340  0.85108  0.07809  1.0000 -0.2986151838
N   N13       1.0  0.16524  0.35180  0.63531  1.0000 0.0011357253
N   N14       1.0  0.64820  0.83476  0.13531  1.0000 0.0011357253
N   N15       1.0  0.11773  0.15017  0.63234  1.0000 -0.2538714025
N   N16       1.0  0.84983  0.88227  0.13234  1.0000 -0.2538714025
