# DDEC6 charges by PACMAN v1.1 (https://github.com/mtap-research/PACMAN-charge/)
data_2013[Ni][xmz]3[ASR]4
_chemical_formula_sum              "Ni6 H88 C144 N12 O26"
_cell_length_a       18.5288
_cell_length_b       18.5288
_cell_length_c       18.5288
_cell_angle_alpha    103.521
_cell_angle_beta     103.521
_cell_angle_gamma    103.521

_symmetry_space_group_name_H-M    "P 1"
_symmetry_Int_Tables_number       1

loop_
  _symmetry_equiv_pos_as_xyz
  'x, y, z'

loop_
  _atom_site_type_symbol
  _atom_site_label
  _atom_site_symmetry_multiplicity
  _atom_site_fract_x
  _atom_site_fract_y
  _atom_site_fract_z
  _atom_site_occupancy
  _atom_site_charge
Ni  Ni1       1.0  0.81885  0.75000  0.68115  1.0000 0.8799435414
Ni  Ni2       1.0  0.75000  0.68115  0.81885  1.0000 0.8799435414
Ni  Ni3       1.0  0.68115  0.81885  0.75000  1.0000 0.8799435414
Ni  Ni4       1.0  0.18115  0.25000  0.31885  1.0000 0.8799435414
Ni  Ni5       1.0  0.25000  0.31885  0.18115  1.0000 0.8799435414
Ni  Ni6       1.0  0.31885  0.18115  0.25000  1.0000 0.8799435414
H   H1        1.0  0.23310  0.54320  0.26030  1.0000 0.1186777286
H   H2        1.0  0.54320  0.26030  0.23310  1.0000 0.1186777286
H   H3        1.0  0.26030  0.23310  0.54320  1.0000 0.1186777286
H   H4        1.0  0.26690  0.23970  0.95680  1.0000 0.1186777286
H   H5        1.0  0.95680  0.26690  0.23970  1.0000 0.1186777286
H   H6        1.0  0.23970  0.95680  0.26690  1.0000 0.1186777286
H   H7        1.0  0.76690  0.45680  0.73970  1.0000 0.1186777286
H   H8        1.0  0.45680  0.73970  0.76690  1.0000 0.1186777286
H   H9        1.0  0.73970  0.76690  0.45680  1.0000 0.1186777286
H   H10       1.0  0.73310  0.76030  0.04320  1.0000 0.1186777286
H   H11       1.0  0.04320  0.73310  0.76030  1.0000 0.1186777286
H   H12       1.0  0.76030  0.04320  0.73310  1.0000 0.1186777286
H   H13       1.0  0.19020  0.65200  0.29280  1.0000 0.1186777286
H   H14       1.0  0.65200  0.29280  0.19020  1.0000 0.1186777286
H   H15       1.0  0.29280  0.19020  0.65200  1.0000 0.1186777286
H   H16       1.0  0.30980  0.20720  0.84800  1.0000 0.1186777286
H   H17       1.0  0.84800  0.30980  0.20720  1.0000 0.1186777286
H   H18       1.0  0.20720  0.84800  0.30980  1.0000 0.1186777286
H   H19       1.0  0.80980  0.34800  0.70720  1.0000 0.1186777286
H   H20       1.0  0.34800  0.70720  0.80980  1.0000 0.1186777286
H   H21       1.0  0.70720  0.80980  0.34800  1.0000 0.1186777286
H   H22       1.0  0.69020  0.79280  0.15200  1.0000 0.1186777286
H   H23       1.0  0.15200  0.69020  0.79280  1.0000 0.1186777286
H   H24       1.0  0.79280  0.15200  0.69020  1.0000 0.1186777286
H   H25       1.0  0.13710  0.58710  0.47080  1.0000 0.1096697201
H   H26       1.0  0.58710  0.47080  0.13710  1.0000 0.1096697201
H   H27       1.0  0.47080  0.13710  0.58710  1.0000 0.1096697201
H   H28       1.0  0.36290  0.02920  0.91290  1.0000 0.1096697201
H   H29       1.0  0.91290  0.36290  0.02920  1.0000 0.1096697201
H   H30       1.0  0.02920  0.91290  0.36290  1.0000 0.1096697201
H   H31       1.0  0.86290  0.41290  0.52920  1.0000 0.1096697201
H   H32       1.0  0.41290  0.52920  0.86290  1.0000 0.1096697201
H   H33       1.0  0.52920  0.86290  0.41290  1.0000 0.1096697201
H   H34       1.0  0.63710  0.97080  0.08710  1.0000 0.1096697201
H   H35       1.0  0.08710  0.63710  0.97080  1.0000 0.1096697201
H   H36       1.0  0.97080  0.08710  0.63710  1.0000 0.1096697201
H   H37       1.0  0.17570  0.47700  0.43610  1.0000 0.1186777286
H   H38       1.0  0.47700  0.43610  0.17570  1.0000 0.1186777286
H   H39       1.0  0.43610  0.17570  0.47700  1.0000 0.1186777286
H   H40       1.0  0.32430  0.06390  0.02300  1.0000 0.1186777286
H   H41       1.0  0.02300  0.32430  0.06390  1.0000 0.1186777286
H   H42       1.0  0.06390  0.02300  0.32430  1.0000 0.1186777286
H   H43       1.0  0.82430  0.52300  0.56390  1.0000 0.1186777286
H   H44       1.0  0.52300  0.56390  0.82430  1.0000 0.1186777286
H   H45       1.0  0.56390  0.82430  0.52300  1.0000 0.1186777286
H   H46       1.0  0.67570  0.93610  0.97700  1.0000 0.1186777286
H   H47       1.0  0.97700  0.67570  0.93610  1.0000 0.1186777286
H   H48       1.0  0.93610  0.97700  0.67570  1.0000 0.1186777286
H   H49       1.0  0.05920  0.64850  0.46630  1.0000 0.1096697201
H   H50       1.0  0.64850  0.46630  0.05920  1.0000 0.1096697201
H   H51       1.0  0.46630  0.05920  0.64850  1.0000 0.1096697201
H   H52       1.0  0.44080  0.03370  0.85150  1.0000 0.1096697201
H   H53       1.0  0.85150  0.44080  0.03370  1.0000 0.1096697201
H   H54       1.0  0.03370  0.85150  0.44080  1.0000 0.1096697201
H   H55       1.0  0.94080  0.35150  0.53370  1.0000 0.1096697201
H   H56       1.0  0.35150  0.53370  0.94080  1.0000 0.1096697201
H   H57       1.0  0.53370  0.94080  0.35150  1.0000 0.1096697201
H   H58       1.0  0.55920  0.96630  0.14850  1.0000 0.1096697201
H   H59       1.0  0.14850  0.55920  0.96630  1.0000 0.1096697201
H   H60       1.0  0.96630  0.14850  0.55920  1.0000 0.1096697201
H   H61       1.0  0.94310  0.83560  0.48860  1.0000 0.1276400156
H   H62       1.0  0.83560  0.48860  0.94310  1.0000 0.1276400156
H   H63       1.0  0.48860  0.94310  0.83560  1.0000 0.1276400156
H   H64       1.0  0.55690  0.01140  0.66440  1.0000 0.1276400156
H   H65       1.0  0.66440  0.55690  0.01140  1.0000 0.1276400156
H   H66       1.0  0.01140  0.66440  0.55690  1.0000 0.1276400156
H   H67       1.0  0.05690  0.16440  0.51140  1.0000 0.1276400156
H   H68       1.0  0.16440  0.51140  0.05690  1.0000 0.1276400156
H   H69       1.0  0.51140  0.05690  0.16440  1.0000 0.1276400156
H   H70       1.0  0.44310  0.98860  0.33560  1.0000 0.1276400156
H   H71       1.0  0.33560  0.44310  0.98860  1.0000 0.1276400156
H   H72       1.0  0.98860  0.33560  0.44310  1.0000 0.1276400156
H   H73       1.0  0.86480  0.83330  0.56920  1.0000 0.1096697201
H   H74       1.0  0.83330  0.56920  0.86480  1.0000 0.1096697201
H   H75       1.0  0.56920  0.86480  0.83330  1.0000 0.1096697201
H   H76       1.0  0.63520  0.93080  0.66667  1.0000 0.1096697201
H   H77       1.0  0.66667  0.63520  0.93080  1.0000 0.1096697201
H   H78       1.0  0.93080  0.66667  0.63520  1.0000 0.1096697201
H   H79       1.0  0.13520  0.16670  0.43080  1.0000 0.1096697201
H   H80       1.0  0.16670  0.43080  0.13520  1.0000 0.1096697201
H   H81       1.0  0.43080  0.13520  0.16670  1.0000 0.1096697201
H   H82       1.0  0.36480  0.06920  0.33333  1.0000 0.1096697201
H   H83       1.0  0.33333  0.36480  0.06920  1.0000 0.1096697201
H   H84       1.0  0.06920  0.33333  0.36480  1.0000 0.1096697201
H   H85       1.0  0.79267  0.79267  0.79267  1.0000 0.3733364261
H   H86       1.0  0.70733  0.70733  0.70733  1.0000 0.3733364261
H   H87       1.0  0.20733  0.20733  0.20733  1.0000 0.3733364261
H   H88       1.0  0.29267  0.29267  0.29267  1.0000 0.3733364261
C   C1        1.0  0.22500  0.42190  0.31800  1.0000 0.5787093309
C   C2        1.0  0.42190  0.31800  0.22500  1.0000 0.5787093309
C   C3        1.0  0.31800  0.22500  0.42190  1.0000 0.5787093309
C   C4        1.0  0.27500  0.18200  0.07810  1.0000 0.5787093309
C   C5        1.0  0.07810  0.27500  0.18200  1.0000 0.5787093309
C   C6        1.0  0.18200  0.07810  0.27500  1.0000 0.5787093309
C   C7        1.0  0.77500  0.57810  0.68200  1.0000 0.5787093309
C   C8        1.0  0.57810  0.68200  0.77500  1.0000 0.5787093309
C   C9        1.0  0.68200  0.77500  0.57810  1.0000 0.5787093309
C   C10       1.0  0.72500  0.81800  0.92190  1.0000 0.5787093309
C   C11       1.0  0.92190  0.72500  0.81800  1.0000 0.5787093309
C   C12       1.0  0.81800  0.92190  0.72500  1.0000 0.5787093309
C   C13       1.0  0.20460  0.49660  0.34170  1.0000 -0.0167454471
C   C14       1.0  0.49660  0.34170  0.20460  1.0000 -0.0167454471
C   C15       1.0  0.34170  0.20460  0.49660  1.0000 -0.0167454471
C   C16       1.0  0.29540  0.15830  0.00340  1.0000 -0.0167454471
C   C17       1.0  0.00340  0.29540  0.15830  1.0000 -0.0167454471
C   C18       1.0  0.15830  0.00340  0.29540  1.0000 -0.0167454471
C   C19       1.0  0.79540  0.50340  0.65830  1.0000 -0.0167454471
C   C20       1.0  0.50340  0.65830  0.79540  1.0000 -0.0167454471
C   C21       1.0  0.65830  0.79540  0.50340  1.0000 -0.0167454471
C   C22       1.0  0.70460  0.84170  0.99660  1.0000 -0.0167454471
C   C23       1.0  0.99660  0.70460  0.84170  1.0000 -0.0167454471
C   C24       1.0  0.84170  0.99660  0.70460  1.0000 -0.0167454471
C   C25       1.0  0.21100  0.55030  0.30170  1.0000 -0.1068706456
C   C26       1.0  0.55030  0.30170  0.21100  1.0000 -0.1068706456
C   C27       1.0  0.30170  0.21100  0.55030  1.0000 -0.1068706456
C   C28       1.0  0.28900  0.19830  0.94970  1.0000 -0.1068706456
C   C29       1.0  0.94970  0.28900  0.19830  1.0000 -0.1068706456
C   C30       1.0  0.19830  0.94970  0.28900  1.0000 -0.1068706456
C   C31       1.0  0.78900  0.44970  0.69830  1.0000 -0.1068706456
C   C32       1.0  0.44970  0.69830  0.78900  1.0000 -0.1068706456
C   C33       1.0  0.69830  0.78900  0.44970  1.0000 -0.1068706456
C   C34       1.0  0.71100  0.80170  0.05030  1.0000 -0.1068706456
C   C35       1.0  0.05030  0.71100  0.80170  1.0000 -0.1068706456
C   C36       1.0  0.80170  0.05030  0.71100  1.0000 -0.1068706456
C   C37       1.0  0.18540  0.61560  0.32140  1.0000 -0.1230803569
C   C38       1.0  0.61560  0.32140  0.18540  1.0000 -0.1230803569
C   C39       1.0  0.32140  0.18540  0.61560  1.0000 -0.1230803569
C   C40       1.0  0.31460  0.17860  0.88440  1.0000 -0.1230803569
C   C41       1.0  0.88440  0.31460  0.17860  1.0000 -0.1230803569
C   C42       1.0  0.17860  0.88440  0.31460  1.0000 -0.1230803569
C   C43       1.0  0.81460  0.38440  0.67860  1.0000 -0.1230803569
C   C44       1.0  0.38440  0.67860  0.81460  1.0000 -0.1230803569
C   C45       1.0  0.67860  0.81460  0.38440  1.0000 -0.1230803569
C   C46       1.0  0.68540  0.82140  0.11560  1.0000 -0.1230803569
C   C47       1.0  0.11560  0.68540  0.82140  1.0000 -0.1230803569
C   C48       1.0  0.82140  0.11560  0.68540  1.0000 -0.1230803569
C   C49       1.0  0.15370  0.62790  0.38100  1.0000 0.0445427616
C   C50       1.0  0.62790  0.38100  0.15370  1.0000 0.0445427616
C   C51       1.0  0.38100  0.15370  0.62790  1.0000 0.0445427616
C   C52       1.0  0.34630  0.11900  0.87210  1.0000 0.0445427616
C   C53       1.0  0.87210  0.34630  0.11900  1.0000 0.0445427616
C   C54       1.0  0.11900  0.87210  0.34630  1.0000 0.0445427616
C   C55       1.0  0.84630  0.37210  0.61900  1.0000 0.0445427616
C   C56       1.0  0.37210  0.61900  0.84630  1.0000 0.0445427616
C   C57       1.0  0.61900  0.84630  0.37210  1.0000 0.0445427616
C   C58       1.0  0.65370  0.88100  0.12790  1.0000 0.0445427616
C   C59       1.0  0.12790  0.65370  0.88100  1.0000 0.0445427616
C   C60       1.0  0.88100  0.12790  0.65370  1.0000 0.0445427616
C   C61       1.0  0.15380  0.57700  0.42580  1.0000 -0.1546689802
C   C62       1.0  0.57700  0.42580  0.15380  1.0000 -0.1546689802
C   C63       1.0  0.42580  0.15380  0.57700  1.0000 -0.1546689802
C   C64       1.0  0.34620  0.07420  0.92300  1.0000 -0.1546689802
C   C65       1.0  0.92300  0.34620  0.07420  1.0000 -0.1546689802
C   C66       1.0  0.07420  0.92300  0.34620  1.0000 -0.1546689802
C   C67       1.0  0.84620  0.42300  0.57420  1.0000 -0.1546689802
C   C68       1.0  0.42300  0.57420  0.84620  1.0000 -0.1546689802
C   C69       1.0  0.57420  0.84620  0.42300  1.0000 -0.1546689802
C   C70       1.0  0.65380  0.92580  0.07700  1.0000 -0.1546689802
C   C71       1.0  0.07700  0.65380  0.92580  1.0000 -0.1546689802
C   C72       1.0  0.92580  0.07700  0.65380  1.0000 -0.1546689802
C   C73       1.0  0.17770  0.51170  0.40570  1.0000 -0.1068706456
C   C74       1.0  0.51170  0.40570  0.17770  1.0000 -0.1068706456
C   C75       1.0  0.40570  0.17770  0.51170  1.0000 -0.1068706456
C   C76       1.0  0.32230  0.09430  0.98830  1.0000 -0.1068706456
C   C77       1.0  0.98830  0.32230  0.09430  1.0000 -0.1068706456
C   C78       1.0  0.09430  0.98830  0.32230  1.0000 -0.1068706456
C   C79       1.0  0.82230  0.48830  0.59430  1.0000 -0.1068706456
C   C80       1.0  0.48830  0.59430  0.82230  1.0000 -0.1068706456
C   C81       1.0  0.59430  0.82230  0.48830  1.0000 -0.1068706456
C   C82       1.0  0.67770  0.90570  0.01170  1.0000 -0.1068706456
C   C83       1.0  0.01170  0.67770  0.90570  1.0000 -0.1068706456
C   C84       1.0  0.90570  0.01170  0.67770  1.0000 -0.1068706456
C   C85       1.0  0.11900  0.69230  0.39810  1.0000 0.2245661658
C   C86       1.0  0.69230  0.39810  0.11900  1.0000 0.2245661658
C   C87       1.0  0.39810  0.11900  0.69230  1.0000 0.2245661658
C   C88       1.0  0.38100  0.10190  0.80770  1.0000 0.2245661658
C   C89       1.0  0.80770  0.38100  0.10190  1.0000 0.2245661658
C   C90       1.0  0.10190  0.80770  0.38100  1.0000 0.2245661658
C   C91       1.0  0.88100  0.30770  0.60190  1.0000 0.2245661658
C   C92       1.0  0.30770  0.60190  0.88100  1.0000 0.2245661658
C   C93       1.0  0.60190  0.88100  0.30770  1.0000 0.2245661658
C   C94       1.0  0.61900  0.89810  0.19230  1.0000 0.2245661658
C   C95       1.0  0.19230  0.61900  0.89810  1.0000 0.2245661658
C   C96       1.0  0.89810  0.19230  0.61900  1.0000 0.2245661658
C   C97       1.0  0.07010  0.69060  0.44540  1.0000 -0.2504830493
C   C98       1.0  0.69060  0.44540  0.07010  1.0000 -0.2504830493
C   C99       1.0  0.44540  0.07010  0.69060  1.0000 -0.2504830493
C   C100      1.0  0.42990  0.05460  0.80940  1.0000 -0.2504830493
C   C101      1.0  0.80940  0.42990  0.05460  1.0000 -0.2504830493
C   C102      1.0  0.05460  0.80940  0.42990  1.0000 -0.2504830493
C   C103      1.0  0.92990  0.30940  0.55460  1.0000 -0.2504830493
C   C104      1.0  0.30940  0.55460  0.92990  1.0000 -0.2504830493
C   C105      1.0  0.55460  0.92990  0.30940  1.0000 -0.2504830493
C   C106      1.0  0.57010  0.94540  0.19060  1.0000 -0.2504830493
C   C107      1.0  0.19060  0.57010  0.94540  1.0000 -0.2504830493
C   C108      1.0  0.94540  0.19060  0.57010  1.0000 -0.2504830493
C   C109      1.0  0.03805  0.75000  0.46195  1.0000 0.1096697201
C   C110      1.0  0.75000  0.46195  0.03805  1.0000 0.1096697201
C   C111      1.0  0.46195  0.03805  0.75000  1.0000 0.1096697201
C   C112      1.0  0.96195  0.25000  0.53805  1.0000 0.1096697201
C   C113      1.0  0.25000  0.53805  0.96195  1.0000 0.1096697201
C   C114      1.0  0.53805  0.96195  0.25000  1.0000 0.1096697201
C   C115      1.0  0.98645  0.75000  0.51355  1.0000 0.1186777286
C   C116      1.0  0.75000  0.51355  0.98645  1.0000 0.1186777286
C   C117      1.0  0.51355  0.98645  0.75000  1.0000 0.1186777286
C   C118      1.0  0.01355  0.25000  0.48645  1.0000 0.1186777286
C   C119      1.0  0.25000  0.48645  0.01355  1.0000 0.1186777286
C   C120      1.0  0.48645  0.01355  0.25000  1.0000 0.1186777286
C   C121      1.0  0.94170  0.80010  0.51830  1.0000 -0.1983793213
C   C122      1.0  0.80010  0.51830  0.94170  1.0000 -0.1983793213
C   C123      1.0  0.51830  0.94170  0.80010  1.0000 -0.1983793213
C   C124      1.0  0.55830  0.98170  0.69990  1.0000 -0.1983793213
C   C125      1.0  0.69990  0.55830  0.98170  1.0000 -0.1983793213
C   C126      1.0  0.98170  0.69990  0.55830  1.0000 -0.1983793213
C   C127      1.0  0.05830  0.19990  0.48170  1.0000 -0.1983793213
C   C128      1.0  0.19990  0.48170  0.05830  1.0000 -0.1983793213
C   C129      1.0  0.48170  0.05830  0.19990  1.0000 -0.1983793213
C   C130      1.0  0.44170  0.01830  0.30010  1.0000 -0.1983793213
C   C131      1.0  0.30010  0.44170  0.01830  1.0000 -0.1983793213
C   C132      1.0  0.01830  0.30010  0.44170  1.0000 -0.1983793213
C   C133      1.0  0.89500  0.79830  0.56650  1.0000 0.1016254938
C   C134      1.0  0.79830  0.56650  0.89500  1.0000 0.1016254938
C   C135      1.0  0.56650  0.89500  0.79830  1.0000 0.1016254938
C   C136      1.0  0.60500  0.93350  0.70170  1.0000 0.1016254938
C   C137      1.0  0.70170  0.60500  0.93350  1.0000 0.1016254938
C   C138      1.0  0.93350  0.70170  0.60500  1.0000 0.1016254938
C   C139      1.0  0.10500  0.20170  0.43350  1.0000 0.1016254938
C   C140      1.0  0.20170  0.43350  0.10500  1.0000 0.1016254938
C   C141      1.0  0.43350  0.10500  0.20170  1.0000 0.1016254938
C   C142      1.0  0.39500  0.06650  0.29830  1.0000 0.1016254938
C   C143      1.0  0.29830  0.39500  0.06650  1.0000 0.1016254938
C   C144      1.0  0.06650  0.29830  0.39500  1.0000 0.1016254938
N   N1        1.0  0.89055  0.75000  0.60945  1.0000 -0.182258644
N   N2        1.0  0.75000  0.60945  0.89055  1.0000 -0.182258644
N   N3        1.0  0.60945  0.89055  0.75000  1.0000 -0.182258644
N   N4        1.0  0.10945  0.25000  0.39055  1.0000 -0.182258644
N   N5        1.0  0.25000  0.39055  0.10945  1.0000 -0.182258644
N   N6        1.0  0.39055  0.10945  0.25000  1.0000 -0.182258644
N   N7        1.0  0.13435  0.75000  0.36565  1.0000 -0.3412469709
N   N8        1.0  0.75000  0.36565  0.13435  1.0000 -0.3412469709
N   N9        1.0  0.36565  0.13435  0.75000  1.0000 -0.3412469709
N   N10       1.0  0.86565  0.25000  0.63435  1.0000 -0.3412469709
N   N11       1.0  0.25000  0.63435  0.86565  1.0000 -0.3412469709
N   N12       1.0  0.63435  0.86565  0.25000  1.0000 -0.3412469709
O   O1        1.0  0.75000  0.75000  0.75000  1.0000 -0.6975627028
O   O2        1.0  0.25000  0.25000  0.25000  1.0000 -0.6975627028
O   O3        1.0  0.26270  0.41717  0.26913  1.0000 -0.5528026902
O   O4        1.0  0.41717  0.26913  0.26270  1.0000 -0.5528026902
O   O5        1.0  0.26913  0.26270  0.41717  1.0000 -0.5528026902
O   O6        1.0  0.23730  0.23087  0.08283  1.0000 -0.5528026902
O   O7        1.0  0.08283  0.23730  0.23087  1.0000 -0.5528026902
O   O8        1.0  0.23087  0.08283  0.23730  1.0000 -0.5528026902
O   O9        1.0  0.73730  0.58283  0.73087  1.0000 -0.5528026902
O   O10       1.0  0.58283  0.73087  0.73730  1.0000 -0.5528026902
O   O11       1.0  0.73087  0.73730  0.58283  1.0000 -0.5528026902
O   O12       1.0  0.76270  0.76913  0.91717  1.0000 -0.5528026902
O   O13       1.0  0.91717  0.76270  0.76913  1.0000 -0.5528026902
O   O14       1.0  0.76913  0.91717  0.76270  1.0000 -0.5528026902
O   O15       1.0  0.20201  0.36991  0.34738  1.0000 -0.5528026902
O   O16       1.0  0.36991  0.34738  0.20201  1.0000 -0.5528026902
O   O17       1.0  0.34738  0.20201  0.36991  1.0000 -0.5528026902
O   O18       1.0  0.29799  0.15262  0.13009  1.0000 -0.5528026902
O   O19       1.0  0.13009  0.29799  0.15262  1.0000 -0.5528026902
O   O20       1.0  0.15262  0.13009  0.29799  1.0000 -0.5528026902
O   O21       1.0  0.79799  0.63009  0.65262  1.0000 -0.5528026902
O   O22       1.0  0.63009  0.65262  0.79799  1.0000 -0.5528026902
O   O23       1.0  0.65262  0.79799  0.63009  1.0000 -0.5528026902
O   O24       1.0  0.70201  0.84738  0.86991  1.0000 -0.5528026902
O   O25       1.0  0.86991  0.70201  0.84738  1.0000 -0.5528026902
O   O26       1.0  0.84738  0.86991  0.70201  1.0000 -0.5528026902
