# DDEC6 charges by PACMAN v1.1 (https://github.com/mtap-research/PACMAN-charge/)
data_2013[Cu][pts]3[ASR]6
_chemical_formula_sum              "Cu4 H30 C48 N2 O16"
_cell_length_a       11.4269
_cell_length_b       11.4269
_cell_length_c       18.8731
_cell_angle_alpha    85.2416
_cell_angle_beta     94.7584
_cell_angle_gamma    83.2781

_symmetry_space_group_name_H-M    "P 1"
_symmetry_Int_Tables_number       1

loop_
  _symmetry_equiv_pos_as_xyz
  'x, y, z'

loop_
  _atom_site_type_symbol
  _atom_site_label
  _atom_site_symmetry_multiplicity
  _atom_site_fract_x
  _atom_site_fract_y
  _atom_site_fract_z
  _atom_site_occupancy
  _atom_site_charge
Cu  Cu1       1.0  0.09550  0.02820  0.47205  1.0000 0.8579395395
Cu  Cu2       1.0  0.02820  0.09550  0.02795  1.0000 0.8579395395
Cu  Cu3       1.0  0.90450  0.97180  0.52795  1.0000 0.8579395395
Cu  Cu4       1.0  0.97180  0.90450  0.97205  1.0000 0.8579395395
H   H1        1.0  0.21500  0.22940  0.64170  1.0000 0.1300601568
H   H2        1.0  0.22940  0.21500  0.85830  1.0000 0.1300601568
H   H3        1.0  0.78500  0.77060  0.35830  1.0000 0.1300601568
H   H4        1.0  0.77060  0.78500  0.14170  1.0000 0.1300601568
H   H5        1.0  0.01640  0.01640  0.75000  1.0000 0.1459289771
H   H6        1.0  0.98360  0.98360  0.25000  1.0000 0.1459289771
H   H7        1.0  0.32420  0.69420  0.53070  1.0000 0.1300601568
H   H8        1.0  0.69420  0.32420  0.96930  1.0000 0.1300601568
H   H9        1.0  0.67580  0.30580  0.46930  1.0000 0.1300601568
H   H10       1.0  0.30580  0.67580  0.03070  1.0000 0.1300601568
H   H11       1.0  0.42560  0.51560  0.58590  1.0000 0.1194835995
H   H12       1.0  0.51560  0.42560  0.91410  1.0000 0.1194835995
H   H13       1.0  0.57440  0.48440  0.41410  1.0000 0.1194835995
H   H14       1.0  0.48440  0.57440  0.08590  1.0000 0.1194835995
H   H15       1.0  0.14990  0.47010  0.70170  1.0000 0.1194835995
H   H16       1.0  0.47010  0.14990  0.79830  1.0000 0.1194835995
H   H17       1.0  0.85010  0.52990  0.29830  1.0000 0.1194835995
H   H18       1.0  0.52990  0.85010  0.20170  1.0000 0.1194835995
H   H19       1.0  0.44930  0.37490  0.69750  1.0000 0.1194835995
H   H20       1.0  0.37490  0.44930  0.80250  1.0000 0.1194835995
H   H21       1.0  0.55070  0.62510  0.30250  1.0000 0.1194835995
H   H22       1.0  0.62510  0.55070  0.19750  1.0000 0.1194835995
H   H23       1.0  0.36580  0.30060  0.65150  1.0000 0.1194835995
H   H24       1.0  0.30060  0.36580  0.84850  1.0000 0.1194835995
H   H25       1.0  0.63420  0.69940  0.34850  1.0000 0.1194835995
H   H26       1.0  0.69940  0.63420  0.15150  1.0000 0.1194835995
H   H27       1.0  0.04690  0.64590  0.64560  1.0000 0.1300601568
H   H28       1.0  0.64590  0.04690  0.85440  1.0000 0.1300601568
H   H29       1.0  0.95310  0.35410  0.35440  1.0000 0.1300601568
H   H30       1.0  0.35410  0.95310  0.14560  1.0000 0.1300601568
C   C1        1.0  0.19068  0.19938  0.68580  1.0000 -0.2073010075
C   C2        1.0  0.19938  0.19068  0.81420  1.0000 -0.2073010075
C   C3        1.0  0.80932  0.80062  0.31420  1.0000 -0.2073010075
C   C4        1.0  0.80062  0.80932  0.18580  1.0000 -0.2073010075
C   C5        1.0  0.23784  0.23784  0.75000  1.0000 0.1795565617
C   C6        1.0  0.76216  0.76216  0.25000  1.0000 0.1795565617
C   C7        1.0  0.10947  0.11851  0.68600  1.0000 0.0007027806
C   C8        1.0  0.11851  0.10947  0.81400  1.0000 0.0007027806
C   C9        1.0  0.89053  0.88149  0.31400  1.0000 0.0007027806
C   C10       1.0  0.88149  0.89053  0.18600  1.0000 0.0007027806
C   C11       1.0  0.07203  0.07203  0.75000  1.0000 -0.1415706891
C   C12       1.0  0.92797  0.92797  0.25000  1.0000 -0.1415706891
C   C13       1.0  0.10959  0.80273  0.54992  1.0000 0.5771256518
C   C14       1.0  0.80273  0.10959  0.95008  1.0000 0.5771256518
C   C15       1.0  0.89041  0.19727  0.45008  1.0000 0.5771256518
C   C16       1.0  0.19727  0.89041  0.04992  1.0000 0.5771256518
C   C17       1.0  0.29779  0.47611  0.64991  1.0000 0.0926565845
C   C18       1.0  0.47611  0.29779  0.85009  1.0000 0.0926565845
C   C19       1.0  0.70221  0.52389  0.35009  1.0000 0.0926565845
C   C20       1.0  0.52389  0.70221  0.14991  1.0000 0.0926565845
C   C21       1.0  0.17607  0.68865  0.58353  1.0000 -0.0372045561
C   C22       1.0  0.68865  0.17607  0.91647  1.0000 -0.0372045561
C   C23       1.0  0.82393  0.31135  0.41647  1.0000 -0.0372045561
C   C24       1.0  0.31135  0.82393  0.08353  1.0000 -0.0372045561
C   C25       1.0  0.28852  0.64896  0.56552  1.0000 -0.0924844214
C   C26       1.0  0.64896  0.28852  0.93448  1.0000 -0.0924844214
C   C27       1.0  0.71148  0.35104  0.43448  1.0000 -0.0924844214
C   C28       1.0  0.35104  0.71148  0.06552  1.0000 -0.0924844214
C   C29       1.0  0.34904  0.54266  0.59854  1.0000 -0.1711288075
C   C30       1.0  0.54266  0.34904  0.90146  1.0000 -0.1711288075
C   C31       1.0  0.65096  0.45734  0.40146  1.0000 -0.1711288075
C   C32       1.0  0.45734  0.65096  0.09854  1.0000 -0.1711288075
C   C33       1.0  0.18559  0.51539  0.66696  1.0000 -0.1644563842
C   C34       1.0  0.51539  0.18559  0.83304  1.0000 -0.1644563842
C   C35       1.0  0.81441  0.48461  0.33304  1.0000 -0.1644563842
C   C36       1.0  0.48461  0.81441  0.16696  1.0000 -0.1644563842
C   C37       1.0  0.36605  0.36191  0.68569  1.0000 -0.182098316
C   C38       1.0  0.36191  0.36605  0.81431  1.0000 -0.182098316
C   C39       1.0  0.63395  0.63809  0.31431  1.0000 -0.182098316
C   C40       1.0  0.63809  0.63395  0.18569  1.0000 -0.182098316
C   C41       1.0  0.12446  0.62042  0.63386  1.0000 -0.0835907105
C   C42       1.0  0.62042  0.12446  0.86614  1.0000 -0.0835907105
C   C43       1.0  0.87554  0.37958  0.36614  1.0000 -0.0835907105
C   C44       1.0  0.37958  0.87554  0.13386  1.0000 -0.0835907105
C   C45       1.0  0.06366  0.07830  0.61677  1.0000 0.5771256518
C   C46       1.0  0.07830  0.06366  0.88323  1.0000 0.5771256518
C   C47       1.0  0.93634  0.92170  0.38323  1.0000 0.5771256518
C   C48       1.0  0.92170  0.93634  0.11677  1.0000 0.5771256518
N   N1        1.0  0.31860  0.31860  0.75000  1.0000 -0.0924844214
N   N2        1.0  0.68140  0.68140  0.25000  1.0000 -0.0924844214
O   O1        1.0  0.12765  0.08769  0.56597  1.0000 -0.5311201978
O   O2        1.0  0.08769  0.12765  0.93403  1.0000 -0.5311201978
O   O3        1.0  0.87235  0.91231  0.43403  1.0000 -0.5311201978
O   O4        1.0  0.91231  0.87235  0.06597  1.0000 -0.5311201978
O   O5        1.0  0.16683  0.86915  0.51260  1.0000 -0.5203262511
O   O6        1.0  0.86915  0.16683  0.98740  1.0000 -0.5203262511
O   O7        1.0  0.83317  0.13085  0.48740  1.0000 -0.5203262511
O   O8        1.0  0.13085  0.83317  0.01260  1.0000 -0.5203262511
O   O9        1.0  0.00316  0.82368  0.56135  1.0000 -0.5203262511
O   O10       1.0  0.82368  0.00316  0.93865  1.0000 -0.5203262511
O   O11       1.0  0.99684  0.17632  0.43865  1.0000 -0.5203262511
O   O12       1.0  0.17632  0.99684  0.06135  1.0000 -0.5203262511
O   O13       1.0  0.96631  0.03715  0.61469  1.0000 -0.5093433876
O   O14       1.0  0.03715  0.96631  0.88531  1.0000 -0.5093433876
O   O15       1.0  0.03369  0.96285  0.38531  1.0000 -0.5093433876
O   O16       1.0  0.96285  0.03369  0.11469  1.0000 -0.5093433876
