# DDEC6 charges by PACMAN v1.1 (https://github.com/mtap-research/PACMAN-charge/)
data_2013[Mg][dia]3[ASR]1
_chemical_formula_sum              "Mg2 H12 C16 S4 N8 O8"
_cell_length_a       12.5841
_cell_length_b       12.5841
_cell_length_c       12.5841
_cell_angle_alpha    95.241
_cell_angle_beta     95.241
_cell_angle_gamma    144.816

_symmetry_space_group_name_H-M    "P 1"
_symmetry_Int_Tables_number       1

loop_
  _symmetry_equiv_pos_as_xyz
  'x, y, z'

loop_
  _atom_site_type_symbol
  _atom_site_label
  _atom_site_symmetry_multiplicity
  _atom_site_fract_x
  _atom_site_fract_y
  _atom_site_fract_z
  _atom_site_occupancy
  _atom_site_charge
Mg  Mg1       1.0  0.50000  0.50000  0.00000  1.0000 1.2892492866
Mg  Mg2       1.0  0.75000  0.25000  0.50000  1.0000 1.2892492866
H   H1        1.0  0.44660  0.40420  0.75360  1.0000 0.2934084094
H   H2        1.0  0.65060  0.69300  0.24640  1.0000 0.2934084094
H   H3        1.0  0.30700  0.55340  0.95760  1.0000 0.2934084094
H   H4        1.0  0.59580  0.34940  0.04240  1.0000 0.2934084094
H   H5        1.0  0.80340  0.05700  0.45760  1.0000 0.2934084094
H   H6        1.0  0.59940  0.34580  0.54240  1.0000 0.2934084094
H   H7        1.0  0.94300  0.40060  0.74640  1.0000 0.2934084094
H   H8        1.0  0.65420  0.19660  0.25360  1.0000 0.2934084094
H   H9        1.0  0.72560  0.37500  0.85060  1.0000 0.172266171
H   H10       1.0  0.52440  0.87500  0.14940  1.0000 0.172266171
H   H11       1.0  0.12500  0.27440  0.64940  1.0000 0.172266171
H   H12       1.0  0.62500  0.47560  0.35060  1.0000 0.172266171
C   C1        1.0  0.50340  0.37500  0.62840  1.0000 0.3586453131
C   C2        1.0  0.74660  0.87500  0.37160  1.0000 0.3586453131
C   C3        1.0  0.12500  0.49660  0.87160  1.0000 0.3586453131
C   C4        1.0  0.62500  0.25340  0.12840  1.0000 0.3586453131
C   C5        1.0  0.57580  0.38880  0.82060  1.0000 0.5857226705
C   C6        1.0  0.56820  0.75520  0.17940  1.0000 0.5840274549
C   C7        1.0  0.24480  0.42420  0.81300  1.0000 0.5840274549
C   C8        1.0  0.61120  0.43180  0.18700  1.0000 0.5857226705
C   C9        1.0  0.67420  0.99480  0.31300  1.0000 0.5840274549
C   C10       1.0  0.68180  0.36120  0.68700  1.0000 0.5857226705
C   C11       1.0  0.00520  0.31820  0.67940  1.0000 0.5840274549
C   C12       1.0  0.63880  0.32580  0.32060  1.0000 0.5857226705
C   C13       1.0  0.67080  0.37500  0.79580  1.0000 -0.5080006266
C   C14       1.0  0.57920  0.87500  0.20420  1.0000 -0.5080006266
C   C15       1.0  0.12500  0.32920  0.70420  1.0000 -0.5080006266
C   C16       1.0  0.62500  0.42080  0.29580  1.0000 -0.5080006266
S   S1        1.0  0.40743  0.37500  0.53243  1.0000 -0.3575989598
S   S2        1.0  0.84257  0.87500  0.46757  1.0000 -0.3528166705
S   S3        1.0  0.12500  0.59257  0.96757  1.0000 -0.3528166705
S   S4        1.0  0.62500  0.15743  0.03243  1.0000 -0.3575989598
N   N1        1.0  0.50070  0.39120  0.73650  1.0000 -0.3768213423
N   N2        1.0  0.65470  0.76420  0.26350  1.0000 -0.3768213423
N   N3        1.0  0.23580  0.49930  0.89050  1.0000 -0.3768213423
N   N4        1.0  0.60880  0.34530  0.10950  1.0000 -0.3768213423
N   N5        1.0  0.74930  0.98580  0.39050  1.0000 -0.3768213423
N   N6        1.0  0.59530  0.35880  0.60950  1.0000 -0.3768213423
N   N7        1.0  0.01420  0.40470  0.76350  1.0000 -0.3768213423
N   N8        1.0  0.64120  0.25070  0.23650  1.0000 -0.3768213423
O   O1        1.0  0.55170  0.39760  0.91550  1.0000 -0.6576259726
O   O2        1.0  0.48210  0.63620  0.08450  1.0000 -0.6576259726
O   O3        1.0  0.36380  0.44830  0.84590  1.0000 -0.6576259726
O   O4        1.0  0.60240  0.51790  0.15410  1.0000 -0.6576259726
O   O5        1.0  0.69830  0.11380  0.34590  1.0000 -0.6576259726
O   O6        1.0  0.76790  0.35240  0.65410  1.0000 -0.6576259726
O   O7        1.0  0.88620  0.23210  0.58450  1.0000 -0.6576259726
O   O8        1.0  0.64760  0.30170  0.41550  1.0000 -0.6576259726
