# DDEC6 charges by PACMAN v1.1 (https://github.com/mtap-research/PACMAN-charge/)
data_2013[Ho][dia]3[ASR]1
_chemical_formula_sum              "Ho4 C16 O32"
_cell_length_a       9.6205
_cell_length_b       11.564
_cell_length_c       14.3224
_cell_angle_alpha    90
_cell_angle_beta     122.517
_cell_angle_gamma    90

_symmetry_space_group_name_H-M    "P 1"
_symmetry_Int_Tables_number       1

loop_
  _symmetry_equiv_pos_as_xyz
  'x, y, z'

loop_
  _atom_site_type_symbol
  _atom_site_label
  _atom_site_symmetry_multiplicity
  _atom_site_fract_x
  _atom_site_fract_y
  _atom_site_fract_z
  _atom_site_occupancy
  _atom_site_charge
Ho  Ho1       1.0  0.61783  0.48762  0.83285  1.0000 1.935792218
Ho  Ho2       1.0  0.38217  0.98762  0.66715  1.0000 1.935792218
Ho  Ho3       1.0  0.38217  0.51238  0.16715  1.0000 1.935792218
Ho  Ho4       1.0  0.61783  0.01238  0.33285  1.0000 1.935792218
C   C1        1.0  0.41800  0.25710  0.71700  1.0000 0.5701296314
C   C2        1.0  0.58200  0.75710  0.78300  1.0000 0.5786680285
C   C3        1.0  0.58200  0.74290  0.28300  1.0000 0.5786680285
C   C4        1.0  0.41800  0.24290  0.21700  1.0000 0.5786680285
C   C5        1.0  0.50560  0.56620  0.00140  1.0000 0.5329466118
C   C6        1.0  0.49440  0.06620  0.49860  1.0000 0.5329466118
C   C7        1.0  0.49440  0.43380  0.99860  1.0000 0.5329466118
C   C8        1.0  0.50560  0.93380  0.50140  1.0000 0.5329466118
C   C9        1.0  0.59560  0.21400  0.79230  1.0000 0.5701296314
C   C10       1.0  0.40440  0.71400  0.70770  1.0000 0.5701296314
C   C11       1.0  0.40440  0.78600  0.20770  1.0000 0.5701296314
C   C12       1.0  0.59560  0.28600  0.29230  1.0000 0.5701296314
C   C13       1.0  0.01500  0.50010  0.95230  1.0000 0.5515249326
C   C14       1.0  0.98500  0.00010  0.54770  1.0000 0.5515249326
C   C15       1.0  0.98500  0.49990  0.04770  1.0000 0.5515249326
C   C16       1.0  0.01500  0.99990  0.45230  1.0000 0.5515249326
O   O1        1.0  0.39620  0.36460  0.70750  1.0000 -0.5192794945
O   O2        1.0  0.60380  0.86460  0.79250  1.0000 -0.5192794945
O   O3        1.0  0.60380  0.63540  0.29250  1.0000 -0.5192794945
O   O4        1.0  0.39620  0.13540  0.20750  1.0000 -0.5192794945
O   O5        1.0  0.30630  0.18210  0.67070  1.0000 -0.5500234113
O   O6        1.0  0.69370  0.68210  0.82930  1.0000 -0.5500234113
O   O7        1.0  0.69370  0.81790  0.32930  1.0000 -0.5500234113
O   O8        1.0  0.30630  0.31790  0.17070  1.0000 -0.5500234113
O   O9        1.0  0.54030  0.61220  0.93730  1.0000 -0.5028034941
O   O10       1.0  0.45970  0.11220  0.56270  1.0000 -0.5028034941
O   O11       1.0  0.45970  0.38780  0.06270  1.0000 -0.5028034941
O   O12       1.0  0.54030  0.88780  0.43730  1.0000 -0.5028034941
O   O13       1.0  0.47930  0.61790  0.06710  1.0000 -0.5116782085
O   O14       1.0  0.52070  0.11790  0.43290  1.0000 -0.5116782085
O   O15       1.0  0.52070  0.38210  0.93290  1.0000 -0.5116782085
O   O16       1.0  0.47930  0.88210  0.56710  1.0000 -0.5116782085
O   O17       1.0  0.61680  0.10660  0.79550  1.0000 -0.5192794945
O   O18       1.0  0.38320  0.60660  0.70450  1.0000 -0.5192794945
O   O19       1.0  0.38320  0.89340  0.20450  1.0000 -0.5192794945
O   O20       1.0  0.61680  0.39340  0.29550  1.0000 -0.5192794945
O   O21       1.0  0.70550  0.28920  0.84370  1.0000 -0.532905017
O   O22       1.0  0.29450  0.78920  0.65630  1.0000 -0.532905017
O   O23       1.0  0.29450  0.71080  0.15630  1.0000 -0.532905017
O   O24       1.0  0.70550  0.21080  0.34370  1.0000 -0.532905017
O   O25       1.0  0.16000  0.51130  0.97790  1.0000 -0.5192794945
O   O26       1.0  0.84000  0.01130  0.52210  1.0000 -0.5192794945
O   O27       1.0  0.84000  0.48870  0.02210  1.0000 -0.5192794945
O   O28       1.0  0.16000  0.98870  0.47790  1.0000 -0.5192794945
O   O29       1.0  0.88910  0.49070  0.85650  1.0000 -0.5116782085
O   O30       1.0  0.11090  0.99070  0.64350  1.0000 -0.5116782085
O   O31       1.0  0.11090  0.50930  0.14350  1.0000 -0.5116782085
O   O32       1.0  0.88910  0.00930  0.35650  1.0000 -0.5116782085
