# DDEC6 charges by PACMAN v1.1 (https://github.com/mtap-research/PACMAN-charge/)
data_2013[Zn][pts]3[ASR]4
_chemical_formula_sum              "Zn8 H16 C80 O64"
_cell_length_a       17.0791
_cell_length_b       17.0791
_cell_length_c       17.0791
_cell_angle_alpha    112.658
_cell_angle_beta     112.658
_cell_angle_gamma    103.27

_symmetry_space_group_name_H-M    "P 1"
_symmetry_Int_Tables_number       1

loop_
  _symmetry_equiv_pos_as_xyz
  'x, y, z'

loop_
  _atom_site_type_symbol
  _atom_site_label
  _atom_site_symmetry_multiplicity
  _atom_site_fract_x
  _atom_site_fract_y
  _atom_site_fract_z
  _atom_site_occupancy
  _atom_site_charge
Zn  Zn1       1.0  0.47353  0.52647  0.50000  1.0000 0.9519251906
Zn  Zn2       1.0  0.02647  0.97353  0.50000  1.0000 0.9519251906
Zn  Zn3       1.0  0.27647  0.27647  0.55294  1.0000 0.9519251906
Zn  Zn4       1.0  0.72353  0.72353  0.44706  1.0000 0.9519251906
Zn  Zn5       1.0  0.27647  0.72353  0.00000  1.0000 0.9519251906
Zn  Zn6       1.0  0.72353  0.27647  0.00000  1.0000 0.9519251906
Zn  Zn7       1.0  0.47353  0.97353  0.94706  1.0000 0.9519251906
Zn  Zn8       1.0  0.02647  0.52647  0.05294  1.0000 0.9519251906
H   H1        1.0  0.76770  0.53890  0.77120  1.0000 0.1297783409
H   H2        1.0  0.76770  0.99650  0.22880  1.0000 0.1297783409
H   H3        1.0  0.28890  0.01770  0.27120  1.0000 0.1297783409
H   H4        1.0  0.74650  0.01770  0.72880  1.0000 0.1297783409
H   H5        1.0  0.98230  0.71110  0.72880  1.0000 0.1297783409
H   H6        1.0  0.98230  0.25350  0.27120  1.0000 0.1297783409
H   H7        1.0  0.00350  0.23230  0.77120  1.0000 0.1297783409
H   H8        1.0  0.46110  0.23230  0.22880  1.0000 0.1297783409
H   H9        1.0  0.55900  0.39320  0.83420  1.0000 0.1462316238
H   H10       1.0  0.55900  0.72480  0.16580  1.0000 0.1462316238
H   H11       1.0  0.14320  0.80900  0.33420  1.0000 0.1462316238
H   H12       1.0  0.47480  0.80900  0.66580  1.0000 0.1462316238
H   H13       1.0  0.19100  0.85680  0.66580  1.0000 0.1462316238
H   H14       1.0  0.19100  0.52520  0.33420  1.0000 0.1462316238
H   H15       1.0  0.27520  0.44100  0.83420  1.0000 0.1462316238
H   H16       1.0  0.60680  0.44100  0.16580  1.0000 0.1462316238
C   C1        1.0  0.60030  0.51060  0.64790  1.0000 0.5392673914
C   C2        1.0  0.86270  0.95240  0.35210  1.0000 0.5392673914
C   C3        1.0  0.26060  0.11270  0.41030  1.0000 0.5392673914
C   C4        1.0  0.70240  0.85030  0.58970  1.0000 0.5392673914
C   C5        1.0  0.88730  0.73940  0.58970  1.0000 0.5392673914
C   C6        1.0  0.14970  0.29760  0.41030  1.0000 0.5392673914
C   C7        1.0  0.04760  0.13730  0.64790  1.0000 0.5392673914
C   C8        1.0  0.48940  0.39970  0.35210  1.0000 0.5392673914
C   C9        1.0  0.14970  0.73940  0.85210  1.0000 0.5392673914
C   C10       1.0  0.88730  0.29760  0.14790  1.0000 0.5392673914
C   C11       1.0  0.48940  0.13730  0.08970  1.0000 0.5392673914
C   C12       1.0  0.04760  0.39970  0.91030  1.0000 0.5392673914
C   C13       1.0  0.86270  0.51060  0.91030  1.0000 0.5392673914
C   C14       1.0  0.60030  0.95240  0.08970  1.0000 0.5392673914
C   C15       1.0  0.70240  0.11270  0.85210  1.0000 0.5392673914
C   C16       1.0  0.26060  0.85030  0.14790  1.0000 0.5392673914
C   C17       1.0  0.72520  0.50880  0.78360  1.0000 -0.0854919008
C   C18       1.0  0.72520  0.94160  0.21640  1.0000 -0.0854919008
C   C19       1.0  0.25880  0.97520  0.28360  1.0000 -0.0854919008
C   C20       1.0  0.69160  0.97520  0.71640  1.0000 -0.0849470771
C   C21       1.0  0.02480  0.74120  0.71640  1.0000 -0.0849470771
C   C22       1.0  0.02480  0.30840  0.28360  1.0000 -0.0854919008
C   C23       1.0  0.05840  0.27480  0.78360  1.0000 -0.0849470771
C   C24       1.0  0.49120  0.27480  0.21640  1.0000 -0.0849470771
C   C25       1.0  0.63134  0.48769  0.72825  1.0000 -0.0331874095
C   C26       1.0  0.75944  0.90309  0.27175  1.0000 -0.0331874095
C   C27       1.0  0.23769  0.00944  0.35635  1.0000 -0.0331874095
C   C28       1.0  0.65309  0.88134  0.64365  1.0000 -0.0331874095
C   C29       1.0  0.99056  0.76231  0.64365  1.0000 -0.0331874095
C   C30       1.0  0.11866  0.34691  0.35635  1.0000 -0.0331874095
C   C31       1.0  0.09691  0.24056  0.72825  1.0000 -0.0331874095
C   C32       1.0  0.51231  0.36866  0.27175  1.0000 -0.0331874095
C   C33       1.0  0.11866  0.76231  0.77175  1.0000 -0.0331874095
C   C34       1.0  0.99056  0.34691  0.22825  1.0000 -0.0331874095
C   C35       1.0  0.51231  0.24056  0.14365  1.0000 -0.0331874095
C   C36       1.0  0.09691  0.36866  0.85635  1.0000 -0.0331874095
C   C37       1.0  0.75944  0.48769  0.85635  1.0000 -0.0331874095
C   C38       1.0  0.63134  0.90309  0.14365  1.0000 -0.0331874095
C   C39       1.0  0.65309  0.00944  0.77175  1.0000 -0.0331874095
C   C40       1.0  0.23769  0.88134  0.22825  1.0000 -0.0331874095
C   C41       1.0  0.60130  0.42250  0.82120  1.0000 -0.1248590849
C   C42       1.0  0.60130  0.78010  0.17880  1.0000 -0.1266867123
C   C43       1.0  0.17250  0.85130  0.32120  1.0000 -0.1248590849
C   C44       1.0  0.53010  0.85130  0.67880  1.0000 -0.1248590849
C   C45       1.0  0.14870  0.82750  0.67880  1.0000 -0.1248590849
C   C46       1.0  0.14870  0.46990  0.32120  1.0000 -0.1248590849
C   C47       1.0  0.21990  0.39870  0.82120  1.0000 -0.1248590849
C   C48       1.0  0.57750  0.39870  0.17880  1.0000 -0.1248590849
C   C49       1.0  0.56755  0.44348  0.74787  1.0000 0.0235852274
C   C50       1.0  0.69561  0.81968  0.25213  1.0000 0.0254315515
C   C51       1.0  0.19348  0.94561  0.37593  1.0000 0.0235852274
C   C52       1.0  0.56968  0.81755  0.62407  1.0000 0.0235852274
C   C53       1.0  0.05439  0.80652  0.62407  1.0000 0.0235852274
C   C54       1.0  0.18245  0.43032  0.37593  1.0000 0.0235852274
C   C55       1.0  0.18032  0.30439  0.74787  1.0000 0.0235852274
C   C56       1.0  0.55652  0.43245  0.25213  1.0000 0.0235852274
C   C57       1.0  0.18245  0.80652  0.75213  1.0000 0.0235852274
C   C58       1.0  0.05439  0.43032  0.24787  1.0000 0.0235852274
C   C59       1.0  0.55652  0.30439  0.12407  1.0000 0.0235852274
C   C60       1.0  0.18032  0.43245  0.87593  1.0000 0.0235852274
C   C61       1.0  0.69561  0.44348  0.87593  1.0000 0.0235852274
C   C62       1.0  0.56755  0.81968  0.12407  1.0000 0.0235852274
C   C63       1.0  0.56968  0.94561  0.75213  1.0000 0.0235852274
C   C64       1.0  0.19348  0.81755  0.24787  1.0000 0.0235852274
C   C65       1.0  0.46216  0.41347  0.69389  1.0000 0.5392673914
C   C66       1.0  0.71958  0.76827  0.30611  1.0000 0.5392673914
C   C67       1.0  0.16347  0.96958  0.45131  1.0000 0.5392673914
C   C68       1.0  0.51827  0.71216  0.54869  1.0000 0.5392673914
C   C69       1.0  0.03042  0.83653  0.54869  1.0000 0.5392673914
C   C70       1.0  0.28784  0.48173  0.45131  1.0000 0.5392673914
C   C71       1.0  0.23173  0.28042  0.69389  1.0000 0.5392673914
C   C72       1.0  0.58653  0.53784  0.30611  1.0000 0.5392673914
C   C73       1.0  0.28784  0.83653  0.80611  1.0000 0.5392673914
C   C74       1.0  0.03042  0.48173  0.19389  1.0000 0.5392673914
C   C75       1.0  0.58653  0.28042  0.04869  1.0000 0.5392673914
C   C76       1.0  0.23173  0.53784  0.95131  1.0000 0.5392673914
C   C77       1.0  0.71958  0.41347  0.95131  1.0000 0.5392673914
C   C78       1.0  0.46216  0.76827  0.04869  1.0000 0.5392673914
C   C79       1.0  0.51827  0.96958  0.80611  1.0000 0.5392673914
C   C80       1.0  0.16347  0.71216  0.19389  1.0000 0.5392673914
O   O1        1.0  0.51236  0.48605  0.59643  1.0000 -0.4198206715
O   O2        1.0  0.88962  0.91593  0.40357  1.0000 -0.4198206715
O   O3        1.0  0.23605  0.13962  0.47369  1.0000 -0.4198206715
O   O4        1.0  0.66593  0.76236  0.52631  1.0000 -0.4198206715
O   O5        1.0  0.86038  0.76395  0.52631  1.0000 -0.4198206715
O   O6        1.0  0.23764  0.33407  0.47369  1.0000 -0.4198206715
O   O7        1.0  0.08407  0.11038  0.59643  1.0000 -0.4198206715
O   O8        1.0  0.51395  0.48764  0.40357  1.0000 -0.4198206715
O   O9        1.0  0.23764  0.76395  0.90357  1.0000 -0.4198206715
O   O10       1.0  0.86038  0.33407  0.09643  1.0000 -0.4198206715
O   O11       1.0  0.51395  0.11038  0.02631  1.0000 -0.4198206715
O   O12       1.0  0.08407  0.48764  0.97369  1.0000 -0.4198206715
O   O13       1.0  0.88962  0.48605  0.97369  1.0000 -0.4198206715
O   O14       1.0  0.51236  0.91593  0.02631  1.0000 -0.4198206715
O   O15       1.0  0.66593  0.13962  0.90357  1.0000 -0.4198206715
O   O16       1.0  0.23605  0.76236  0.09643  1.0000 -0.4198206715
O   O17       1.0  0.66022  0.55326  0.63616  1.0000 -0.3613449778
O   O18       1.0  0.91710  0.02406  0.36384  1.0000 -0.3613449778
O   O19       1.0  0.30326  0.16710  0.39304  1.0000 -0.3613449778
O   O20       1.0  0.77406  0.91022  0.60696  1.0000 -0.3613449778
O   O21       1.0  0.83290  0.69674  0.60696  1.0000 -0.3613449778
O   O22       1.0  0.08978  0.22594  0.39304  1.0000 -0.3613449778
O   O23       1.0  0.97594  0.08290  0.63616  1.0000 -0.3613449778
O   O24       1.0  0.44674  0.33978  0.36384  1.0000 -0.3613449778
O   O25       1.0  0.08978  0.69674  0.86384  1.0000 -0.3613449778
O   O26       1.0  0.83290  0.22594  0.13616  1.0000 -0.3613449778
O   O27       1.0  0.44674  0.08290  0.10696  1.0000 -0.3613449778
O   O28       1.0  0.97594  0.33978  0.89304  1.0000 -0.3613449778
O   O29       1.0  0.91710  0.55326  0.89304  1.0000 -0.3613449778
O   O30       1.0  0.66022  0.02406  0.10696  1.0000 -0.3613449778
O   O31       1.0  0.77406  0.16710  0.86384  1.0000 -0.3613449778
O   O32       1.0  0.30326  0.91022  0.13616  1.0000 -0.3613449778
O   O33       1.0  0.41309  0.33179  0.61454  1.0000 -0.4283966176
O   O34       1.0  0.71725  0.79855  0.38546  1.0000 -0.4283966176
O   O35       1.0  0.08179  0.96725  0.41870  1.0000 -0.4283966176
O   O36       1.0  0.54855  0.66309  0.58130  1.0000 -0.4283966176
O   O37       1.0  0.03275  0.91821  0.58130  1.0000 -0.4283966176
O   O38       1.0  0.33691  0.45145  0.41870  1.0000 -0.4283966176
O   O39       1.0  0.20145  0.28275  0.61454  1.0000 -0.4283966176
O   O40       1.0  0.66821  0.58691  0.38546  1.0000 -0.4283966176
O   O41       1.0  0.33691  0.91821  0.88546  1.0000 -0.4283966176
O   O42       1.0  0.03275  0.45145  0.11454  1.0000 -0.4283966176
O   O43       1.0  0.66821  0.28275  0.08130  1.0000 -0.4283966176
O   O44       1.0  0.20145  0.58691  0.91870  1.0000 -0.4283966176
O   O45       1.0  0.71725  0.33179  0.91870  1.0000 -0.4283966176
O   O46       1.0  0.41309  0.79855  0.08130  1.0000 -0.4283966176
O   O47       1.0  0.54855  0.96725  0.88546  1.0000 -0.4283966176
O   O48       1.0  0.08179  0.66309  0.11454  1.0000 -0.4283966176
O   O49       1.0  0.42986  0.46187  0.73141  1.0000 -0.368299793
O   O50       1.0  0.73046  0.69845  0.26859  1.0000 -0.368299793
O   O51       1.0  0.21187  0.98046  0.53201  1.0000 -0.368299793
O   O52       1.0  0.44845  0.67986  0.46799  1.0000 -0.368299793
O   O53       1.0  0.01954  0.78813  0.46799  1.0000 -0.368299793
O   O54       1.0  0.32014  0.55155  0.53201  1.0000 -0.368299793
O   O55       1.0  0.30155  0.26954  0.73141  1.0000 -0.368299793
O   O56       1.0  0.53813  0.57014  0.26859  1.0000 -0.368299793
O   O57       1.0  0.32014  0.78813  0.76859  1.0000 -0.368299793
O   O58       1.0  0.01954  0.55155  0.23141  1.0000 -0.368299793
O   O59       1.0  0.53813  0.26954  0.96799  1.0000 -0.368299793
O   O60       1.0  0.30155  0.57014  0.03201  1.0000 -0.368299793
O   O61       1.0  0.73046  0.46187  0.03201  1.0000 -0.368299793
O   O62       1.0  0.42986  0.69845  0.96799  1.0000 -0.368299793
O   O63       1.0  0.44845  0.98046  0.76859  1.0000 -0.368299793
O   O64       1.0  0.21187  0.67986  0.23141  1.0000 -0.368299793
