# DDEC6 charges by PACMAN v1.1 (https://github.com/mtap-research/PACMAN-charge/)
data_2013[Cd][nan]3[ASR]3
_chemical_formula_sum              "Cd4 H112 C104 N24 O16"
_cell_length_a       5.2133
_cell_length_b       18.414
_cell_length_c       28.517
_cell_angle_alpha    90
_cell_angle_beta     90
_cell_angle_gamma    90

_symmetry_space_group_name_H-M    "P 1"
_symmetry_Int_Tables_number       1

loop_
  _symmetry_equiv_pos_as_xyz
  'x, y, z'

loop_
  _atom_site_type_symbol
  _atom_site_label
  _atom_site_symmetry_multiplicity
  _atom_site_fract_x
  _atom_site_fract_y
  _atom_site_fract_z
  _atom_site_occupancy
  _atom_site_charge
Cd  Cd1       1.0  0.89788  0.32975  0.34009  1.0000 0.9267457321
Cd  Cd2       1.0  0.39788  0.67025  0.65991  1.0000 0.9267457321
Cd  Cd3       1.0  0.89788  0.82975  0.15991  1.0000 0.9267457321
Cd  Cd4       1.0  0.39788  0.17025  0.84009  1.0000 0.9267457321
H   H1        1.0  0.69310  0.67090  0.18190  1.0000 0.137817003
H   H2        1.0  0.19310  0.32910  0.81810  1.0000 0.137817003
H   H3        1.0  0.69310  0.17090  0.31810  1.0000 0.137817003
H   H4        1.0  0.19310  0.82910  0.68190  1.0000 0.137817003
H   H5        1.0  0.43650  0.62850  0.17310  1.0000 0.137817003
H   H6        1.0  0.93650  0.37150  0.82690  1.0000 0.137817003
H   H7        1.0  0.43650  0.12850  0.32690  1.0000 0.137817003
H   H8        1.0  0.93650  0.87150  0.67310  1.0000 0.137817003
H   H9        1.0  0.84460  0.69030  0.26350  1.0000 0.1211691379
H   H10       1.0  0.34460  0.30970  0.73650  1.0000 0.1211691379
H   H11       1.0  0.84460  0.19030  0.23650  1.0000 0.1211691379
H   H12       1.0  0.34460  0.80970  0.76350  1.0000 0.1211691379
H   H13       1.0  0.85470  0.64730  0.33930  1.0000 0.1211691379
H   H14       1.0  0.35470  0.35270  0.66070  1.0000 0.1211691379
H   H15       1.0  0.85470  0.14730  0.16070  1.0000 0.1211691379
H   H16       1.0  0.35470  0.85270  0.83930  1.0000 0.1211691379
H   H17       1.0  0.21160  0.53650  0.31710  1.0000 0.1211691379
H   H18       1.0  0.71160  0.46350  0.68290  1.0000 0.1211691379
H   H19       1.0  0.21160  0.03650  0.18290  1.0000 0.1211691379
H   H20       1.0  0.71160  0.96350  0.81710  1.0000 0.1211691379
H   H21       1.0  0.19300  0.58020  0.24160  1.0000 0.1116337523
H   H22       1.0  0.69300  0.41980  0.75840  1.0000 0.1116337523
H   H23       1.0  0.19300  0.08020  0.25840  1.0000 0.1116337523
H   H24       1.0  0.69300  0.91980  0.74160  1.0000 0.1116337523
H   H25       1.0  0.38500  0.54300  0.39630  1.0000 0.1503260586
H   H26       1.0  0.88500  0.45700  0.60370  1.0000 0.1503260586
H   H27       1.0  0.38500  0.04300  0.10370  1.0000 0.1503260586
H   H28       1.0  0.88500  0.95700  0.89630  1.0000 0.1503260586
H   H29       1.0  0.62310  0.59300  0.40560  1.0000 0.1318311602
H   H30       1.0  0.12310  0.40700  0.59440  1.0000 0.1318311602
H   H31       1.0  0.62310  0.09300  0.09440  1.0000 0.1318311602
H   H32       1.0  0.12310  0.90700  0.90560  1.0000 0.1318311602
H   H33       1.0  0.65550  0.45710  0.26810  1.0000 0.1211691379
H   H34       1.0  0.15550  0.54290  0.73190  1.0000 0.1211691379
H   H35       1.0  0.65550  0.95710  0.23190  1.0000 0.1211691379
H   H36       1.0  0.15550  0.04290  0.76810  1.0000 0.1211691379
H   H37       1.0  0.28450  0.35710  0.24340  1.0000 0.1318311602
H   H38       1.0  0.78450  0.64290  0.75660  1.0000 0.1318311602
H   H39       1.0  0.28450  0.85710  0.25660  1.0000 0.1318311602
H   H40       1.0  0.78450  0.14290  0.74340  1.0000 0.1318311602
H   H41       1.0  0.42460  0.43150  0.16640  1.0000 0.1211691379
H   H42       1.0  0.92460  0.56850  0.83360  1.0000 0.1211691379
H   H43       1.0  0.42460  0.93150  0.33360  1.0000 0.1211691379
H   H44       1.0  0.92460  0.06850  0.66640  1.0000 0.1211691379
H   H45       1.0  0.23820  0.49520  0.15320  1.0000 0.1211691379
H   H46       1.0  0.73820  0.50480  0.84680  1.0000 0.1211691379
H   H47       1.0  0.23820  0.99520  0.34680  1.0000 0.1211691379
H   H48       1.0  0.73820  0.00480  0.65320  1.0000 0.1211691379
H   H49       1.0  0.54430  0.26350  0.12650  1.0000 0.1318311602
H   H50       1.0  0.04430  0.73650  0.87350  1.0000 0.1318311602
H   H51       1.0  0.54430  0.76350  0.37350  1.0000 0.1318311602
H   H52       1.0  0.04430  0.23650  0.62650  1.0000 0.1318311602
H   H53       1.0  0.35390  0.26720  0.16900  1.0000 0.137817003
H   H54       1.0  0.85390  0.73280  0.83100  1.0000 0.137817003
H   H55       1.0  0.35390  0.76720  0.33100  1.0000 0.137817003
H   H56       1.0  0.85390  0.23280  0.66900  1.0000 0.137817003
H   H57       1.0  0.53520  0.33300  0.15820  1.0000 0.1211691379
H   H58       1.0  0.03520  0.66700  0.84180  1.0000 0.1211691379
H   H59       1.0  0.53520  0.83300  0.34180  1.0000 0.1211691379
H   H60       1.0  0.03520  0.16700  0.65820  1.0000 0.1211691379
H   H61       1.0  0.30760  0.19350  0.09720  1.0000 0.1318311602
H   H62       1.0  0.80760  0.80650  0.90280  1.0000 0.1318311602
H   H63       1.0  0.30760  0.69350  0.40280  1.0000 0.1318311602
H   H64       1.0  0.80760  0.30650  0.59720  1.0000 0.1318311602
H   H65       1.0  0.35230  0.20980  0.04390  1.0000 0.1318311602
H   H66       1.0  0.85230  0.79020  0.95610  1.0000 0.1318311602
H   H67       1.0  0.35230  0.70980  0.45610  1.0000 0.1318311602
H   H68       1.0  0.85230  0.29020  0.54390  1.0000 0.1318311602
H   H69       1.0  0.08660  0.18000  0.06100  1.0000 0.137817003
H   H70       1.0  0.58660  0.82000  0.93900  1.0000 0.137817003
H   H71       1.0  0.08660  0.68000  0.43900  1.0000 0.137817003
H   H72       1.0  0.58660  0.32000  0.56100  1.0000 0.137817003
H   H73       1.0  0.02170  0.53800  0.09970  1.0000 0.1211691379
H   H74       1.0  0.52170  0.46200  0.90030  1.0000 0.1211691379
H   H75       1.0  0.02170  0.03800  0.40030  1.0000 0.1211691379
H   H76       1.0  0.52170  0.96200  0.59970  1.0000 0.1211691379
H   H77       1.0  0.77550  0.50950  0.12530  1.0000 0.1318311602
H   H78       1.0  0.27550  0.49050  0.87470  1.0000 0.1318311602
H   H79       1.0  0.77550  0.00950  0.37470  1.0000 0.1318311602
H   H80       1.0  0.27550  0.99050  0.62530  1.0000 0.1318311602
H   H81       1.0  0.77170  0.52180  0.07090  1.0000 0.1318311602
H   H82       1.0  0.27170  0.47820  0.92910  1.0000 0.1318311602
H   H83       1.0  0.77170  0.02180  0.42910  1.0000 0.1318311602
H   H84       1.0  0.27170  0.97820  0.57090  1.0000 0.1318311602
H   H85       1.0  0.51630  0.41020  0.02620  1.0000 0.1318311602
H   H86       1.0  0.01630  0.58980  0.97380  1.0000 0.1318311602
H   H87       1.0  0.51630  0.91020  0.47380  1.0000 0.1318311602
H   H88       1.0  0.01630  0.08980  0.52620  1.0000 0.1318311602
H   H89       1.0  0.72480  0.40770  0.98660  1.0000 0.1211691379
H   H90       1.0  0.22480  0.59230  0.01340  1.0000 0.1211691379
H   H91       1.0  0.72480  0.90770  0.51340  1.0000 0.1211691379
H   H92       1.0  0.22480  0.09230  0.48660  1.0000 0.1211691379
H   H93       1.0  0.70330  0.47600  0.01920  1.0000 0.137817003
H   H94       1.0  0.20330  0.52400  0.98080  1.0000 0.137817003
H   H95       1.0  0.70330  0.97600  0.48080  1.0000 0.137817003
H   H96       1.0  0.20330  0.02400  0.51920  1.0000 0.137817003
H   H97       1.0  0.81650  0.22470  0.01620  1.0000 0.1318311602
H   H98       1.0  0.31650  0.77530  0.98380  1.0000 0.1318311602
H   H99       1.0  0.81650  0.72470  0.48380  1.0000 0.1318311602
H   H100      1.0  0.31650  0.27530  0.51620  1.0000 0.1318311602
H   H101      1.0  0.69540  0.29490  0.99430  1.0000 0.1211691379
H   H102      1.0  0.19540  0.70510  0.00570  1.0000 0.1211691379
H   H103      1.0  0.69540  0.79490  0.50570  1.0000 0.1211691379
H   H104      1.0  0.19540  0.20510  0.49430  1.0000 0.1211691379
H   H105      1.0  0.03160  0.16820  0.94450  1.0000 0.1503260586
H   H106      1.0  0.53160  0.83180  0.05550  1.0000 0.1503260586
H   H107      1.0  0.03160  0.66820  0.55550  1.0000 0.1503260586
H   H108      1.0  0.53160  0.33180  0.44450  1.0000 0.1503260586
H   H109      1.0  0.41060  0.33350  0.89870  1.0000 0.1211691379
H   H110      1.0  0.91060  0.66650  0.10130  1.0000 0.1211691379
H   H111      1.0  0.41060  0.83350  0.60130  1.0000 0.1211691379
H   H112      1.0  0.91060  0.16650  0.39870  1.0000 0.1211691379
C   C1        1.0  0.37520  0.73630  0.18810  1.0000 0.6426988438
C   C2        1.0  0.87520  0.26370  0.81190  1.0000 0.6426988438
C   C3        1.0  0.37520  0.23630  0.31190  1.0000 0.6426988438
C   C4        1.0  0.87520  0.76370  0.68810  1.0000 0.6426988438
C   C5        1.0  0.51810  0.66470  0.19280  1.0000 -0.4169224009
C   C6        1.0  0.01810  0.33530  0.80720  1.0000 -0.4169224009
C   C7        1.0  0.51810  0.16470  0.30720  1.0000 -0.4169224009
C   C8        1.0  0.01810  0.83530  0.69280  1.0000 -0.4169224009
C   C9        1.0  0.52110  0.63790  0.24380  1.0000 0.1503260586
C   C10       1.0  0.02110  0.36210  0.75620  1.0000 0.1503260586
C   C11       1.0  0.52110  0.13790  0.25620  1.0000 0.1503260586
C   C12       1.0  0.02110  0.86210  0.74380  1.0000 0.1503260586
C   C13       1.0  0.71710  0.65890  0.27400  1.0000 -0.1476250159
C   C14       1.0  0.21710  0.34110  0.72600  1.0000 -0.1476250159
C   C15       1.0  0.71710  0.15890  0.22600  1.0000 -0.1476250159
C   C16       1.0  0.21710  0.84110  0.77400  1.0000 -0.1476250159
C   C17       1.0  0.72240  0.63310  0.31940  1.0000 -0.1476250159
C   C18       1.0  0.22240  0.36690  0.68060  1.0000 -0.1476250159
C   C19       1.0  0.72240  0.13310  0.18060  1.0000 -0.1476250159
C   C20       1.0  0.22240  0.86690  0.81940  1.0000 -0.1476250159
C   C21       1.0  0.53270  0.58590  0.33630  1.0000 0.137817003
C   C22       1.0  0.03270  0.41410  0.66370  1.0000 0.137817003
C   C23       1.0  0.53270  0.08590  0.16370  1.0000 0.137817003
C   C24       1.0  0.03270  0.91410  0.83630  1.0000 0.137817003
C   C25       1.0  0.34030  0.56740  0.30650  1.0000 -0.1476250159
C   C26       1.0  0.84030  0.43260  0.69350  1.0000 -0.1476250159
C   C27       1.0  0.34030  0.06740  0.19350  1.0000 -0.1476250159
C   C28       1.0  0.84030  0.93260  0.80650  1.0000 -0.1476250159
C   C29       1.0  0.32950  0.59310  0.26080  1.0000 -0.1658565506
C   C30       1.0  0.82950  0.40690  0.73920  1.0000 -0.1658565506
C   C31       1.0  0.32950  0.09310  0.23920  1.0000 -0.1658565506
C   C32       1.0  0.82950  0.90690  0.76080  1.0000 -0.1658565506
C   C33       1.0  0.55490  0.55570  0.38510  1.0000 -0.3858289376
C   C34       1.0  0.05490  0.44430  0.61490  1.0000 -0.3858289376
C   C35       1.0  0.55490  0.05570  0.11490  1.0000 -0.3858289376
C   C36       1.0  0.05490  0.94430  0.88510  1.0000 -0.3858289376
C   C37       1.0  0.72710  0.48860  0.38780  1.0000 0.6339596108
C   C38       1.0  0.22710  0.51140  0.61220  1.0000 0.6339596108
C   C39       1.0  0.72710  0.98860  0.11220  1.0000 0.6339596108
C   C40       1.0  0.22710  0.01140  0.88780  1.0000 0.6339596108
C   C41       1.0  0.80490  0.44210  0.25310  1.0000 0.1503260586
C   C42       1.0  0.30490  0.55790  0.74690  1.0000 0.1503260586
C   C43       1.0  0.80490  0.94210  0.24690  1.0000 0.1503260586
C   C44       1.0  0.30490  0.05790  0.75310  1.0000 0.1503260586
C   C45       1.0  0.14280  0.38750  0.24070  1.0000 0.0932347633
C   C46       1.0  0.64280  0.61250  0.75930  1.0000 0.0932347633
C   C47       1.0  0.14280  0.88750  0.25930  1.0000 0.0932347633
C   C48       1.0  0.64280  0.11250  0.74070  1.0000 0.0932347633
C   C49       1.0  0.24630  0.44390  0.16100  1.0000 -0.1815612718
C   C50       1.0  0.74630  0.55610  0.83900  1.0000 -0.1815612718
C   C51       1.0  0.24630  0.94390  0.33900  1.0000 -0.1815612718
C   C52       1.0  0.74630  0.05610  0.66100  1.0000 -0.1815612718
C   C53       1.0  0.14440  0.39950  0.11990  1.0000 -0.0262498843
C   C54       1.0  0.64440  0.60050  0.88010  1.0000 -0.0262498843
C   C55       1.0  0.14440  0.89950  0.38010  1.0000 -0.0262498843
C   C56       1.0  0.64440  0.10050  0.61990  1.0000 -0.0262498843
C   C57       1.0  0.22980  0.32750  0.11270  1.0000 0.0585413769
C   C58       1.0  0.72980  0.67250  0.88730  1.0000 0.0585413769
C   C59       1.0  0.22980  0.82750  0.38730  1.0000 0.0585413769
C   C60       1.0  0.72980  0.17250  0.61270  1.0000 0.0585413769
C   C61       1.0  0.43500  0.29480  0.14460  1.0000 -0.4492450572
C   C62       1.0  0.93500  0.70520  0.85540  1.0000 -0.4492450572
C   C63       1.0  0.43500  0.79480  0.35540  1.0000 -0.4492450572
C   C64       1.0  0.93500  0.20520  0.64460  1.0000 -0.4492450572
C   C65       1.0  0.13570  0.28710  0.07610  1.0000 0.0459042907
C   C66       1.0  0.63570  0.71290  0.92390  1.0000 0.0459042907
C   C67       1.0  0.13570  0.78710  0.42390  1.0000 0.0459042907
C   C68       1.0  0.63570  0.21290  0.57610  1.0000 0.0459042907
C   C69       1.0  0.22900  0.21070  0.06890  1.0000 -0.4492450572
C   C70       1.0  0.72900  0.78930  0.93110  1.0000 -0.4492450572
C   C71       1.0  0.22900  0.71070  0.43110  1.0000 -0.4492450572
C   C72       1.0  0.72900  0.28930  0.56890  1.0000 -0.4492450572
C   C73       1.0  0.95730  0.31790  0.04580  1.0000 -0.0262498843
C   C74       1.0  0.45730  0.68210  0.95420  1.0000 -0.0262498843
C   C75       1.0  0.95730  0.81790  0.45420  1.0000 -0.0262498843
C   C76       1.0  0.45730  0.18210  0.54580  1.0000 -0.0262498843
C   C77       1.0  0.87570  0.38990  0.05190  1.0000 0.0585413769
C   C78       1.0  0.37570  0.61010  0.94810  1.0000 0.0585413769
C   C79       1.0  0.87570  0.88990  0.44810  1.0000 0.0585413769
C   C80       1.0  0.37570  0.11010  0.55190  1.0000 0.0585413769
C   C81       1.0  0.96250  0.43000  0.08950  1.0000 0.0585413769
C   C82       1.0  0.46250  0.57000  0.91050  1.0000 0.0585413769
C   C83       1.0  0.96250  0.93000  0.41050  1.0000 0.0585413769
C   C84       1.0  0.46250  0.07000  0.58950  1.0000 0.0585413769
C   C85       1.0  0.87500  0.50670  0.09700  1.0000 -0.4492450572
C   C86       1.0  0.37500  0.49330  0.90300  1.0000 -0.4492450572
C   C87       1.0  0.87500  0.00670  0.40300  1.0000 -0.4492450572
C   C88       1.0  0.37500  0.99330  0.59700  1.0000 -0.4492450572
C   C89       1.0  0.68800  0.42410  0.01790  1.0000 -0.4492450572
C   C90       1.0  0.18800  0.57590  0.98210  1.0000 -0.4492450572
C   C91       1.0  0.68800  0.92410  0.48210  1.0000 -0.4492450572
C   C92       1.0  0.18800  0.07590  0.51790  1.0000 -0.4492450572
C   C93       1.0  0.85420  0.27340  0.00530  1.0000 -0.194192718
C   C94       1.0  0.35420  0.72660  0.99470  1.0000 -0.194192718
C   C95       1.0  0.85420  0.77340  0.49470  1.0000 -0.194192718
C   C96       1.0  0.35420  0.22660  0.50530  1.0000 -0.194192718
C   C97       1.0  0.09650  0.21480  0.94010  1.0000 0.0955412284
C   C98       1.0  0.59650  0.78520  0.05990  1.0000 0.0955412284
C   C99       1.0  0.09650  0.71480  0.55990  1.0000 0.0955412284
C   C100      1.0  0.59650  0.28520  0.44010  1.0000 0.0955412284
C   C101      1.0  0.29890  0.30450  0.91590  1.0000 0.1318311602
C   C102      1.0  0.79890  0.69550  0.08410  1.0000 0.1318311602
C   C103      1.0  0.29890  0.80450  0.58410  1.0000 0.1318311602
C   C104      1.0  0.79890  0.19550  0.41590  1.0000 0.1318311602
N   N1        1.0  0.25970  0.23290  0.90622  1.0000 -0.3368845761
N   N2        1.0  0.75970  0.76710  0.09378  1.0000 -0.3368845761
N   N3        1.0  0.25970  0.73290  0.59378  1.0000 -0.3368845761
N   N4        1.0  0.75970  0.26710  0.40622  1.0000 -0.3368845761
N   N5        1.0  0.03930  0.26980  0.96620  1.0000 0.1739639238
N   N6        1.0  0.53930  0.73020  0.03380  1.0000 0.1739639238
N   N7        1.0  0.03930  0.76980  0.53380  1.0000 0.1739639238
N   N8        1.0  0.53930  0.23020  0.46620  1.0000 0.1739639238
N   N9        1.0  0.16730  0.32890  0.95110  1.0000 -0.239760752
N   N10       1.0  0.66730  0.67110  0.04890  1.0000 -0.239760752
N   N11       1.0  0.16730  0.82890  0.54890  1.0000 -0.239760752
N   N12       1.0  0.66730  0.17110  0.45110  1.0000 -0.239760752
N   N13       1.0  0.09710  0.43050  0.20410  1.0000 0.1503260586
N   N14       1.0  0.59710  0.56950  0.79590  1.0000 0.1550073669
N   N15       1.0  0.09710  0.93050  0.29590  1.0000 0.1503260586
N   N16       1.0  0.59710  0.06950  0.70410  1.0000 0.1550073669
N   N17       1.0  0.87180  0.46730  0.21206  1.0000 -0.2606446996
N   N18       1.0  0.37180  0.53270  0.78794  1.0000 -0.2606446996
N   N19       1.0  0.87180  0.96730  0.28794  1.0000 -0.2606446996
N   N20       1.0  0.37180  0.03270  0.71206  1.0000 -0.2606446996
N   N21       1.0  0.96340  0.39340  0.27251  1.0000 -0.3082544014
N   N22       1.0  0.46340  0.60660  0.72749  1.0000 -0.3082544014
N   N23       1.0  0.96340  0.89340  0.22749  1.0000 -0.3082544014
N   N24       1.0  0.46340  0.10660  0.77251  1.0000 -0.3082544014
O   O1        1.0  0.91620  0.49180  0.41380  1.0000 -0.5905111909
O   O2        1.0  0.41620  0.50820  0.58620  1.0000 -0.5905111909
O   O3        1.0  0.91620  0.99180  0.08620  1.0000 -0.5905111909
O   O4        1.0  0.41620  0.00820  0.91380  1.0000 -0.5905111909
O   O5        1.0  0.67160  0.43570  0.36253  1.0000 -0.5958938106
O   O6        1.0  0.17160  0.56430  0.63747  1.0000 -0.5958938106
O   O7        1.0  0.67160  0.93570  0.13747  1.0000 -0.5958938106
O   O8        1.0  0.17160  0.06430  0.86253  1.0000 -0.5958938106
O   O9        1.0  0.13910  0.73240  0.18100  1.0000 -0.5721738145
O   O10       1.0  0.63910  0.26760  0.81900  1.0000 -0.5721738145
O   O11       1.0  0.13910  0.23240  0.31900  1.0000 -0.5721738145
O   O12       1.0  0.63910  0.76760  0.68100  1.0000 -0.5721738145
O   O13       1.0  0.49950  0.79500  0.19180  1.0000 -0.5905111909
O   O14       1.0  0.99950  0.20500  0.80820  1.0000 -0.5905111909
O   O15       1.0  0.49950  0.29500  0.30820  1.0000 -0.5905111909
O   O16       1.0  0.99950  0.70500  0.69180  1.0000 -0.5905111909
