# DDEC6 charges by PACMAN v1.1 (https://github.com/mtap-research/PACMAN-charge/)
data_2013[Co][pts]3[ASR]1
_chemical_formula_sum              "Co4 H64 C96 N8 O16"
_cell_length_a       17.0218
_cell_length_b       10.599
_cell_length_c       21.2678
_cell_angle_alpha    90
_cell_angle_beta     124.197
_cell_angle_gamma    90

_symmetry_space_group_name_H-M    "P 1"
_symmetry_Int_Tables_number       1

loop_
  _symmetry_equiv_pos_as_xyz
  'x, y, z'

loop_
  _atom_site_type_symbol
  _atom_site_label
  _atom_site_symmetry_multiplicity
  _atom_site_fract_x
  _atom_site_fract_y
  _atom_site_fract_z
  _atom_site_occupancy
  _atom_site_charge
Co  Co1       1.0  0.48396  0.46505  0.60276  1.0000 0.8081342444
Co  Co2       1.0  0.48396  0.53495  0.10276  1.0000 0.8081342444
Co  Co3       1.0  0.98402  0.49991  0.85284  1.0000 0.7864159212
Co  Co4       1.0  0.98402  0.50009  0.35284  1.0000 0.7837943301
H   H1        1.0  0.39850  0.58430  0.37240  1.0000 0.1203954189
H   H2        1.0  0.39850  0.41570  0.87240  1.0000 0.1203954189
H   H3        1.0  0.18810  0.05480  0.08890  1.0000 0.1106855038
H   H4        1.0  0.18810  0.94520  0.58890  1.0000 0.1106855038
H   H5        1.0  0.69670  0.59380  0.08440  1.0000 0.1465427165
H   H6        1.0  0.69670  0.40620  0.58440  1.0000 0.1465427165
H   H7        1.0  0.02440  0.31880  0.98050  1.0000 0.1106855038
H   H8        1.0  0.02440  0.68120  0.48050  1.0000 0.1106855038
H   H9        1.0  0.94730  0.31830  0.22530  1.0000 0.1106855038
H   H10       1.0  0.94730  0.68170  0.72530  1.0000 0.1106855038
H   H11       1.0  0.80210  0.61830  0.21370  1.0000 0.1106855038
H   H12       1.0  0.80210  0.38170  0.71370  1.0000 0.1106855038
H   H13       1.0  0.27040  0.59970  0.12320  1.0000 0.1465427165
H   H14       1.0  0.27040  0.40030  0.62320  1.0000 0.1465427165
H   H15       1.0  0.16670  0.06220  0.88760  1.0000 0.1203954189
H   H16       1.0  0.16670  0.93780  0.38760  1.0000 0.1203954189
H   H17       1.0  0.12290  0.29140  0.11200  1.0000 0.1284548655
H   H18       1.0  0.12290  0.70860  0.61200  1.0000 0.1284548655
H   H19       1.0  0.84450  0.28460  0.09700  1.0000 0.1284548655
H   H20       1.0  0.84450  0.71540  0.59700  1.0000 0.1284548655
H   H21       1.0  0.90060  0.11600  0.85860  1.0000 0.1106855038
H   H22       1.0  0.90060  0.88400  0.35860  1.0000 0.1106855038
H   H23       1.0  0.29320  0.60790  0.24130  1.0000 0.1203954189
H   H24       1.0  0.29320  0.39210  0.74130  1.0000 0.1203954189
H   H25       1.0  0.68920  0.22890  0.98960  1.0000 0.1008954008
H   H26       1.0  0.68920  0.77110  0.48960  1.0000 0.1008954008
H   H27       1.0  0.07070  0.88970  0.84760  1.0000 0.1203954189
H   H28       1.0  0.07070  0.11030  0.34760  1.0000 0.1203954189
H   H29       1.0  0.66667  0.61060  0.96390  1.0000 0.1203954189
H   H30       1.0  0.66667  0.38940  0.46390  1.0000 0.1203954189
H   H31       1.0  0.79780  0.93790  0.81520  1.0000 0.1203954189
H   H32       1.0  0.79780  0.06210  0.31520  1.0000 0.1203954189
H   H33       1.0  0.27820  0.23220  0.21380  1.0000 0.1106855038
H   H34       1.0  0.27820  0.76780  0.71380  1.0000 0.1106855038
H   H35       1.0  0.67030  0.55360  0.74470  1.0000 0.1106855038
H   H36       1.0  0.67030  0.44640  0.24470  1.0000 0.1106855038
H   H37       1.0  0.16440  0.62040  0.99140  1.0000 0.1008954008
H   H38       1.0  0.16440  0.37960  0.49140  1.0000 0.1008954008
H   H39       1.0  0.62900  0.86240  0.57370  1.0000 0.1380867526
H   H40       1.0  0.62900  0.13760  0.07370  1.0000 0.1380867526
H   H41       1.0  0.19210  0.27540  0.91760  1.0000 0.1465427165
H   H42       1.0  0.19210  0.72460  0.41760  1.0000 0.1465427165
H   H43       1.0  0.57610  0.58400  0.83140  1.0000 0.1106855038
H   H44       1.0  0.57610  0.41600  0.33140  1.0000 0.1106855038
H   H45       1.0  0.07360  0.88830  0.03810  1.0000 0.1203954189
H   H46       1.0  0.07360  0.11170  0.53810  1.0000 0.1203954189
H   H47       1.0  0.52100  0.69390  0.53870  1.0000 0.1106855038
H   H48       1.0  0.52100  0.30610  0.03870  1.0000 0.1106855038
H   H49       1.0  0.78000  0.71920  0.78640  1.0000 0.1465427165
H   H50       1.0  0.78000  0.28080  0.28640  1.0000 0.1465427165
H   H51       1.0  0.34620  0.13140  0.13090  1.0000 0.1380867526
H   H52       1.0  0.34620  0.86860  0.63090  1.0000 0.1380867526
H   H53       1.0  0.58790  0.20740  0.85720  1.0000 0.1203954189
H   H54       1.0  0.58790  0.79260  0.35720  1.0000 0.1203954189
H   H55       1.0  0.38650  0.20370  0.34500  1.0000 0.1203954189
H   H56       1.0  0.38650  0.79630  0.84500  1.0000 0.1203954189
H   H57       1.0  0.88930  0.10260  0.66270  1.0000 0.1203954189
H   H58       1.0  0.88930  0.89740  0.16270  1.0000 0.1203954189
H   H59       1.0  0.44100  0.30310  0.16940  1.0000 0.1203954189
H   H60       1.0  0.44100  0.69690  0.66940  1.0000 0.1203954189
H   H61       1.0  0.79290  0.93250  0.62410  1.0000 0.1106855038
H   H62       1.0  0.79290  0.06750  0.12410  1.0000 0.1106855038
H   H63       1.0  0.29610  0.44080  0.96120  1.0000 0.1106855038
H   H64       1.0  0.29610  0.55920  0.46120  1.0000 0.1106855038
C   C1        1.0  0.37330  0.51180  0.34070  1.0000 -0.0892439162
C   C2        1.0  0.37330  0.48820  0.84070  1.0000 -0.0892439162
C   C3        1.0  0.16220  0.02410  0.03900  1.0000 -0.1703892596
C   C4        1.0  0.16220  0.97590  0.53900  1.0000 -0.1703892596
C   C5        1.0  0.74840  0.53670  0.11180  1.0000 -0.1806455668
C   C6        1.0  0.74840  0.46330  0.61180  1.0000 -0.1806455668
C   C7        1.0  0.99880  0.75650  0.91190  1.0000 0.5474632547
C   C8        1.0  0.99880  0.24350  0.41190  1.0000 0.5474632547
C   C9        1.0  0.96940  0.23870  0.79380  1.0000 0.5407047138
C   C10       1.0  0.96940  0.76130  0.29380  1.0000 0.5407047138
C   C11       1.0  0.20910  0.43690  0.13250  1.0000 0.1203954189
C   C12       1.0  0.20910  0.56310  0.63250  1.0000 0.1203954189
C   C13       1.0  0.78110  0.92300  0.71400  1.0000 0.0620803047
C   C14       1.0  0.78110  0.07700  0.21400  1.0000 0.0620803047
C   C15       1.0  0.18900  0.07770  0.99340  1.0000 0.0677011364
C   C16       1.0  0.18900  0.92230  0.49340  1.0000 0.0677011364
C   C17       1.0  0.46010  0.37550  0.45840  1.0000 0.5474632547
C   C18       1.0  0.46010  0.62450  0.95840  1.0000 0.5474632547
C   C19       1.0  0.50560  0.37740  0.74840  1.0000 0.5704508886
C   C20       1.0  0.50560  0.62260  0.24840  1.0000 0.5704508886
C   C21       1.0  0.07440  0.37760  0.00990  1.0000 0.1106855038
C   C22       1.0  0.07440  0.62240  0.50990  1.0000 0.1106855038
C   C23       1.0  0.39810  0.39280  0.37250  1.0000 -0.0145602462
C   C24       1.0  0.39810  0.60720  0.87250  1.0000 -0.0145602462
C   C25       1.0  0.89600  0.37510  0.19610  1.0000 0.0677011364
C   C26       1.0  0.89600  0.62490  0.69610  1.0000 0.0677011364
C   C27       1.0  0.06260  0.87540  0.93890  1.0000 -0.0226387403
C   C28       1.0  0.06260  0.12460  0.43890  1.0000 -0.0226387403
C   C29       1.0  0.90630  0.13040  0.76570  1.0000 -0.0620926081
C   C30       1.0  0.90630  0.86960  0.26570  1.0000 -0.0620926081
C   C31       1.0  0.81180  0.55040  0.18960  1.0000 0.1008954008
C   C32       1.0  0.81180  0.44960  0.68960  1.0000 0.1008954008
C   C33       1.0  0.22040  0.54040  0.09520  1.0000 -0.1703892596
C   C34       1.0  0.22040  0.45960  0.59520  1.0000 -0.1703892596
C   C35       1.0  0.75930  0.44300  0.07470  1.0000 0.1106855038
C   C36       1.0  0.75930  0.55700  0.57470  1.0000 0.1106855038
C   C37       1.0  0.27700  0.42040  0.21560  1.0000 0.0523667304
C   C38       1.0  0.27700  0.57960  0.71560  1.0000 0.0523667304
C   C39       1.0  0.15060  0.02570  0.91980  1.0000 -0.1405436183
C   C40       1.0  0.15060  0.97430  0.41980  1.0000 -0.1405436183
C   C41       1.0  0.13470  0.35910  0.08910  1.0000 -0.2087008863
C   C42       1.0  0.13470  0.64090  0.58910  1.0000 -0.2087008863
C   C43       1.0  0.56710  0.39210  0.83300  1.0000 -0.0304964691
C   C44       1.0  0.56710  0.60790  0.33300  1.0000 -0.0304964691
C   C45       1.0  0.83610  0.35530  0.12010  1.0000 -0.1927367731
C   C46       1.0  0.83610  0.64470  0.62010  1.0000 -0.1927367731
C   C47       1.0  0.87830  0.08000  0.81050  1.0000 -0.0892439162
C   C48       1.0  0.87830  0.92000  0.31050  1.0000 -0.0892439162
C   C49       1.0  0.25410  0.18720  0.01950  1.0000 0.1106855038
C   C50       1.0  0.25410  0.81280  0.51950  1.0000 0.1106855038
C   C51       1.0  0.31180  0.52580  0.26280  1.0000 -0.1296602696
C   C52       1.0  0.31180  0.47420  0.76280  1.0000 -0.1296602696
C   C53       1.0  0.71340  0.81610  0.68620  1.0000 0.1203954189
C   C54       1.0  0.71340  0.18390  0.18620  1.0000 0.1203954189
C   C55       1.0  0.66580  0.30170  0.95810  1.0000 -0.161181508
C   C56       1.0  0.66580  0.69830  0.45810  1.0000 -0.161181508
C   C57       1.0  0.69310  0.42410  0.99080  1.0000 0.0620803047
C   C58       1.0  0.69310  0.57590  0.49080  1.0000 0.0620803047
C   C59       1.0  0.09230  0.92620  0.89560  1.0000 -0.0797246158
C   C60       1.0  0.09230  0.07380  0.39560  1.0000 -0.0797246158
C   C61       1.0  0.65390  0.52810  0.94280  1.0000 -0.1405436183
C   C62       1.0  0.65390  0.47190  0.44280  1.0000 -0.1405436183
C   C63       1.0  0.81550  0.97350  0.78390  1.0000 -0.1405436183
C   C64       1.0  0.81550  0.02650  0.28390  1.0000 -0.1405436183
C   C65       1.0  0.30310  0.30380  0.24620  1.0000 -0.1506759062
C   C66       1.0  0.30310  0.69620  0.74620  1.0000 -0.1506759062
C   C67       1.0  0.66150  0.61770  0.71000  1.0000 0.088618457
C   C68       1.0  0.66150  0.38230  0.21000  1.0000 0.088618457
C   C69       1.0  0.15620  0.55250  0.01640  1.0000 0.088618457
C   C70       1.0  0.15620  0.44750  0.51640  1.0000 0.088618457
C   C71       1.0  0.63820  0.80310  0.61080  1.0000 -0.2087008863
C   C72       1.0  0.63820  0.19690  0.11080  1.0000 -0.2087008863
C   C73       1.0  0.24300  0.27940  0.96970  1.0000 -0.1806455668
C   C74       1.0  0.24300  0.72060  0.46970  1.0000 -0.1806455668
C   C75       1.0  0.59590  0.51260  0.86390  1.0000 -0.0892439162
C   C76       1.0  0.59590  0.48740  0.36390  1.0000 -0.0892439162
C   C77       1.0  0.09520  0.92260  0.00910  1.0000 -0.0990091416
C   C78       1.0  0.09520  0.07740  0.50910  1.0000 -0.0990091416
C   C79       1.0  0.57480  0.69930  0.58980  1.0000 0.1106855038
C   C80       1.0  0.57480  0.30070  0.08980  1.0000 0.1106855038
C   C81       1.0  0.72640  0.71790  0.73520  1.0000 -0.1806455668
C   C82       1.0  0.72640  0.28210  0.23520  1.0000 -0.1806455668
C   C83       1.0  0.33360  0.19620  0.09550  1.0000 -0.1806455668
C   C84       1.0  0.33360  0.80380  0.59550  1.0000 -0.1806455668
C   C85       1.0  0.60420  0.28930  0.87910  1.0000 -0.0892439162
C   C86       1.0  0.60420  0.71070  0.37910  1.0000 -0.0892439162
C   C87       1.0  0.36580  0.28600  0.32440  1.0000 -0.0990091416
C   C88       1.0  0.36580  0.71400  0.82440  1.0000 -0.0990091416
C   C89       1.0  0.87100  0.07070  0.69440  1.0000 -0.0797246158
C   C90       1.0  0.87100  0.92930  0.19440  1.0000 -0.0797246158
C   C91       1.0  0.39080  0.29580  0.11720  1.0000 0.0523667304
C   C92       1.0  0.39080  0.70420  0.61720  1.0000 0.0523667304
C   C93       1.0  0.81310  0.97130  0.67120  1.0000 -0.1506759062
C   C94       1.0  0.81310  0.02870  0.17120  1.0000 -0.1506759062
C   C95       1.0  0.30630  0.37700  0.99640  1.0000 0.1008954008
C   C96       1.0  0.30630  0.62300  0.49640  1.0000 0.1008954008
N   N1        1.0  0.88530  0.47440  0.23270  1.0000 -0.2499263122
N   N2        1.0  0.88530  0.52560  0.73270  1.0000 -0.2499263122
N   N3        1.0  0.58710  0.61190  0.63720  1.0000 -0.2408238038
N   N4        1.0  0.58710  0.38810  0.13720  1.0000 -0.2408238038
N   N5        1.0  0.38100  0.38960  0.06780  1.0000 -0.2499263122
N   N6        1.0  0.38100  0.61040  0.56780  1.0000 -0.2499263122
N   N7        1.0  0.08370  0.47220  0.97460  1.0000 -0.2408238038
N   N8        1.0  0.08370  0.52780  0.47460  1.0000 -0.2408238038
O   O1        1.0  0.51330  0.46420  0.71000  1.0000 -0.6027118101
O   O2        1.0  0.51330  0.53580  0.21000  1.0000 -0.6027118101
O   O3        1.0  0.45540  0.46230  0.49520  1.0000 -0.5756595864
O   O4        1.0  0.45540  0.53770  0.99520  1.0000 -0.5756595864
O   O5        1.0  0.96610  0.31020  0.84060  1.0000 -0.5860088899
O   O6        1.0  0.96610  0.68980  0.34060  1.0000 -0.5860088899
O   O7        1.0  0.00160  0.69050  0.86440  1.0000 -0.5756595864
O   O8        1.0  0.00160  0.30950  0.36440  1.0000 -0.5756595864
O   O9        1.0  0.51150  0.28210  0.48460  1.0000 -0.5432797804
O   O10       1.0  0.51150  0.71790  0.98460  1.0000 -0.5432797804
O   O11       1.0  0.94920  0.73350  0.93730  1.0000 -0.5602986201
O   O12       1.0  0.94920  0.26650  0.43730  1.0000 -0.5602986201
O   O13       1.0  0.02030  0.25940  0.76930  1.0000 -0.5602986201
O   O14       1.0  0.02030  0.74060  0.26930  1.0000 -0.5602986201
O   O15       1.0  0.45510  0.27840  0.71880  1.0000 -0.5721413031
O   O16       1.0  0.45510  0.72160  0.21880  1.0000 -0.5721413031
