# DDEC6 charges by PACMAN v1.1 (https://github.com/mtap-research/PACMAN-charge/)
data_2013[Zn][rtl]3[ASR]4
_chemical_formula_sum              "Zn4 H32 C76 N8 O24"
_cell_length_a       5.5871
_cell_length_b       25.9462
_cell_length_c       17.4983
_cell_angle_alpha    90
_cell_angle_beta     96.031
_cell_angle_gamma    90

_symmetry_space_group_name_H-M    "P 1"
_symmetry_Int_Tables_number       1

loop_
  _symmetry_equiv_pos_as_xyz
  'x, y, z'

loop_
  _atom_site_type_symbol
  _atom_site_label
  _atom_site_symmetry_multiplicity
  _atom_site_fract_x
  _atom_site_fract_y
  _atom_site_fract_z
  _atom_site_occupancy
  _atom_site_charge
Zn  Zn1       1.0  0.10794  0.52677  0.57193  1.0000 0.839832539
Zn  Zn2       1.0  0.89206  0.02677  0.92807  1.0000 0.839832539
Zn  Zn3       1.0  0.89206  0.47323  0.42807  1.0000 0.839832539
Zn  Zn4       1.0  0.10794  0.97323  0.07193  1.0000 0.839832539
H   H1        1.0  0.46540  0.09670  0.88850  1.0000 0.1223258273
H   H2        1.0  0.53460  0.59670  0.61150  1.0000 0.1223258273
H   H3        1.0  0.53460  0.90330  0.11150  1.0000 0.1223258273
H   H4        1.0  0.46540  0.40330  0.38850  1.0000 0.1223258273
H   H5        1.0  0.39340  0.17200  0.81920  1.0000 0.1491296238
H   H6        1.0  0.60660  0.67200  0.68080  1.0000 0.1491296238
H   H7        1.0  0.60660  0.82800  0.18080  1.0000 0.1491296238
H   H8        1.0  0.39340  0.32800  0.31920  1.0000 0.1491296238
H   H9        1.0  0.98160  0.14380  0.71330  1.0000 0.1491296238
H   H10       1.0  0.01840  0.64380  0.78670  1.0000 0.1491296238
H   H11       1.0  0.01840  0.85620  0.28670  1.0000 0.1491296238
H   H12       1.0  0.98160  0.35620  0.21330  1.0000 0.1491296238
H   H13       1.0  0.04420  0.07060  0.78700  1.0000 0.1223258273
H   H14       1.0  0.95580  0.57060  0.71300  1.0000 0.1223258273
H   H15       1.0  0.95580  0.92940  0.21300  1.0000 0.1223258273
H   H16       1.0  0.04420  0.42940  0.28700  1.0000 0.1223258273
H   H17       1.0  0.12960  0.25490  0.56450  1.0000 0.1277123189
H   H18       1.0  0.87040  0.75490  0.93550  1.0000 0.1277123189
H   H19       1.0  0.87040  0.74510  0.43550  1.0000 0.1277123189
H   H20       1.0  0.12960  0.24510  0.06450  1.0000 0.1277123189
H   H21       1.0  0.07160  0.33520  0.50680  1.0000 0.1277123189
H   H22       1.0  0.92840  0.83520  0.99320  1.0000 0.1277123189
H   H23       1.0  0.92840  0.66480  0.49320  1.0000 0.1277123189
H   H24       1.0  0.07160  0.16480  0.00680  1.0000 0.1277123189
H   H25       1.0  0.03210  0.41790  0.70980  1.0000 0.1277123189
H   H26       1.0  0.96790  0.91790  0.79020  1.0000 0.1277123189
H   H27       1.0  0.96790  0.58210  0.29020  1.0000 0.1277123189
H   H28       1.0  0.03210  0.08210  0.20980  1.0000 0.1277123189
H   H29       1.0  0.07460  0.33730  0.76930  1.0000 0.1223258273
H   H30       1.0  0.92540  0.83730  0.73070  1.0000 0.1223258273
H   H31       1.0  0.92540  0.66270  0.23070  1.0000 0.1223258273
H   H32       1.0  0.07460  0.16270  0.26930  1.0000 0.1223258273
C   C1        1.0  0.57220  0.10690  0.85410  1.0000 0.1016756914
C   C2        1.0  0.42780  0.60690  0.64590  1.0000 0.1016756914
C   C3        1.0  0.42780  0.89310  0.14590  1.0000 0.1016756914
C   C4        1.0  0.57220  0.39310  0.35410  1.0000 0.1016756914
C   C5        1.0  0.52770  0.15196  0.81250  1.0000 -0.2065740355
C   C6        1.0  0.47230  0.65196  0.68750  1.0000 -0.2065740355
C   C7        1.0  0.47230  0.84804  0.18750  1.0000 -0.2065740355
C   C8        1.0  0.52770  0.34804  0.31250  1.0000 -0.2065740355
C   C9        1.0  0.68560  0.16669  0.76110  1.0000 0.2275498307
C   C10       1.0  0.31440  0.66667  0.73890  1.0000 0.2275498307
C   C11       1.0  0.31440  0.83331  0.23890  1.0000 0.2275498307
C   C12       1.0  0.68560  0.33333  0.26110  1.0000 0.2275498307
C   C13       1.0  0.87800  0.13550  0.74970  1.0000 -0.1961043008
C   C14       1.0  0.12200  0.63550  0.75030  1.0000 -0.1961043008
C   C15       1.0  0.12200  0.86450  0.25030  1.0000 -0.1961043008
C   C16       1.0  0.87800  0.36450  0.24970  1.0000 -0.1961043008
C   C17       1.0  0.91290  0.09153  0.79370  1.0000 0.1016756914
C   C18       1.0  0.08710  0.59153  0.70630  1.0000 0.1016756914
C   C19       1.0  0.08710  0.90847  0.20630  1.0000 0.1016756914
C   C20       1.0  0.91290  0.40847  0.29370  1.0000 0.1016756914
C   C21       1.0  0.45450  0.22247  0.66990  1.0000 0.4539816252
C   C22       1.0  0.54550  0.72247  0.83010  1.0000 0.4539816252
C   C23       1.0  0.54550  0.77753  0.33010  1.0000 0.4539816252
C   C24       1.0  0.45450  0.27753  0.16990  1.0000 0.4539816252
C   C25       1.0  0.42630  0.27368  0.63260  1.0000 -0.0716980376
C   C26       1.0  0.57370  0.77368  0.86740  1.0000 -0.0716980376
C   C27       1.0  0.57370  0.72632  0.36740  1.0000 -0.0716980376
C   C28       1.0  0.42630  0.22632  0.13260  1.0000 -0.0716980376
C   C29       1.0  0.59170  0.31346  0.65350  1.0000 0.0381198421
C   C30       1.0  0.40830  0.81346  0.84650  1.0000 0.0381198421
C   C31       1.0  0.40830  0.68654  0.34650  1.0000 0.0381198421
C   C32       1.0  0.59170  0.18654  0.15350  1.0000 0.0381198421
C   C33       1.0  0.79120  0.30435  0.70850  1.0000 -0.0782511833
C   C34       1.0  0.20880  0.80435  0.79150  1.0000 -0.0782511833
C   C35       1.0  0.20880  0.69565  0.29150  1.0000 -0.0782511833
C   C36       1.0  0.79120  0.19565  0.20850  1.0000 -0.0782511833
C   C37       1.0  0.83260  0.25297  0.74360  1.0000 0.4440173901
C   C38       1.0  0.16740  0.75297  0.75640  1.0000 0.4440173901
C   C39       1.0  0.16740  0.74703  0.25640  1.0000 0.4440173901
C   C40       1.0  0.83260  0.24703  0.24360  1.0000 0.4440173901
C   C41       1.0  0.23610  0.28169  0.57850  1.0000 -0.0782511833
C   C42       1.0  0.76390  0.78169  0.92150  1.0000 -0.0782511833
C   C43       1.0  0.76390  0.71831  0.42150  1.0000 -0.0782511833
C   C44       1.0  0.23610  0.21831  0.07850  1.0000 -0.0782511833
C   C45       1.0  0.20090  0.33018  0.54400  1.0000 -0.1106648731
C   C46       1.0  0.79910  0.83018  0.95600  1.0000 -0.1106648731
C   C47       1.0  0.79910  0.66982  0.45600  1.0000 -0.1106648731
C   C48       1.0  0.20090  0.16982  0.04400  1.0000 -0.1106648731
C   C49       1.0  0.35520  0.37061  0.56440  1.0000 -0.0401685971
C   C50       1.0  0.64480  0.87061  0.93560  1.0000 -0.0401685971
C   C51       1.0  0.64480  0.62939  0.43560  1.0000 -0.0401685971
C   C52       1.0  0.35520  0.12939  0.06440  1.0000 -0.0401685971
C   C53       1.0  0.56150  0.36294  0.61810  1.0000 0.0381198421
C   C54       1.0  0.43850  0.86294  0.88190  1.0000 0.0381198421
C   C55       1.0  0.43850  0.63706  0.38190  1.0000 0.0381198421
C   C56       1.0  0.56150  0.13706  0.11810  1.0000 0.0381198421
C   C57       1.0  0.74030  0.40115  0.63850  1.0000 -0.0401685971
C   C58       1.0  0.25970  0.90115  0.86150  1.0000 -0.0401685971
C   C59       1.0  0.25970  0.59885  0.36150  1.0000 -0.0401685971
C   C60       1.0  0.74030  0.09885  0.13850  1.0000 -0.0401685971
C   C61       1.0  0.92320  0.39174  0.69480  1.0000 -0.1106648731
C   C62       1.0  0.07680  0.89174  0.80520  1.0000 -0.1106648731
C   C63       1.0  0.07680  0.60826  0.30520  1.0000 -0.1106648731
C   C64       1.0  0.92320  0.10826  0.19480  1.0000 -0.1106648731
C   C65       1.0  0.94980  0.34301  0.73080  1.0000 -0.0782511833
C   C66       1.0  0.05020  0.84301  0.76920  1.0000 -0.0782511833
C   C67       1.0  0.05020  0.65699  0.26920  1.0000 -0.0782511833
C   C68       1.0  0.94980  0.15699  0.23080  1.0000 -0.0782511833
C   C69       1.0  0.27030  0.42307  0.53500  1.0000 0.5923314042
C   C70       1.0  0.72970  0.92307  0.96500  1.0000 0.5923314042
C   C71       1.0  0.72970  0.57693  0.46500  1.0000 0.5923314042
C   C72       1.0  0.27030  0.07693  0.03500  1.0000 0.5923314042
C   C73       1.0  0.76990  0.44910  0.59160  1.0000 0.599153275
C   C74       1.0  0.23010  0.94910  0.90840  1.0000 0.599153275
C   C75       1.0  0.23010  0.55090  0.40840  1.0000 0.599153275
C   C76       1.0  0.76990  0.05090  0.09160  1.0000 0.599153275
N   N1        1.0  0.76620  0.07762  0.84574  1.0000 -0.2165785783
N   N2        1.0  0.23380  0.57762  0.65426  1.0000 -0.2165785783
N   N3        1.0  0.23380  0.92238  0.15426  1.0000 -0.2165785783
N   N4        1.0  0.76620  0.42238  0.34574  1.0000 -0.2165785783
N   N5        1.0  0.65700  0.21553  0.72240  1.0000 -0.2310373054
N   N6        1.0  0.34300  0.71553  0.77760  1.0000 -0.2310373054
N   N7        1.0  0.34300  0.78447  0.27760  1.0000 -0.2310373054
N   N8        1.0  0.65700  0.28447  0.22240  1.0000 -0.2310373054
O   O1        1.0  0.28700  0.45902  0.58316  1.0000 -0.5188894474
O   O2        1.0  0.71300  0.95902  0.91684  1.0000 -0.5188894474
O   O3        1.0  0.71300  0.54098  0.41684  1.0000 -0.5188894474
O   O4        1.0  0.28700  0.04098  0.08316  1.0000 -0.5188894474
O   O5        1.0  0.17010  0.42445  0.46761  1.0000 -0.5487532222
O   O6        1.0  0.82990  0.92445  0.03239  1.0000 -0.5487532222
O   O7        1.0  0.82990  0.57555  0.53239  1.0000 -0.5487532222
O   O8        1.0  0.17010  0.07555  0.96761  1.0000 -0.5487532222
O   O9        1.0  0.73580  0.44384  0.51998  1.0000 -0.5487532222
O   O10       1.0  0.26420  0.94384  0.98002  1.0000 -0.5487532222
O   O11       1.0  0.26420  0.55616  0.48002  1.0000 -0.5487532222
O   O12       1.0  0.73580  0.05616  0.01998  1.0000 -0.5487532222
O   O13       1.0  0.85340  0.48817  0.62738  1.0000 -0.5335038953
O   O14       1.0  0.14660  0.98817  0.87262  1.0000 -0.5335038953
O   O15       1.0  0.14660  0.51183  0.37262  1.0000 -0.5335038953
O   O16       1.0  0.85340  0.01183  0.12738  1.0000 -0.5335038953
O   O17       1.0  0.31450  0.18696  0.65533  1.0000 -0.4382591413
O   O18       1.0  0.68550  0.68696  0.84467  1.0000 -0.4382591413
O   O19       1.0  0.68550  0.81304  0.34467  1.0000 -0.4382591413
O   O20       1.0  0.31450  0.31304  0.15533  1.0000 -0.4382591413
O   O21       1.0  0.00620  0.24260  0.78870  1.0000 -0.4382591413
O   O22       1.0  0.99380  0.74260  0.71130  1.0000 -0.4382591413
O   O23       1.0  0.99380  0.75740  0.21130  1.0000 -0.4382591413
O   O24       1.0  0.00620  0.25740  0.28870  1.0000 -0.4382591413
