# DDEC6 charges by PACMAN v1.1 (https://github.com/mtap-research/PACMAN-charge/)
data_2013[Eu][nan]3[ASR]9
_chemical_formula_sum              "Eu8 H40 C56 N16 O52"
_cell_length_a       10.237
_cell_length_b       11.2579
_cell_length_c       23.2313
_cell_angle_alpha    90
_cell_angle_beta     108.65
_cell_angle_gamma    90

_symmetry_space_group_name_H-M    "P 1"
_symmetry_Int_Tables_number       1

loop_
  _symmetry_equiv_pos_as_xyz
  'x, y, z'

loop_
  _atom_site_type_symbol
  _atom_site_label
  _atom_site_symmetry_multiplicity
  _atom_site_fract_x
  _atom_site_fract_y
  _atom_site_fract_z
  _atom_site_occupancy
  _atom_site_charge
Eu  Eu1       1.0  0.88441  0.31548  0.27412  1.0000 1.9587612752
Eu  Eu2       1.0  0.11559  0.81548  0.22588  1.0000 1.9587612752
Eu  Eu3       1.0  0.11559  0.68452  0.72588  1.0000 1.9587612752
Eu  Eu4       1.0  0.88441  0.18452  0.77412  1.0000 1.9587612752
Eu  Eu5       1.0  0.30466  0.41025  0.56408  1.0000 2.1764557663
Eu  Eu6       1.0  0.69534  0.91025  0.93592  1.0000 2.1764557663
Eu  Eu7       1.0  0.69534  0.58975  0.43592  1.0000 2.1764557663
Eu  Eu8       1.0  0.30466  0.08975  0.06408  1.0000 2.1764557663
H   H1        1.0  0.10960  0.62500  0.55440  1.0000 0.4103748504
H   H2        1.0  0.89040  0.12500  0.94560  1.0000 0.4103748504
H   H3        1.0  0.89040  0.37500  0.44560  1.0000 0.4103748504
H   H4        1.0  0.10960  0.87500  0.05440  1.0000 0.4103748504
H   H5        1.0  0.16990  0.60450  0.50740  1.0000 0.3834271211
H   H6        1.0  0.83010  0.10450  0.99260  1.0000 0.3834271211
H   H7        1.0  0.83010  0.39550  0.49260  1.0000 0.3834271211
H   H8        1.0  0.16990  0.89550  0.00740  1.0000 0.3834271211
H   H9        1.0  0.45550  0.38100  0.33700  1.0000 0.2979667935
H   H10       1.0  0.54450  0.88100  0.16300  1.0000 0.2979667935
H   H11       1.0  0.54450  0.61900  0.66300  1.0000 0.2979667935
H   H12       1.0  0.45550  0.11900  0.83700  1.0000 0.2979667935
H   H13       1.0  0.49200  0.03570  0.33560  1.0000 0.3163037304
H   H14       1.0  0.50800  0.53570  0.16440  1.0000 0.3163037304
H   H15       1.0  0.50800  0.96430  0.66440  1.0000 0.3163037304
H   H16       1.0  0.49200  0.46430  0.83560  1.0000 0.3163037304
H   H17       1.0  0.22410  0.42340  0.20950  1.0000 0.1720933322
H   H18       1.0  0.77590  0.92340  0.29050  1.0000 0.1720933322
H   H19       1.0  0.77590  0.57660  0.79050  1.0000 0.1720933322
H   H20       1.0  0.22410  0.07660  0.70950  1.0000 0.1720933322
H   H21       1.0  0.34570  0.33170  0.22750  1.0000 0.1508797609
H   H22       1.0  0.65430  0.83170  0.27250  1.0000 0.1508797609
H   H23       1.0  0.65430  0.66830  0.77250  1.0000 0.1508797609
H   H24       1.0  0.34570  0.16830  0.72750  1.0000 0.1508797609
H   H25       1.0  0.19280  0.28690  0.20780  1.0000 0.1786119047
H   H26       1.0  0.80720  0.78690  0.29220  1.0000 0.1786119047
H   H27       1.0  0.80720  0.71310  0.79220  1.0000 0.1786119047
H   H28       1.0  0.19280  0.21310  0.70780  1.0000 0.1786119047
H   H29       1.0  0.69510  0.22880  0.41670  1.0000 0.1508797609
H   H30       1.0  0.30490  0.72880  0.08330  1.0000 0.1508797609
H   H31       1.0  0.30490  0.77120  0.58330  1.0000 0.1508797609
H   H32       1.0  0.69510  0.27120  0.91670  1.0000 0.1508797609
H   H33       1.0  0.69580  0.09040  0.42430  1.0000 0.1508797609
H   H34       1.0  0.30420  0.59040  0.07570  1.0000 0.1508797609
H   H35       1.0  0.30420  0.90960  0.57570  1.0000 0.1508797609
H   H36       1.0  0.69580  0.40960  0.92430  1.0000 0.1508797609
H   H37       1.0  0.81800  0.15360  0.40970  1.0000 0.1720933322
H   H38       1.0  0.18200  0.65360  0.09030  1.0000 0.1720933322
H   H39       1.0  0.18200  0.84640  0.59030  1.0000 0.1720933322
H   H40       1.0  0.81800  0.34640  0.90970  1.0000 0.1720933322
C   C1        1.0  0.20291  0.35210  0.37611  1.0000 0.0059739771
C   C2        1.0  0.79709  0.85210  0.12389  1.0000 0.0059739771
C   C3        1.0  0.79709  0.64790  0.62389  1.0000 0.0059739771
C   C4        1.0  0.20291  0.14790  0.87611  1.0000 0.0059739771
C   C5        1.0  0.34340  0.37120  0.39360  1.0000 -0.0198571628
C   C6        1.0  0.65660  0.87120  0.10640  1.0000 -0.0198571628
C   C7        1.0  0.65660  0.62880  0.60640  1.0000 -0.0198571628
C   C8        1.0  0.34340  0.12880  0.89360  1.0000 -0.0198571628
C   C9        1.0  0.25715  0.35330  0.29315  1.0000 0.4341901545
C   C10       1.0  0.74285  0.85330  0.20685  1.0000 0.4341901545
C   C11       1.0  0.74285  0.64670  0.70685  1.0000 0.4341901545
C   C12       1.0  0.25715  0.14670  0.79315  1.0000 0.4341901545
C   C13       1.0  0.10533  0.34900  0.41183  1.0000 0.6421423707
C   C14       1.0  0.89467  0.84900  0.08817  1.0000 0.6421423707
C   C15       1.0  0.89467  0.65100  0.58817  1.0000 0.6421423707
C   C16       1.0  0.10533  0.15100  0.91183  1.0000 0.6421423707
C   C17       1.0  0.45828  0.38560  0.45118  1.0000 0.6421423707
C   C18       1.0  0.54172  0.88560  0.04882  1.0000 0.6421423707
C   C19       1.0  0.54172  0.61440  0.54882  1.0000 0.6421423707
C   C20       1.0  0.45828  0.11440  0.95118  1.0000 0.6421423707
C   C21       1.0  0.25470  0.34840  0.22880  1.0000 -0.5262233313
C   C22       1.0  0.74530  0.84840  0.27120  1.0000 -0.5262233313
C   C23       1.0  0.74530  0.65160  0.77120  1.0000 -0.5262233313
C   C24       1.0  0.25470  0.15160  0.72880  1.0000 -0.5262233313
C   C25       1.0  0.49233  0.07680  0.25153  1.0000 -0.0198571628
C   C26       1.0  0.50767  0.57680  0.24847  1.0000 -0.0198571628
C   C27       1.0  0.50767  0.92320  0.74847  1.0000 -0.0198571628
C   C28       1.0  0.49233  0.42320  0.75153  1.0000 -0.0198571628
C   C29       1.0  0.58570  0.14980  0.23800  1.0000 -0.0253832188
C   C30       1.0  0.41430  0.64980  0.26200  1.0000 -0.0253832188
C   C31       1.0  0.41430  0.85020  0.76200  1.0000 -0.0253832188
C   C32       1.0  0.58570  0.35020  0.73800  1.0000 -0.0253832188
C   C33       1.0  0.64633  0.14160  0.33643  1.0000 0.4341901545
C   C34       1.0  0.35367  0.64160  0.16357  1.0000 0.4341901545
C   C35       1.0  0.35367  0.85840  0.66357  1.0000 0.4341901545
C   C36       1.0  0.64633  0.35840  0.83643  1.0000 0.4341901545
C   C37       1.0  0.37422  0.99850  0.21652  1.0000 0.6065695587
C   C38       1.0  0.62578  0.49850  0.28348  1.0000 0.6065695587
C   C39       1.0  0.62578  0.00150  0.78348  1.0000 0.6065695587
C   C40       1.0  0.37422  0.50150  0.71652  1.0000 0.6065695587
C   C41       1.0  0.59810  0.19020  0.17920  1.0000 0.6327342097
C   C42       1.0  0.40190  0.69020  0.32080  1.0000 0.6327342097
C   C43       1.0  0.40190  0.80980  0.82080  1.0000 0.6327342097
C   C44       1.0  0.59810  0.30980  0.67920  1.0000 0.6327342097
C   C45       1.0  0.72030  0.15470  0.40260  1.0000 -0.5165383514
C   C46       1.0  0.27970  0.65470  0.09740  1.0000 -0.5165383514
C   C47       1.0  0.27970  0.84530  0.59740  1.0000 -0.5165383514
C   C48       1.0  0.72030  0.34530  0.90260  1.0000 -0.5165383514
C   C49       1.0  0.97912  0.54810  0.21492  1.0000 0.4758311275
C   C50       1.0  0.02088  0.04810  0.28508  1.0000 0.4758311275
C   C51       1.0  0.02088  0.45190  0.78508  1.0000 0.4758311275
C   C52       1.0  0.97912  0.95190  0.71492  1.0000 0.4758311275
C   C53       1.0  0.98336  0.59320  0.27846  1.0000 0.4747779671
C   C54       1.0  0.01664  0.09320  0.22154  1.0000 0.4747779671
C   C55       1.0  0.01664  0.40680  0.72154  1.0000 0.4747779671
C   C56       1.0  0.98336  0.90680  0.77846  1.0000 0.4758311275
N   N1        1.0  0.15067  0.34070  0.31367  1.0000 -0.4805760864
N   N2        1.0  0.84933  0.84070  0.18633  1.0000 -0.4805760864
N   N3        1.0  0.84933  0.65930  0.68633  1.0000 -0.4805760864
N   N4        1.0  0.15067  0.15930  0.81367  1.0000 -0.4805760864
N   N5        1.0  0.37469  0.37120  0.34009  1.0000 -0.2689091336
N   N6        1.0  0.62531  0.87120  0.15991  1.0000 -0.2689091336
N   N7        1.0  0.62531  0.62880  0.65991  1.0000 -0.2689091336
N   N8        1.0  0.37469  0.12880  0.84009  1.0000 -0.2689091336
N   N9        1.0  0.68245  0.18960  0.29105  1.0000 -0.4805760864
N   N10       1.0  0.31755  0.68960  0.20895  1.0000 -0.4805760864
N   N11       1.0  0.31755  0.81040  0.70895  1.0000 -0.4805760864
N   N12       1.0  0.68245  0.31040  0.79105  1.0000 -0.4805760864
N   N13       1.0  0.53273  0.07410  0.31423  1.0000 -0.2689091336
N   N14       1.0  0.46727  0.57410  0.18577  1.0000 -0.2689091336
N   N15       1.0  0.46727  0.92590  0.68577  1.0000 -0.2689091336
N   N16       1.0  0.53273  0.42590  0.81423  1.0000 -0.2689091336
O   O1        1.0  0.98123  0.32460  0.38353  1.0000 -0.6102085408
O   O2        1.0  0.01877  0.82460  0.11647  1.0000 -0.6102085408
O   O3        1.0  0.01877  0.67540  0.61647  1.0000 -0.6102085408
O   O4        1.0  0.98123  0.17540  0.88353  1.0000 -0.6102085408
O   O5        1.0  0.14744  0.37270  0.46744  1.0000 -0.6988079172
O   O6        1.0  0.85256  0.87270  0.03256  1.0000 -0.6988079172
O   O7        1.0  0.85256  0.62730  0.53256  1.0000 -0.6988079172
O   O8        1.0  0.14744  0.12730  0.96744  1.0000 -0.6988079172
O   O9        1.0  0.44070  0.36210  0.50070  1.0000 -0.6447042521
O   O10       1.0  0.55930  0.86210  0.99930  1.0000 -0.6472530262
O   O11       1.0  0.55930  0.63790  0.49930  1.0000 -0.6472530262
O   O12       1.0  0.44070  0.13790  0.00070  1.0000 -0.6472530262
O   O13       1.0  0.57172  0.41630  0.44562  1.0000 -0.6853942569
O   O14       1.0  0.42828  0.91630  0.05438  1.0000 -0.6853942569
O   O15       1.0  0.42828  0.58370  0.55438  1.0000 -0.6853942569
O   O16       1.0  0.57172  0.08370  0.94562  1.0000 -0.6853942569
O   O17       1.0  0.31844  0.94280  0.24854  1.0000 -0.6102085408
O   O18       1.0  0.68156  0.44280  0.25146  1.0000 -0.6102085408
O   O19       1.0  0.68156  0.05720  0.75146  1.0000 -0.6102085408
O   O20       1.0  0.31844  0.55720  0.74854  1.0000 -0.6102085408
O   O21       1.0  0.34494  0.98870  0.15994  1.0000 -0.6988079172
O   O22       1.0  0.65506  0.48870  0.34006  1.0000 -0.6988079172
O   O23       1.0  0.65506  0.01130  0.84006  1.0000 -0.6988079172
O   O24       1.0  0.34494  0.51130  0.65994  1.0000 -0.6988079172
O   O25       1.0  0.50629  0.16750  0.13079  1.0000 -0.6822246608
O   O26       1.0  0.49371  0.66750  0.36921  1.0000 -0.6822246608
O   O27       1.0  0.49371  0.83250  0.86921  1.0000 -0.6822246608
O   O28       1.0  0.50629  0.33250  0.63079  1.0000 -0.6822246608
O   O29       1.0  0.70620  0.24750  0.18180  1.0000 -0.580386832
O   O30       1.0  0.29380  0.74750  0.31820  1.0000 -0.580386832
O   O31       1.0  0.29380  0.75250  0.81820  1.0000 -0.580386832
O   O32       1.0  0.70620  0.25250  0.68180  1.0000 -0.580386832
O   O33       1.0  0.02707  0.61610  0.18437  1.0000 -0.580386832
O   O34       1.0  0.97293  0.11610  0.31563  1.0000 -0.580386832
O   O35       1.0  0.97293  0.38390  0.81563  1.0000 -0.580386832
O   O36       1.0  0.02707  0.88390  0.68437  1.0000 -0.580386832
O   O37       1.0  0.92810  0.44710  0.19920  1.0000 -0.5624073919
O   O38       1.0  0.07190  0.94710  0.30080  1.0000 -0.5624073919
O   O39       1.0  0.07190  0.55290  0.80080  1.0000 -0.5624073919
O   O40       1.0  0.92810  0.05290  0.69920  1.0000 -0.5624073919
O   O41       1.0  0.94482  0.52260  0.31152  1.0000 -0.5695969161
O   O42       1.0  0.05518  0.02260  0.18848  1.0000 -0.5695969161
O   O43       1.0  0.05518  0.47740  0.68848  1.0000 -0.5695969161
O   O44       1.0  0.94482  0.97740  0.81152  1.0000 -0.5695969161
O   O45       1.0  0.02278  0.69800  0.29178  1.0000 -0.5695969161
O   O46       1.0  0.97722  0.19800  0.20822  1.0000 -0.5695969161
O   O47       1.0  0.97722  0.30200  0.70822  1.0000 -0.5695969161
O   O48       1.0  0.02278  0.80200  0.79178  1.0000 -0.5624073919
O   O49       1.0  0.14050  0.57490  0.53460  1.0000 -0.7678677287
O   O50       1.0  0.85950  0.07490  0.96540  1.0000 -0.7678677287
O   O51       1.0  0.85950  0.42510  0.46540  1.0000 -0.7678677287
O   O52       1.0  0.14050  0.92510  0.03460  1.0000 -0.7678677287
