# DDEC6 charges by PACMAN v1.1 (https://github.com/mtap-research/PACMAN-charge/)
data_2013[CoW][mmo]3[ASR]1
_chemical_formula_sum              "Co3 H60 W3 C72 N12 O6"
_cell_length_a       13.6872
_cell_length_b       13.6872
_cell_length_c       13.6872
_cell_angle_alpha    102.29
_cell_angle_beta     102.29
_cell_angle_gamma    102.29

_symmetry_space_group_name_H-M    "P 1"
_symmetry_Int_Tables_number       1

loop_
  _symmetry_equiv_pos_as_xyz
  'x, y, z'

loop_
  _atom_site_type_symbol
  _atom_site_label
  _atom_site_symmetry_multiplicity
  _atom_site_fract_x
  _atom_site_fract_y
  _atom_site_fract_z
  _atom_site_occupancy
  _atom_site_charge
Co  Co1       1.0  0.88331  0.11669  0.50000  1.0000 0.7993541535
Co  Co2       1.0  0.11669  0.50000  0.88331  1.0000 0.7993541535
Co  Co3       1.0  0.50000  0.88331  0.11669  1.0000 0.7993541535
H   H1        1.0  0.59180  0.13380  0.68310  1.0000 0.1221687489
H   H2        1.0  0.13380  0.68310  0.59180  1.0000 0.1221687489
H   H3        1.0  0.68310  0.59180  0.13380  1.0000 0.1221687489
H   H4        1.0  0.86620  0.40820  0.31690  1.0000 0.1221687489
H   H5        1.0  0.31690  0.86620  0.40820  1.0000 0.1221687489
H   H6        1.0  0.40820  0.31690  0.86620  1.0000 0.1221687489
H   H7        1.0  0.67470  0.12100  0.37270  1.0000 0.0902271893
H   H8        1.0  0.12100  0.37270  0.67470  1.0000 0.0902271893
H   H9        1.0  0.37270  0.67470  0.12100  1.0000 0.0902271893
H   H10       1.0  0.87900  0.32530  0.62730  1.0000 0.0902271893
H   H11       1.0  0.62730  0.87900  0.32530  1.0000 0.0902271893
H   H12       1.0  0.32530  0.62730  0.87900  1.0000 0.0902271893
H   H13       1.0  0.08920  0.09930  0.62260  1.0000 0.080207792
H   H14       1.0  0.09930  0.62260  0.08920  1.0000 0.080207792
H   H15       1.0  0.62260  0.08920  0.09930  1.0000 0.080207792
H   H16       1.0  0.90070  0.91080  0.37740  1.0000 0.080207792
H   H17       1.0  0.37740  0.90070  0.91080  1.0000 0.080207792
H   H18       1.0  0.91080  0.37740  0.90070  1.0000 0.080207792
H   H19       1.0  0.19380  0.17630  0.34530  1.0000 0.1221687489
H   H20       1.0  0.17630  0.34530  0.19380  1.0000 0.1221687489
H   H21       1.0  0.34530  0.19380  0.17630  1.0000 0.1221687489
H   H22       1.0  0.82370  0.80620  0.65470  1.0000 0.1221687489
H   H23       1.0  0.65470  0.82370  0.80620  1.0000 0.1221687489
H   H24       1.0  0.80620  0.65470  0.82370  1.0000 0.1221687489
H   H25       1.0  0.51480  0.14150  0.38430  1.0000 0.1094519224
H   H26       1.0  0.14150  0.38430  0.51480  1.0000 0.1094519224
H   H27       1.0  0.38430  0.51480  0.14150  1.0000 0.1094519224
H   H28       1.0  0.85850  0.48520  0.61570  1.0000 0.1094519224
H   H29       1.0  0.61570  0.85850  0.48520  1.0000 0.1094519224
H   H30       1.0  0.48520  0.61570  0.85850  1.0000 0.1094519224
H   H31       1.0  0.41790  0.14380  0.61210  1.0000 0.1094519224
H   H32       1.0  0.14380  0.61210  0.41790  1.0000 0.1094519224
H   H33       1.0  0.61210  0.41790  0.14380  1.0000 0.1094519224
H   H34       1.0  0.85620  0.58210  0.38790  1.0000 0.1094519224
H   H35       1.0  0.38790  0.85620  0.58210  1.0000 0.1094519224
H   H36       1.0  0.58210  0.38790  0.85620  1.0000 0.1094519224
H   H37       1.0  0.02550  0.16240  0.35560  1.0000 0.080207792
H   H38       1.0  0.16240  0.35560  0.02550  1.0000 0.080207792
H   H39       1.0  0.35560  0.02550  0.16240  1.0000 0.080207792
H   H40       1.0  0.83760  0.97450  0.64440  1.0000 0.080207792
H   H41       1.0  0.64440  0.83760  0.97450  1.0000 0.080207792
H   H42       1.0  0.97450  0.64440  0.83760  1.0000 0.080207792
H   H43       1.0  0.25920  0.11140  0.62080  1.0000 0.1221687489
H   H44       1.0  0.11140  0.62080  0.25920  1.0000 0.1221687489
H   H45       1.0  0.62080  0.25920  0.11140  1.0000 0.1221687489
H   H46       1.0  0.88860  0.74080  0.37920  1.0000 0.1221687489
H   H47       1.0  0.37920  0.88860  0.74080  1.0000 0.1221687489
H   H48       1.0  0.74080  0.37920  0.88860  1.0000 0.1221687489
H   H49       1.0  0.75120  0.11610  0.66320  1.0000 0.080207792
H   H50       1.0  0.11610  0.66320  0.75120  1.0000 0.080207792
H   H51       1.0  0.66320  0.75120  0.11610  1.0000 0.080207792
H   H52       1.0  0.88390  0.24880  0.33680  1.0000 0.080207792
H   H53       1.0  0.33680  0.88390  0.24880  1.0000 0.080207792
H   H54       1.0  0.24880  0.33680  0.88390  1.0000 0.080207792
H   H55       1.0  0.36520  0.14950  0.40920  1.0000 0.1094519224
H   H56       1.0  0.14950  0.40920  0.36520  1.0000 0.1094519224
H   H57       1.0  0.40920  0.36520  0.14950  1.0000 0.1094519224
H   H58       1.0  0.85050  0.63480  0.59080  1.0000 0.1094519224
H   H59       1.0  0.59080  0.85050  0.63480  1.0000 0.1094519224
H   H60       1.0  0.63480  0.59080  0.85050  1.0000 0.1094519224
W   W1        1.0  0.79337  0.00000  0.20663  1.0000 1.0953380641
W   W2        1.0  0.00000  0.20663  0.79337  1.0000 1.0887269553
W   W3        1.0  0.20663  0.79337  0.00000  1.0000 1.0887269553
C   C1        1.0  0.60650  0.13100  0.61870  1.0000 -0.2273248341
C   C2        1.0  0.13100  0.61870  0.60650  1.0000 -0.2273248341
C   C3        1.0  0.61870  0.60650  0.13100  1.0000 -0.2273248341
C   C4        1.0  0.86900  0.39350  0.38130  1.0000 -0.2273248341
C   C5        1.0  0.38130  0.86900  0.39350  1.0000 -0.2273248341
C   C6        1.0  0.39350  0.38130  0.86900  1.0000 -0.2273248341
C   C7        1.0  0.65780  0.12370  0.43610  1.0000 0.080207792
C   C8        1.0  0.12370  0.43610  0.65780  1.0000 0.080207792
C   C9        1.0  0.43610  0.65780  0.12370  1.0000 0.080207792
C   C10       1.0  0.87630  0.34220  0.56390  1.0000 0.080207792
C   C11       1.0  0.56390  0.87630  0.34220  1.0000 0.080207792
C   C12       1.0  0.34220  0.56390  0.87630  1.0000 0.080207792
C   C13       1.0  0.24630  0.14270  0.48150  1.0000 0.1426886123
C   C14       1.0  0.14270  0.48150  0.24630  1.0000 0.1426886123
C   C15       1.0  0.48150  0.24630  0.14270  1.0000 0.1426886123
C   C16       1.0  0.85730  0.75370  0.51850  1.0000 0.1426886123
C   C17       1.0  0.51850  0.85730  0.75370  1.0000 0.1426886123
C   C18       1.0  0.75370  0.51850  0.85730  1.0000 0.1426886123
C   C19       1.0  0.11060  0.11460  0.56550  1.0000 0.0696790692
C   C20       1.0  0.11460  0.56550  0.11060  1.0000 0.0696790692
C   C21       1.0  0.56550  0.11060  0.11460  1.0000 0.0696790692
C   C22       1.0  0.88540  0.88940  0.43450  1.0000 0.0696790692
C   C23       1.0  0.43450  0.88540  0.88940  1.0000 0.0696790692
C   C24       1.0  0.88940  0.43450  0.88540  1.0000 0.0696790692
C   C25       1.0  0.17430  0.15960  0.40280  1.0000 -0.2273248341
C   C26       1.0  0.15960  0.40280  0.17430  1.0000 -0.2273248341
C   C27       1.0  0.40280  0.17430  0.15960  1.0000 -0.2273248341
C   C28       1.0  0.84040  0.82570  0.59720  1.0000 -0.2273248341
C   C29       1.0  0.59720  0.84040  0.82570  1.0000 -0.2273248341
C   C30       1.0  0.82570  0.59720  0.84040  1.0000 -0.2273248341
C   C31       1.0  0.56140  0.13520  0.44240  1.0000 -0.216063169
C   C32       1.0  0.13520  0.44240  0.56140  1.0000 -0.216063169
C   C33       1.0  0.44240  0.56140  0.13520  1.0000 -0.216063169
C   C34       1.0  0.86480  0.43860  0.55760  1.0000 -0.216063169
C   C35       1.0  0.55760  0.86480  0.43860  1.0000 -0.216063169
C   C36       1.0  0.43860  0.55760  0.86480  1.0000 -0.216063169
C   C37       1.0  0.53310  0.13750  0.53470  1.0000 0.1460598286
C   C38       1.0  0.13750  0.53470  0.53310  1.0000 0.1460598286
C   C39       1.0  0.53470  0.53310  0.13750  1.0000 0.1460598286
C   C40       1.0  0.86250  0.46690  0.46530  1.0000 0.1460598286
C   C41       1.0  0.46530  0.86250  0.46690  1.0000 0.1460598286
C   C42       1.0  0.46690  0.46530  0.86250  1.0000 0.1460598286
C   C43       1.0  0.42930  0.14250  0.54650  1.0000 -0.1571386877
C   C44       1.0  0.14250  0.54650  0.42930  1.0000 -0.1571386877
C   C45       1.0  0.54650  0.42930  0.14250  1.0000 -0.1571386877
C   C46       1.0  0.85750  0.57070  0.45350  1.0000 -0.1571386877
C   C47       1.0  0.45350  0.85750  0.57070  1.0000 -0.1571386877
C   C48       1.0  0.57070  0.45350  0.85750  1.0000 -0.1571386877
C   C49       1.0  0.07350  0.15150  0.40970  1.0000 0.0608221002
C   C50       1.0  0.15150  0.40970  0.07350  1.0000 0.0608221002
C   C51       1.0  0.40970  0.07350  0.15150  1.0000 0.0608221002
C   C52       1.0  0.84850  0.92650  0.59030  1.0000 0.0608221002
C   C53       1.0  0.59030  0.84850  0.92650  1.0000 0.0608221002
C   C54       1.0  0.92650  0.59030  0.84850  1.0000 0.0608221002
C   C55       1.0  0.21280  0.12140  0.56480  1.0000 -0.216063169
C   C56       1.0  0.12140  0.56480  0.21280  1.0000 -0.216063169
C   C57       1.0  0.56480  0.21280  0.12140  1.0000 -0.216063169
C   C58       1.0  0.87860  0.78720  0.43520  1.0000 -0.216063169
C   C59       1.0  0.43520  0.87860  0.78720  1.0000 -0.216063169
C   C60       1.0  0.78720  0.43520  0.87860  1.0000 -0.216063169
C   C61       1.0  0.70210  0.12050  0.60590  1.0000 0.0608221002
C   C62       1.0  0.12050  0.60590  0.70210  1.0000 0.0608221002
C   C63       1.0  0.60590  0.70210  0.12050  1.0000 0.0608221002
C   C64       1.0  0.87950  0.29790  0.39410  1.0000 0.0608221002
C   C65       1.0  0.39410  0.87950  0.29790  1.0000 0.0608221002
C   C66       1.0  0.29790  0.39410  0.87950  1.0000 0.0608221002
C   C67       1.0  0.35200  0.14540  0.47300  1.0000 -0.1571386877
C   C68       1.0  0.14540  0.47300  0.35200  1.0000 -0.1571386877
C   C69       1.0  0.47300  0.35200  0.14540  1.0000 -0.1571386877
C   C70       1.0  0.85460  0.64800  0.52700  1.0000 -0.1571386877
C   C71       1.0  0.52700  0.85460  0.64800  1.0000 -0.1571386877
C   C72       1.0  0.64800  0.52700  0.85460  1.0000 -0.1571386877
N   N1        1.0  0.72840  0.11620  0.51670  1.0000 -0.244604416
N   N2        1.0  0.11620  0.51670  0.72840  1.0000 -0.244604416
N   N3        1.0  0.51670  0.72840  0.11620  1.0000 -0.244604416
N   N4        1.0  0.88380  0.27160  0.48330  1.0000 -0.244604416
N   N5        1.0  0.48330  0.88380  0.27160  1.0000 -0.244604416
N   N6        1.0  0.27160  0.48330  0.88380  1.0000 -0.244604416
N   N7        1.0  0.04160  0.12890  0.48910  1.0000 -0.2273248341
N   N8        1.0  0.12890  0.48910  0.04160  1.0000 -0.2273248341
N   N9        1.0  0.48910  0.04160  0.12890  1.0000 -0.2273248341
N   N10       1.0  0.87110  0.95840  0.51090  1.0000 -0.2273248341
N   N11       1.0  0.51090  0.87110  0.95840  1.0000 -0.2273248341
N   N12       1.0  0.95840  0.51090  0.87110  1.0000 -0.2273248341
O   O1        1.0  0.83172  0.06181  0.34240  1.0000 -0.8581518554
O   O2        1.0  0.06181  0.34240  0.83172  1.0000 -0.8581518554
O   O3        1.0  0.34240  0.83172  0.06181  1.0000 -0.8581518554
O   O4        1.0  0.93819  0.16828  0.65760  1.0000 -0.8581518554
O   O5        1.0  0.65760  0.93819  0.16828  1.0000 -0.8581518554
O   O6        1.0  0.16828  0.65760  0.93819  1.0000 -0.8581518554
