# DDEC6 charges by PACMAN v1.1 (https://github.com/mtap-research/PACMAN-charge/)
data_2013[Co][pcu]3[ASR]1
_chemical_formula_sum              "Co24 H80 C160 O88"
_cell_length_a       10.806
_cell_length_b       28.554
_cell_length_c       24.329
_cell_angle_alpha    90
_cell_angle_beta     93.658
_cell_angle_gamma    90

_symmetry_space_group_name_H-M    "P 1"
_symmetry_Int_Tables_number       1

loop_
  _symmetry_equiv_pos_as_xyz
  'x, y, z'

loop_
  _atom_site_type_symbol
  _atom_site_label
  _atom_site_symmetry_multiplicity
  _atom_site_fract_x
  _atom_site_fract_y
  _atom_site_fract_z
  _atom_site_occupancy
  _atom_site_charge
Co  Co1       1.0  0.43782  0.54508  0.53438  1.0000 1.0857876596
Co  Co2       1.0  0.56218  0.04508  0.96562  1.0000 1.0857876596
Co  Co3       1.0  0.56218  0.45492  0.46562  1.0000 1.0857876596
Co  Co4       1.0  0.43782  0.95492  0.03438  1.0000 1.0857876596
Co  Co5       1.0  0.42827  0.95483  0.46651  1.0000 1.0764296112
Co  Co6       1.0  0.57173  0.45483  0.03349  1.0000 1.0764296112
Co  Co7       1.0  0.57173  0.04517  0.53349  1.0000 1.0764296112
Co  Co8       1.0  0.42827  0.54517  0.96651  1.0000 1.0764296112
Co  Co9       1.0  0.55845  0.58935  0.41985  1.0000 0.9877000956
Co  Co10      1.0  0.44155  0.08935  0.08015  1.0000 0.9877000956
Co  Co11      1.0  0.44155  0.41065  0.58015  1.0000 0.9877000956
Co  Co12      1.0  0.55845  0.91065  0.91985  1.0000 0.9877000956
Co  Co13      1.0  0.58070  0.91130  0.58219  1.0000 0.9877000956
Co  Co14      1.0  0.41930  0.41130  0.91781  1.0000 0.9877000956
Co  Co15      1.0  0.41930  0.08870  0.41781  1.0000 0.9877000956
Co  Co16      1.0  0.58070  0.58870  0.08219  1.0000 0.9877000956
Co  Co17      1.0  0.29020  0.63391  0.46327  1.0000 1.0739420262
Co  Co18      1.0  0.70980  0.13391  0.03673  1.0000 1.0739420262
Co  Co19      1.0  0.70980  0.36609  0.53673  1.0000 1.0739420262
Co  Co20      1.0  0.29020  0.86609  0.96327  1.0000 1.0739420262
Co  Co21      1.0  0.30214  0.86551  0.53656  1.0000 1.0739420262
Co  Co22      1.0  0.69786  0.36551  0.96344  1.0000 1.0739420262
Co  Co23      1.0  0.69786  0.13449  0.46344  1.0000 1.0739420262
Co  Co24      1.0  0.30214  0.63449  0.03656  1.0000 1.0739420262
H   H1        1.0  0.63130  0.85610  0.36480  1.0000 0.1280670542
H   H2        1.0  0.36870  0.35610  0.13520  1.0000 0.1280670542
H   H3        1.0  0.36870  0.14390  0.63520  1.0000 0.1280670542
H   H4        1.0  0.63130  0.64390  0.86480  1.0000 0.1280670542
H   H5        1.0  0.73440  0.79480  0.32960  1.0000 0.1280670542
H   H6        1.0  0.26560  0.29480  0.17040  1.0000 0.1280670542
H   H7        1.0  0.26560  0.20520  0.67040  1.0000 0.1280670542
H   H8        1.0  0.73440  0.70520  0.82960  1.0000 0.1280670542
H   H9        1.0  0.68140  0.72010  0.34820  1.0000 0.1280670542
H   H10       1.0  0.31860  0.22010  0.15180  1.0000 0.1280670542
H   H11       1.0  0.31860  0.27990  0.65180  1.0000 0.1280670542
H   H12       1.0  0.68140  0.77990  0.84820  1.0000 0.1280670542
H   H13       1.0  0.65810  0.64310  0.64260  1.0000 0.1280670542
H   H14       1.0  0.34190  0.14310  0.85740  1.0000 0.1280670542
H   H15       1.0  0.34190  0.35690  0.35740  1.0000 0.1280670542
H   H16       1.0  0.65810  0.85690  0.14260  1.0000 0.1280670542
H   H17       1.0  0.76300  0.70440  0.68250  1.0000 0.1187369118
H   H18       1.0  0.23700  0.20440  0.81750  1.0000 0.1187369118
H   H19       1.0  0.23700  0.29560  0.31750  1.0000 0.1187369118
H   H20       1.0  0.76300  0.79560  0.18250  1.0000 0.1187369118
H   H21       1.0  0.71820  0.78100  0.65580  1.0000 0.1280670542
H   H22       1.0  0.28180  0.28100  0.84420  1.0000 0.1187369118
H   H23       1.0  0.28180  0.21900  0.34420  1.0000 0.1280670542
H   H24       1.0  0.71820  0.71900  0.15580  1.0000 0.1280670542
H   H25       1.0  0.43870  0.73480  0.55740  1.0000 0.1371224375
H   H26       1.0  0.56130  0.23480  0.94260  1.0000 0.1371224375
H   H27       1.0  0.56130  0.26520  0.44260  1.0000 0.1371224375
H   H28       1.0  0.43870  0.76520  0.05740  1.0000 0.1371224375
H   H29       1.0  0.94050  0.92530  0.51020  1.0000 0.1280670542
H   H30       1.0  0.05950  0.42530  0.98980  1.0000 0.1280670542
H   H31       1.0  0.05950  0.07470  0.48980  1.0000 0.1280670542
H   H32       1.0  0.94050  0.57470  0.01020  1.0000 0.1280670542
H   H33       1.0  0.08500  0.98860  0.38290  1.0000 0.1280670542
H   H34       1.0  0.91500  0.48860  0.11710  1.0000 0.1280670542
H   H35       1.0  0.91500  0.01140  0.61710  1.0000 0.1280670542
H   H36       1.0  0.08500  0.51140  0.88290  1.0000 0.1280670542
H   H37       1.0  0.88130  0.01270  0.35220  1.0000 0.1187369118
H   H38       1.0  0.11870  0.51270  0.14780  1.0000 0.1187369118
H   H39       1.0  0.11870  0.98730  0.64780  1.0000 0.1187369118
H   H40       1.0  0.88130  0.48730  0.85220  1.0000 0.1187369118
H   H41       1.0  0.71420  0.99400  0.39860  1.0000 0.1280670542
H   H42       1.0  0.28580  0.49400  0.10140  1.0000 0.1280670542
H   H43       1.0  0.28580  0.00600  0.60140  1.0000 0.1280670542
H   H44       1.0  0.71420  0.50600  0.89860  1.0000 0.1280670542
H   H45       1.0  0.48460  0.92310  0.33300  1.0000 0.1187369118
H   H46       1.0  0.51540  0.42310  0.16700  1.0000 0.1187369118
H   H47       1.0  0.51540  0.07690  0.66700  1.0000 0.1187369118
H   H48       1.0  0.48460  0.57690  0.83300  1.0000 0.1187369118
H   H49       1.0  0.47240  0.88230  0.24880  1.0000 0.1147227345
H   H50       1.0  0.52760  0.38230  0.25120  1.0000 0.1147227345
H   H51       1.0  0.52760  0.11770  0.75120  1.0000 0.1147227345
H   H52       1.0  0.47240  0.61770  0.74880  1.0000 0.1147227345
H   H53       1.0  0.52800  0.92790  0.17110  1.0000 0.1187369118
H   H54       1.0  0.47200  0.42790  0.32890  1.0000 0.1187369118
H   H55       1.0  0.47200  0.07210  0.82890  1.0000 0.1187369118
H   H56       1.0  0.52800  0.57210  0.67110  1.0000 0.1187369118
H   H57       1.0  0.42900  0.04270  0.24880  1.0000 0.1371224375
H   H58       1.0  0.57100  0.54270  0.25120  1.0000 0.1371224375
H   H59       1.0  0.57100  0.95730  0.75120  1.0000 0.1371224375
H   H60       1.0  0.42900  0.45730  0.74880  1.0000 0.1371224375
H   H61       1.0  0.41650  0.76540  0.44080  1.0000 0.1371224375
H   H62       1.0  0.58350  0.26540  0.05920  1.0000 0.1371224375
H   H63       1.0  0.58350  0.23460  0.55920  1.0000 0.1371224375
H   H64       1.0  0.41650  0.73460  0.94080  1.0000 0.1371224375
H   H65       1.0  0.12210  0.50890  0.61590  1.0000 0.1187369118
H   H66       1.0  0.87790  0.00890  0.88410  1.0000 0.1187369118
H   H67       1.0  0.87790  0.49110  0.38410  1.0000 0.1187369118
H   H68       1.0  0.12210  0.99110  0.11590  1.0000 0.1187369118
H   H69       1.0  0.92760  0.48620  0.64750  1.0000 0.1187369118
H   H70       1.0  0.07240  0.98620  0.85250  1.0000 0.1187369118
H   H71       1.0  0.07240  0.51380  0.35250  1.0000 0.1187369118
H   H72       1.0  0.92760  0.01380  0.14750  1.0000 0.1187369118
H   H73       1.0  0.74360  0.50290  0.60070  1.0000 0.1371224375
H   H74       1.0  0.25640  0.00290  0.89930  1.0000 0.1371224375
H   H75       1.0  0.25640  0.49710  0.39930  1.0000 0.1371224375
H   H76       1.0  0.74360  0.99710  0.10070  1.0000 0.1371224375
H   H77       1.0  0.93290  0.57560  0.49180  1.0000 0.1280670542
H   H78       1.0  0.06710  0.07560  0.00820  1.0000 0.1280670542
H   H79       1.0  0.06710  0.42440  0.50820  1.0000 0.1280670542
H   H80       1.0  0.93290  0.92440  0.99180  1.0000 0.1280670542
C   C1        1.0  0.45180  0.85700  0.43610  1.0000 0.5910456685
C   C2        1.0  0.54820  0.35700  0.06390  1.0000 0.5910456685
C   C3        1.0  0.54820  0.14300  0.56390  1.0000 0.5910456685
C   C4        1.0  0.45180  0.64300  0.93610  1.0000 0.5910456685
C   C5        1.0  0.51670  0.81780  0.40930  1.0000 -0.0198380757
C   C6        1.0  0.48330  0.31780  0.09070  1.0000 -0.0198380757
C   C7        1.0  0.48330  0.18220  0.59070  1.0000 -0.0198380757
C   C8        1.0  0.51670  0.68220  0.90930  1.0000 -0.0198380757
C   C9        1.0  0.60990  0.82560  0.37380  1.0000 -0.1001184726
C   C10       1.0  0.39010  0.32560  0.12620  1.0000 -0.1001184726
C   C11       1.0  0.39010  0.17440  0.62620  1.0000 -0.1001184726
C   C12       1.0  0.60990  0.67440  0.87380  1.0000 -0.1001184726
C   C13       1.0  0.66990  0.78920  0.35220  1.0000 -0.1001184726
C   C14       1.0  0.33010  0.28920  0.14780  1.0000 -0.1001184726
C   C15       1.0  0.33010  0.21080  0.64780  1.0000 -0.1001184726
C   C16       1.0  0.66990  0.71080  0.85220  1.0000 -0.1001184726
C   C17       1.0  0.63780  0.74460  0.36300  1.0000 -0.1001184726
C   C18       1.0  0.36220  0.24460  0.13700  1.0000 -0.1001184726
C   C19       1.0  0.36220  0.25540  0.63700  1.0000 -0.1001184726
C   C20       1.0  0.63780  0.75540  0.86300  1.0000 -0.1001184726
C   C21       1.0  0.54290  0.73500  0.39520  1.0000 -0.0361849214
C   C22       1.0  0.45710  0.23500  0.10480  1.0000 -0.0361849214
C   C23       1.0  0.45710  0.26500  0.60480  1.0000 -0.0361849214
C   C24       1.0  0.54290  0.76500  0.89520  1.0000 -0.0361849214
C   C25       1.0  0.50540  0.68650  0.40720  1.0000 0.5910456685
C   C26       1.0  0.49460  0.18650  0.09280  1.0000 0.5910456685
C   C27       1.0  0.49460  0.31350  0.59280  1.0000 0.5910456685
C   C28       1.0  0.50540  0.81350  0.90720  1.0000 0.5910456685
C   C29       1.0  0.47180  0.64350  0.56350  1.0000 0.5801141245
C   C30       1.0  0.52820  0.14350  0.93650  1.0000 0.5801141245
C   C31       1.0  0.52820  0.35650  0.43650  1.0000 0.5801141245
C   C32       1.0  0.47180  0.85650  0.06350  1.0000 0.5801141245
C   C33       1.0  0.54300  0.68160  0.59220  1.0000 -0.0303407157
C   C34       1.0  0.45700  0.18160  0.90780  1.0000 -0.0303407157
C   C35       1.0  0.45700  0.31840  0.40780  1.0000 -0.0303407157
C   C36       1.0  0.54300  0.81840  0.09220  1.0000 -0.0303407157
C   C37       1.0  0.63740  0.67360  0.63220  1.0000 -0.0899123862
C   C38       1.0  0.36260  0.17360  0.86780  1.0000 -0.0899123862
C   C39       1.0  0.36260  0.32640  0.36780  1.0000 -0.0899123862
C   C40       1.0  0.63740  0.82640  0.13220  1.0000 -0.0899123862
C   C41       1.0  0.69920  0.71010  0.65590  1.0000 -0.1001184726
C   C42       1.0  0.30080  0.21010  0.84410  1.0000 -0.1001184726
C   C43       1.0  0.30080  0.28990  0.34410  1.0000 -0.1001184726
C   C44       1.0  0.69920  0.78990  0.15590  1.0000 -0.1001184726
C   C45       1.0  0.66970  0.75650  0.64130  1.0000 -0.0899123862
C   C46       1.0  0.33030  0.25650  0.85870  1.0000 -0.0899123862
C   C47       1.0  0.33030  0.24350  0.35870  1.0000 -0.0899123862
C   C48       1.0  0.66970  0.74350  0.14130  1.0000 -0.0899123862
C   C49       1.0  0.57290  0.76550  0.60680  1.0000 -0.0455185583
C   C50       1.0  0.42710  0.26550  0.89320  1.0000 -0.0455185583
C   C51       1.0  0.42710  0.23450  0.39320  1.0000 -0.0455185583
C   C52       1.0  0.57290  0.73450  0.10680  1.0000 -0.0455185583
C   C53       1.0  0.53640  0.81370  0.59170  1.0000 0.5910456685
C   C54       1.0  0.46360  0.31370  0.90830  1.0000 0.5910456685
C   C55       1.0  0.46360  0.18630  0.40830  1.0000 0.5910456685
C   C56       1.0  0.53640  0.68630  0.09170  1.0000 0.5910456685
C   C57       1.0  0.50700  0.72860  0.58150  1.0000 -0.0899123862
C   C58       1.0  0.49300  0.22860  0.91850  1.0000 -0.0899123862
C   C59       1.0  0.49300  0.27140  0.41850  1.0000 -0.0899123862
C   C60       1.0  0.50700  0.77140  0.08150  1.0000 -0.0899123862
C   C61       1.0  0.70690  0.95250  0.49590  1.0000 0.5717177448
C   C62       1.0  0.29310  0.45250  0.00410  1.0000 0.5717177448
C   C63       1.0  0.29310  0.04750  0.50410  1.0000 0.5717177448
C   C64       1.0  0.70690  0.54750  0.99590  1.0000 0.5717177448
C   C65       1.0  0.80910  0.96020  0.46370  1.0000 -0.0806777895
C   C66       1.0  0.19090  0.46020  0.03630  1.0000 -0.0806777895
C   C67       1.0  0.19090  0.03980  0.53630  1.0000 -0.0806777895
C   C68       1.0  0.80910  0.53980  0.96370  1.0000 -0.0806777895
C   C69       1.0  0.92840  0.94340  0.47850  1.0000 -0.0899123862
C   C70       1.0  0.07160  0.44340  0.02150  1.0000 -0.0899123862
C   C71       1.0  0.07160  0.05660  0.52150  1.0000 -0.0899123862
C   C72       1.0  0.92840  0.55660  0.97850  1.0000 -0.0899123862
C   C73       1.0  0.02720  0.95250  0.44830  1.0000 -0.0361849214
C   C74       1.0  0.97280  0.45250  0.05170  1.0000 -0.0361849214
C   C75       1.0  0.97280  0.04750  0.55170  1.0000 -0.0361849214
C   C76       1.0  0.02720  0.54750  0.94830  1.0000 -0.0361849214
C   C77       1.0  0.01640  0.98020  0.40180  1.0000 -0.0806777895
C   C78       1.0  0.98360  0.48020  0.09820  1.0000 -0.0806777895
C   C79       1.0  0.98360  0.01980  0.59820  1.0000 -0.0806777895
C   C80       1.0  0.01640  0.51980  0.90180  1.0000 -0.0806777895
C   C81       1.0  0.89260  0.99520  0.38430  1.0000 -0.1001184726
C   C82       1.0  0.10740  0.49520  0.11570  1.0000 -0.1001184726
C   C83       1.0  0.10740  0.00480  0.61570  1.0000 -0.1001184726
C   C84       1.0  0.89260  0.50480  0.88430  1.0000 -0.1001184726
C   C85       1.0  0.79300  0.98500  0.41230  1.0000 -0.0728128334
C   C86       1.0  0.20700  0.48500  0.08770  1.0000 -0.0728128334
C   C87       1.0  0.20700  0.01500  0.58770  1.0000 -0.0728128334
C   C88       1.0  0.79300  0.51500  0.91230  1.0000 -0.0728128334
C   C89       1.0  0.43420  0.01300  0.35130  1.0000 0.5801141245
C   C90       1.0  0.56580  0.51300  0.14870  1.0000 0.5801141245
C   C91       1.0  0.56580  0.98700  0.64870  1.0000 0.5801141245
C   C92       1.0  0.43420  0.48700  0.85130  1.0000 0.5801141245
C   C93       1.0  0.44590  0.98660  0.29920  1.0000 -0.0198380757
C   C94       1.0  0.55410  0.48660  0.20080  1.0000 -0.0198380757
C   C95       1.0  0.55410  0.01340  0.70080  1.0000 -0.0198380757
C   C96       1.0  0.44590  0.51340  0.79920  1.0000 -0.0198380757
C   C97       1.0  0.47200  0.93880  0.29970  1.0000 -0.0899123862
C   C98       1.0  0.52800  0.43880  0.20030  1.0000 -0.0899123862
C   C99       1.0  0.52800  0.06120  0.70030  1.0000 -0.0899123862
C   C100      1.0  0.47200  0.56120  0.79970  1.0000 -0.0899123862
C   C101      1.0  0.47840  0.91480  0.25020  1.0000 -0.1001184726
C   C102      1.0  0.52160  0.41480  0.24980  1.0000 -0.1001184726
C   C103      1.0  0.52160  0.08520  0.74980  1.0000 -0.1001184726
C   C104      1.0  0.47840  0.58520  0.75020  1.0000 -0.1001184726
C   C105      1.0  0.49470  0.94160  0.20150  1.0000 -0.0899123862
C   C106      1.0  0.50530  0.44160  0.29850  1.0000 -0.0899123862
C   C107      1.0  0.50530  0.05840  0.79850  1.0000 -0.0899123862
C   C108      1.0  0.49470  0.55840  0.70150  1.0000 -0.0899123862
C   C109      1.0  0.46090  0.98780  0.20020  1.0000 -0.0361849214
C   C110      1.0  0.53910  0.48780  0.29980  1.0000 -0.0361849214
C   C111      1.0  0.53910  0.01220  0.79980  1.0000 -0.0361849214
C   C112      1.0  0.46090  0.51220  0.70020  1.0000 -0.0361849214
C   C113      1.0  0.46200  0.01410  0.14800  1.0000 0.5910456685
C   C114      1.0  0.53800  0.51410  0.35200  1.0000 0.5910456685
C   C115      1.0  0.53800  0.98590  0.85200  1.0000 0.5910456685
C   C116      1.0  0.46200  0.48590  0.64800  1.0000 0.5910456685
C   C117      1.0  0.44310  0.01060  0.24920  1.0000 -0.1001184726
C   C118      1.0  0.55690  0.51060  0.25080  1.0000 -0.1001184726
C   C119      1.0  0.55690  0.98940  0.75080  1.0000 -0.1001184726
C   C120      1.0  0.44310  0.48940  0.74920  1.0000 -0.1001184726
C   C121      1.0  0.48160  0.77160  0.41870  1.0000 -0.0899123862
C   C122      1.0  0.51840  0.27160  0.08130  1.0000 -0.0899123862
C   C123      1.0  0.51840  0.22840  0.58130  1.0000 -0.0899123862
C   C124      1.0  0.48160  0.72840  0.91870  1.0000 -0.0899123862
C   C125      1.0  0.04780  0.54660  0.55180  1.0000 -0.1001184726
C   C126      1.0  0.95220  0.04660  0.94820  1.0000 -0.1001184726
C   C127      1.0  0.95220  0.45340  0.44820  1.0000 -0.1001184726
C   C128      1.0  0.04780  0.95340  0.05180  1.0000 -0.1001184726
C   C129      1.0  0.16330  0.55840  0.53280  1.0000 0.5525009391
C   C130      1.0  0.83670  0.05840  0.96720  1.0000 0.5525009391
C   C131      1.0  0.83670  0.44160  0.46720  1.0000 0.5525009391
C   C132      1.0  0.16330  0.94160  0.03280  1.0000 0.5525009391
C   C133      1.0  0.04840  0.51820  0.59730  1.0000 -0.0582092142
C   C134      1.0  0.95160  0.01820  0.90270  1.0000 -0.0582092142
C   C135      1.0  0.95160  0.48180  0.40270  1.0000 -0.0582092142
C   C136      1.0  0.04840  0.98180  0.09730  1.0000 -0.0582092142
C   C137      1.0  0.92860  0.50340  0.61510  1.0000 -0.1001184726
C   C138      1.0  0.07140  0.00340  0.88490  1.0000 -0.1001184726
C   C139      1.0  0.07140  0.49660  0.38490  1.0000 -0.1001184726
C   C140      1.0  0.92860  0.99660  0.11510  1.0000 -0.1001184726
C   C141      1.0  0.81840  0.51280  0.58780  1.0000 -0.0728128334
C   C142      1.0  0.18160  0.01280  0.91220  1.0000 -0.0728128334
C   C143      1.0  0.18160  0.48720  0.41220  1.0000 -0.0728128334
C   C144      1.0  0.81840  0.98720  0.08780  1.0000 -0.0728128334
C   C145      1.0  0.93300  0.55640  0.52270  1.0000 -0.0728128334
C   C146      1.0  0.06700  0.05640  0.97730  1.0000 -0.0728128334
C   C147      1.0  0.06700  0.44360  0.47730  1.0000 -0.0728128334
C   C148      1.0  0.93300  0.94360  0.02270  1.0000 -0.0728128334
C   C149      1.0  0.70830  0.54710  0.50540  1.0000 0.5910456685
C   C150      1.0  0.29170  0.04710  0.99460  1.0000 0.5910456685
C   C151      1.0  0.29170  0.45290  0.49460  1.0000 0.5910456685
C   C152      1.0  0.70830  0.95290  0.00540  1.0000 0.5910456685
C   C153      1.0  0.15730  0.93870  0.46770  1.0000 0.5910456685
C   C154      1.0  0.84270  0.43870  0.03230  1.0000 0.5910456685
C   C155      1.0  0.84270  0.06130  0.53230  1.0000 0.5910456685
C   C156      1.0  0.15730  0.56130  0.96770  1.0000 0.5910456685
C   C157      1.0  0.82370  0.53910  0.53770  1.0000 -0.0582092142
C   C158      1.0  0.17630  0.03910  0.96230  1.0000 -0.0582092142
C   C159      1.0  0.17630  0.46090  0.46230  1.0000 -0.0582092142
C   C160      1.0  0.82370  0.96090  0.03770  1.0000 -0.0582092142
O   O1        1.0  0.45200  0.99240  0.39400  1.0000 -0.4902048538
O   O2        1.0  0.54800  0.49240  0.10600  1.0000 -0.4902048538
O   O3        1.0  0.54800  0.00760  0.60600  1.0000 -0.4902048538
O   O4        1.0  0.45200  0.50760  0.89400  1.0000 -0.4902048538
O   O5        1.0  0.24760  0.95210  0.44570  1.0000 -0.4902048538
O   O6        1.0  0.75240  0.45210  0.05430  1.0000 -0.4902048538
O   O7        1.0  0.75240  0.04790  0.55430  1.0000 -0.4902048538
O   O8        1.0  0.24760  0.54790  0.94570  1.0000 -0.4902048538
O   O9        1.0  0.48160  0.99360  0.10500  1.0000 -0.5122549278
O   O10       1.0  0.51840  0.49360  0.39500  1.0000 -0.5122549278
O   O11       1.0  0.51840  0.00640  0.89500  1.0000 -0.5122549278
O   O12       1.0  0.48160  0.50640  0.60500  1.0000 -0.5122549278
O   O13       1.0  0.71610  0.92320  0.53510  1.0000 -0.5205887052
O   O14       1.0  0.28390  0.42320  0.96490  1.0000 -0.5205887052
O   O15       1.0  0.28390  0.07680  0.46490  1.0000 -0.5205887052
O   O16       1.0  0.71610  0.57680  0.03510  1.0000 -0.5205887052
O   O17       1.0  0.61060  0.97860  0.48870  1.0000 -0.5798220511
O   O18       1.0  0.38940  0.47860  0.01130  1.0000 -0.5798220511
O   O19       1.0  0.38940  0.02140  0.51130  1.0000 -0.5798220511
O   O20       1.0  0.61060  0.52140  0.98870  1.0000 -0.5798220511
O   O21       1.0  0.49900  0.89700  0.43370  1.0000 -0.5377783271
O   O22       1.0  0.50100  0.39700  0.06630  1.0000 -0.5377783271
O   O23       1.0  0.50100  0.10300  0.56630  1.0000 -0.5377783271
O   O24       1.0  0.49900  0.60300  0.93370  1.0000 -0.5377783271
O   O25       1.0  0.36050  0.84660  0.45960  1.0000 -0.5205887052
O   O26       1.0  0.63950  0.34660  0.04040  1.0000 -0.5205887052
O   O27       1.0  0.63950  0.15340  0.54040  1.0000 -0.5205887052
O   O28       1.0  0.36050  0.65340  0.95960  1.0000 -0.5205887052
O   O29       1.0  0.43280  0.81850  0.56720  1.0000 -0.5695450249
O   O30       1.0  0.56720  0.31850  0.93280  1.0000 -0.5695450249
O   O31       1.0  0.56720  0.18150  0.43280  1.0000 -0.5695450249
O   O32       1.0  0.43280  0.68150  0.06720  1.0000 -0.5695450249
O   O33       1.0  0.60590  0.84590  0.60380  1.0000 -0.4806138331
O   O34       1.0  0.39410  0.34590  0.89620  1.0000 -0.4806138331
O   O35       1.0  0.39410  0.15410  0.39620  1.0000 -0.4806138331
O   O36       1.0  0.60590  0.65410  0.10380  1.0000 -0.4806138331
O   O37       1.0  0.51700  0.60290  0.56830  1.0000 -0.5377783271
O   O38       1.0  0.48300  0.10290  0.93170  1.0000 -0.5377783271
O   O39       1.0  0.48300  0.39710  0.43170  1.0000 -0.5377783271
O   O40       1.0  0.51700  0.89710  0.06830  1.0000 -0.5377783271
O   O41       1.0  0.37790  0.65390  0.53860  1.0000 -0.4995815026
O   O42       1.0  0.62210  0.15390  0.96140  1.0000 -0.4995815026
O   O43       1.0  0.62210  0.34610  0.46140  1.0000 -0.4995815026
O   O44       1.0  0.37790  0.84610  0.03860  1.0000 -0.4995815026
O   O45       1.0  0.26340  0.54740  0.55620  1.0000 -0.5122549278
O   O46       1.0  0.73660  0.04740  0.94380  1.0000 -0.5122549278
O   O47       1.0  0.73660  0.45260  0.44380  1.0000 -0.5122549278
O   O48       1.0  0.26340  0.95260  0.05620  1.0000 -0.5122549278
O   O49       1.0  0.15820  0.59230  0.49340  1.0000 -0.5936973932
O   O50       1.0  0.84180  0.09230  0.00660  1.0000 -0.5936973932
O   O51       1.0  0.84180  0.40770  0.50660  1.0000 -0.5951269212
O   O52       1.0  0.15820  0.90770  0.99340  1.0000 -0.5951269212
O   O53       1.0  0.40420  0.68110  0.42850  1.0000 -0.5798220511
O   O54       1.0  0.59580  0.18110  0.07150  1.0000 -0.5798220511
O   O55       1.0  0.59580  0.31890  0.57150  1.0000 -0.5798220511
O   O56       1.0  0.40420  0.81890  0.92850  1.0000 -0.5798220511
O   O57       1.0  0.57810  0.65550  0.40040  1.0000 -0.4806138331
O   O58       1.0  0.42190  0.15550  0.09960  1.0000 -0.4806138331
O   O59       1.0  0.42190  0.34450  0.59960  1.0000 -0.4806138331
O   O60       1.0  0.57810  0.84450  0.90040  1.0000 -0.4806138331
O   O61       1.0  0.61460  0.52110  0.51250  1.0000 -0.5695450249
O   O62       1.0  0.38540  0.02110  0.98750  1.0000 -0.5695450249
O   O63       1.0  0.38540  0.47890  0.48750  1.0000 -0.5695450249
O   O64       1.0  0.61460  0.97890  0.01250  1.0000 -0.5798220511
O   O65       1.0  0.70770  0.57830  0.46720  1.0000 -0.5337423327
O   O66       1.0  0.29230  0.07830  0.03280  1.0000 -0.5337423327
O   O67       1.0  0.29230  0.42170  0.53280  1.0000 -0.5337423327
O   O68       1.0  0.70770  0.92170  0.96720  1.0000 -0.5337423327
O   O69       1.0  0.43920  0.05690  0.15140  1.0000 -0.5122549278
O   O70       1.0  0.56080  0.55690  0.34860  1.0000 -0.5122549278
O   O71       1.0  0.56080  0.94310  0.84860  1.0000 -0.5122549278
O   O72       1.0  0.43920  0.44310  0.65140  1.0000 -0.5122549278
O   O73       1.0  0.40840  0.57660  0.45760  1.0000 -0.8815740289
O   O74       1.0  0.59160  0.07660  0.04240  1.0000 -0.8863920512
O   O75       1.0  0.59160  0.42340  0.54240  1.0000 -0.8815740289
O   O76       1.0  0.40840  0.92340  0.95760  1.0000 -0.8815740289
O   O77       1.0  0.41860  0.92370  0.54330  1.0000 -0.8701314571
O   O78       1.0  0.58140  0.42370  0.95670  1.0000 -0.8701314571
O   O79       1.0  0.58140  0.07630  0.45670  1.0000 -0.8701314571
O   O80       1.0  0.41860  0.57630  0.04330  1.0000 -0.8701314571
O   O81       1.0  0.40660  0.05580  0.34660  1.0000 -0.5205887052
O   O82       1.0  0.59340  0.55580  0.15340  1.0000 -0.5205887052
O   O83       1.0  0.59340  0.94420  0.65340  1.0000 -0.5205887052
O   O84       1.0  0.40660  0.44420  0.84660  1.0000 -0.5205887052
O   O85       1.0  0.16120  0.90710  0.50840  1.0000 -0.5936973932
O   O86       1.0  0.83880  0.40710  0.99160  1.0000 -0.5936973932
O   O87       1.0  0.83880  0.09290  0.49160  1.0000 -0.5936973932
O   O88       1.0  0.16120  0.59290  0.00840  1.0000 -0.5936973932
