# DDEC6 charges by PACMAN v1.1 (https://github.com/mtap-research/PACMAN-charge/)
data_2013[Eu][xww]3[ASR]1
_chemical_formula_sum              "Eu4 H8 C28 O28"
_cell_length_a       7.3165
_cell_length_b       9.7247
_cell_length_c       15.2732
_cell_angle_alpha    90
_cell_angle_beta     108.081
_cell_angle_gamma    90

_symmetry_space_group_name_H-M    "P 1"
_symmetry_Int_Tables_number       1

loop_
  _symmetry_equiv_pos_as_xyz
  'x, y, z'

loop_
  _atom_site_type_symbol
  _atom_site_label
  _atom_site_symmetry_multiplicity
  _atom_site_fract_x
  _atom_site_fract_y
  _atom_site_fract_z
  _atom_site_occupancy
  _atom_site_charge
Eu  Eu1       1.0  0.27578  0.05425  0.14359  1.0000 2.1236332315
Eu  Eu2       1.0  0.72422  0.55425  0.35641  1.0000 2.1236332315
Eu  Eu3       1.0  0.72422  0.94575  0.85641  1.0000 2.1236332315
Eu  Eu4       1.0  0.27578  0.44575  0.64359  1.0000 2.1236332315
H   H1        1.0  0.72350  0.83100  0.54720  1.0000 0.1472062725
H   H2        1.0  0.27650  0.33100  0.95280  1.0000 0.1472062725
H   H3        1.0  0.27650  0.16900  0.45280  1.0000 0.1472062725
H   H4        1.0  0.72350  0.66900  0.04720  1.0000 0.1472062725
H   H5        1.0  0.90300  0.04600  0.62700  1.0000 0.1419955674
H   H6        1.0  0.09700  0.54600  0.87300  1.0000 0.1419955674
H   H7        1.0  0.09700  0.95400  0.37300  1.0000 0.1419955674
H   H8        1.0  0.90300  0.45400  0.12700  1.0000 0.1419955674
C   C1        1.0  0.53253  0.87420  0.34873  1.0000 0.6213017362
C   C2        1.0  0.46747  0.37420  0.15127  1.0000 0.6213017362
C   C3        1.0  0.46747  0.12580  0.65127  1.0000 0.6213017362
C   C4        1.0  0.53253  0.62580  0.84873  1.0000 0.6213017362
C   C5        1.0  0.65345  0.95087  0.42915  1.0000 0.0629096772
C   C6        1.0  0.34655  0.45087  0.07085  1.0000 0.0629096772
C   C7        1.0  0.34655  0.04913  0.57085  1.0000 0.0629096772
C   C8        1.0  0.65345  0.54913  0.92915  1.0000 0.0629096772
C   C9        1.0  0.73289  0.91690  0.51929  1.0000 -0.1757593234
C   C10       1.0  0.26711  0.41690  0.98071  1.0000 -0.1757593234
C   C11       1.0  0.26711  0.08310  0.48071  1.0000 -0.1757593234
C   C12       1.0  0.73289  0.58310  0.01929  1.0000 -0.1757593234
C   C13       1.0  0.83313  0.03620  0.56353  1.0000 -0.1697565768
C   C14       1.0  0.16687  0.53620  0.93647  1.0000 -0.1697565768
C   C15       1.0  0.16687  0.96380  0.43647  1.0000 -0.1697565768
C   C16       1.0  0.83313  0.46380  0.06353  1.0000 -0.1697565768
C   C17       1.0  0.80847  0.13290  0.49667  1.0000 0.0827864814
C   C18       1.0  0.19153  0.63290  0.00333  1.0000 0.0827864814
C   C19       1.0  0.19153  0.86710  0.50333  1.0000 0.0827864814
C   C20       1.0  0.80847  0.36710  0.99667  1.0000 0.0827864814
C   C21       1.0  0.88984  0.27230  0.49614  1.0000 0.6346602696
C   C22       1.0  0.11016  0.77230  0.00386  1.0000 0.6346602696
C   C23       1.0  0.11016  0.72770  0.50386  1.0000 0.6346602696
C   C24       1.0  0.88984  0.22770  0.99614  1.0000 0.6346602696
C   C25       1.0  0.58175  0.96499  0.03865  1.0000 0.4982556659
C   C26       1.0  0.41825  0.46499  0.46135  1.0000 0.4982556659
C   C27       1.0  0.41825  0.03501  0.96135  1.0000 0.4982556659
C   C28       1.0  0.58175  0.53501  0.53865  1.0000 0.4982556659
O   O1        1.0  0.45050  0.93858  0.27660  1.0000 -0.6659427284
O   O2        1.0  0.54950  0.43858  0.22340  1.0000 -0.6659427284
O   O3        1.0  0.54950  0.06142  0.72340  1.0000 -0.6659427284
O   O4        1.0  0.45050  0.56142  0.77660  1.0000 -0.6659427284
O   O5        1.0  0.51922  0.74472  0.35832  1.0000 -0.6813992721
O   O6        1.0  0.48078  0.24472  0.14168  1.0000 -0.6813992721
O   O7        1.0  0.48078  0.25528  0.64168  1.0000 -0.6813992721
O   O8        1.0  0.51922  0.75528  0.85832  1.0000 -0.6813992721
O   O9        1.0  0.69601  0.08357  0.41381  1.0000 -0.0904443902
O   O10       1.0  0.30399  0.58357  0.08619  1.0000 -0.0904443902
O   O11       1.0  0.30399  0.91643  0.58619  1.0000 -0.0904443902
O   O12       1.0  0.69601  0.41643  0.91381  1.0000 -0.0904443902
O   O13       1.0  0.83939  0.33764  0.42119  1.0000 -0.6659427284
O   O14       1.0  0.16061  0.83764  0.07881  1.0000 -0.6646383744
O   O15       1.0  0.16061  0.66236  0.57881  1.0000 -0.6659427284
O   O16       1.0  0.83939  0.16236  0.92119  1.0000 -0.6659427284
O   O17       1.0  0.00582  0.31277  0.57062  1.0000 -0.6813992721
O   O18       1.0  0.99418  0.81277  0.92938  1.0000 -0.6856375676
O   O19       1.0  0.99418  0.68723  0.42938  1.0000 -0.6856375676
O   O20       1.0  0.00582  0.18723  0.07062  1.0000 -0.6856375676
O   O21       1.0  0.55603  0.95086  0.11553  1.0000 -0.5738534373
O   O22       1.0  0.44397  0.45086  0.38447  1.0000 -0.5738534373
O   O23       1.0  0.44397  0.04914  0.88447  1.0000 -0.5738534373
O   O24       1.0  0.55603  0.54914  0.61553  1.0000 -0.5738534373
O   O25       1.0  0.72714  0.92742  0.01774  1.0000 -0.6053985399
O   O26       1.0  0.27286  0.42742  0.48226  1.0000 -0.6053985399
O   O27       1.0  0.27286  0.07258  0.98226  1.0000 -0.6053985399
O   O28       1.0  0.72714  0.57258  0.51774  1.0000 -0.6053985399
