# DDEC6 charges by PACMAN v1.1 (https://github.com/mtap-research/PACMAN-charge/)
data_2013[Ni][twt]3[ASR]1
_chemical_formula_sum              "Ni3 H18 C42 O18"
_cell_length_a       17.2139
_cell_length_b       17.2139
_cell_length_c       8.524
_cell_angle_alpha    90
_cell_angle_beta     90
_cell_angle_gamma    120

_symmetry_space_group_name_H-M    "P 1"
_symmetry_Int_Tables_number       1

loop_
  _symmetry_equiv_pos_as_xyz
  'x, y, z'

loop_
  _atom_site_type_symbol
  _atom_site_label
  _atom_site_symmetry_multiplicity
  _atom_site_fract_x
  _atom_site_fract_y
  _atom_site_fract_z
  _atom_site_occupancy
  _atom_site_charge
Ni  Ni1       1.0  0.52534  0.00000  0.33333  1.0000 1.0169020147
Ni  Ni2       1.0  0.00000  0.52534  0.66667  1.0000 1.0169020147
Ni  Ni3       1.0  0.47466  0.47466  0.00000  1.0000 1.0169020147
H   H1        1.0  0.76550  0.29910  0.66280  1.0000 0.1606607811
H   H2        1.0  0.70090  0.46640  0.99613  1.0000 0.1606607811
H   H3        1.0  0.53360  0.23450  0.32947  1.0000 0.1606607811
H   H4        1.0  0.46640  0.70090  0.00387  1.0000 0.1606607811
H   H5        1.0  0.23450  0.53360  0.67053  1.0000 0.1606607811
H   H6        1.0  0.29910  0.76550  0.33720  1.0000 0.1606607811
H   H7        1.0  0.80750  0.11400  0.45260  1.0000 0.1307119331
H   H8        1.0  0.88600  0.69350  0.78593  1.0000 0.1307119331
H   H9        1.0  0.30650  0.19250  0.11927  1.0000 0.1307119331
H   H10       1.0  0.69350  0.88600  0.21407  1.0000 0.1307119331
H   H11       1.0  0.19250  0.30650  0.88073  1.0000 0.1307119331
H   H12       1.0  0.11400  0.80750  0.54740  1.0000 0.1307119331
H   H13       1.0  0.95610  0.19210  0.53070  1.0000 0.1197325949
H   H14       1.0  0.80790  0.76400  0.86403  1.0000 0.1197325949
H   H15       1.0  0.23600  0.04390  0.19737  1.0000 0.1197325949
H   H16       1.0  0.76400  0.80790  0.13597  1.0000 0.1197325949
H   H17       1.0  0.04390  0.23600  0.80263  1.0000 0.1197325949
H   H18       1.0  0.19210  0.95610  0.46930  1.0000 0.1197325949
C   C1        1.0  0.77184  0.19918  0.54850  1.0000 0.0102837632
C   C2        1.0  0.80082  0.57266  0.88183  1.0000 0.0102837632
C   C3        1.0  0.42734  0.22816  0.21517  1.0000 0.0102837632
C   C4        1.0  0.57266  0.80082  0.11817  1.0000 0.0102837632
C   C5        1.0  0.22816  0.42734  0.78483  1.0000 0.0102837632
C   C6        1.0  0.19918  0.77184  0.45150  1.0000 0.0102837632
C   C7        1.0  0.80392  0.27782  0.63620  1.0000 -0.1469630623
C   C8        1.0  0.72218  0.52610  0.96953  1.0000 -0.1469630623
C   C9        1.0  0.47390  0.19608  0.30287  1.0000 -0.1469630623
C   C10       1.0  0.52610  0.72218  0.03047  1.0000 -0.1469630623
C   C11       1.0  0.19608  0.47390  0.69713  1.0000 -0.1469630623
C   C12       1.0  0.27782  0.80392  0.36380  1.0000 -0.1469630623
C   C13       1.0  0.95208  0.29400  0.64170  1.0000 0.0102837632
C   C14       1.0  0.70600  0.65808  0.97503  1.0000 0.0102837632
C   C15       1.0  0.34192  0.04792  0.30837  1.0000 0.0102837632
C   C16       1.0  0.65808  0.70600  0.02497  1.0000 0.0102837632
C   C17       1.0  0.04792  0.34192  0.69163  1.0000 0.0102837632
C   C18       1.0  0.29400  0.95208  0.35830  1.0000 0.0102837632
C   C19       1.0  0.82890  0.16683  0.50960  1.0000 -0.0888758164
C   C20       1.0  0.83317  0.66207  0.84293  1.0000 -0.0888758164
C   C21       1.0  0.33793  0.17110  0.17627  1.0000 -0.0888758164
C   C22       1.0  0.66207  0.83317  0.15707  1.0000 -0.0888758164
C   C23       1.0  0.17110  0.33793  0.82373  1.0000 -0.0888758164
C   C24       1.0  0.16683  0.82890  0.49040  1.0000 -0.0888758164
C   C25       1.0  0.89293  0.32433  0.68360  1.0000 0.2739738873
C   C26       1.0  0.67567  0.56860  0.01693  1.0000 0.2739738873
C   C27       1.0  0.43140  0.10707  0.35027  1.0000 0.2739738873
C   C28       1.0  0.56860  0.67567  0.98307  1.0000 0.2739738873
C   C29       1.0  0.10707  0.43140  0.64973  1.0000 0.2739738873
C   C30       1.0  0.32433  0.89293  0.31640  1.0000 0.2739738873
C   C31       1.0  0.91810  0.21410  0.55650  1.0000 -0.1116720126
C   C32       1.0  0.78590  0.70400  0.88983  1.0000 -0.1116720126
C   C33       1.0  0.29600  0.08190  0.22317  1.0000 -0.1116720126
C   C34       1.0  0.70400  0.78590  0.11017  1.0000 -0.1116720126
C   C35       1.0  0.08190  0.29600  0.77683  1.0000 -0.1116720126
C   C36       1.0  0.21410  0.91810  0.44350  1.0000 -0.1116720126
C   C37       1.0  0.67590  0.14948  0.49770  1.0000 0.5496753009
C   C38       1.0  0.85052  0.52642  0.83103  1.0000 0.5496753009
C   C39       1.0  0.47358  0.32410  0.16437  1.0000 0.5496753009
C   C40       1.0  0.52642  0.85052  0.16897  1.0000 0.5496753009
C   C41       1.0  0.32410  0.47358  0.83563  1.0000 0.5496753009
C   C42       1.0  0.14948  0.67590  0.50230  1.0000 0.5496753009
O   O1        1.0  0.62765  0.18497  0.52930  1.0000 -0.4345623055
O   O2        1.0  0.81503  0.44268  0.86263  1.0000 -0.4345623055
O   O3        1.0  0.55732  0.37235  0.19597  1.0000 -0.4345623055
O   O4        1.0  0.44268  0.81503  0.13737  1.0000 -0.4345623055
O   O5        1.0  0.37235  0.55732  0.80403  1.0000 -0.4345623055
O   O6        1.0  0.18497  0.62765  0.47070  1.0000 -0.4345623055
O   O7        1.0  0.92332  0.40055  0.77090  1.0000 -0.4791275808
O   O8        1.0  0.59945  0.52277  0.10423  1.0000 -0.4791275808
O   O9        1.0  0.47723  0.07668  0.43757  1.0000 -0.4791275808
O   O10       1.0  0.52277  0.59945  0.89577  1.0000 -0.4791275808
O   O11       1.0  0.07668  0.47723  0.56243  1.0000 -0.4791275808
O   O12       1.0  0.40055  0.92332  0.22910  1.0000 -0.4791275808
O   O13       1.0  0.64884  0.07749  0.42650  1.0000 -0.5025722532
O   O14       1.0  0.92251  0.57135  0.75983  1.0000 -0.5025722532
O   O15       1.0  0.42865  0.35116  0.09317  1.0000 -0.5025722532
O   O16       1.0  0.57135  0.92251  0.24017  1.0000 -0.5025722532
O   O17       1.0  0.35116  0.42865  0.90683  1.0000 -0.5025722532
O   O18       1.0  0.07749  0.64884  0.57350  1.0000 -0.5025722532
