# DDEC6 charges by PACMAN v1.1 (https://github.com/mtap-research/PACMAN-charge/)
data_2013[Ni][dia]3[ASR]2
_chemical_formula_sum              "Ni2 H12 C16 S4 N8 O8"
_cell_length_a       12.5277
_cell_length_b       12.5277
_cell_length_c       12.5277
_cell_angle_alpha    95.2033
_cell_angle_beta     95.2033
_cell_angle_gamma    144.947

_symmetry_space_group_name_H-M    "P 1"
_symmetry_Int_Tables_number       1

loop_
  _symmetry_equiv_pos_as_xyz
  'x, y, z'

loop_
  _atom_site_type_symbol
  _atom_site_label
  _atom_site_symmetry_multiplicity
  _atom_site_fract_x
  _atom_site_fract_y
  _atom_site_fract_z
  _atom_site_occupancy
  _atom_site_charge
Ni  Ni1       1.0  0.50000  0.50000  0.00000  1.0000 0.780738135
Ni  Ni2       1.0  0.75000  0.25000  0.50000  1.0000 0.780738135
H   H1        1.0  0.43920  0.39610  0.75310  1.0000 0.2986621681
H   H2        1.0  0.64300  0.68610  0.24690  1.0000 0.2986621681
H   H3        1.0  0.31390  0.56080  0.95690  1.0000 0.2986621681
H   H4        1.0  0.60390  0.35700  0.04310  1.0000 0.2986621681
H   H5        1.0  0.81080  0.06390  0.45690  1.0000 0.2986621681
H   H6        1.0  0.60700  0.35390  0.54310  1.0000 0.2986621681
H   H7        1.0  0.93610  0.39300  0.74690  1.0000 0.2986621681
H   H8        1.0  0.64610  0.18920  0.25310  1.0000 0.2986621681
H   H9        1.0  0.72760  0.37500  0.85260  1.0000 0.1826708216
H   H10       1.0  0.52240  0.87500  0.14740  1.0000 0.1826708216
H   H11       1.0  0.12500  0.27240  0.64740  1.0000 0.1826708216
H   H12       1.0  0.62500  0.47760  0.35260  1.0000 0.1826708216
C   C1        1.0  0.50510  0.37500  0.63010  1.0000 0.3722215939
C   C2        1.0  0.74490  0.87500  0.36990  1.0000 0.3722215939
C   C3        1.0  0.12500  0.49490  0.86990  1.0000 0.3722215939
C   C4        1.0  0.62500  0.25510  0.13010  1.0000 0.3722215939
C   C5        1.0  0.57890  0.38960  0.82410  1.0000 0.5656198758
C   C6        1.0  0.56550  0.75480  0.17590  1.0000 0.5656198758
C   C7        1.0  0.24520  0.42110  0.81070  1.0000 0.5656198758
C   C8        1.0  0.61040  0.43450  0.18930  1.0000 0.563948502
C   C9        1.0  0.67110  0.99520  0.31070  1.0000 0.5656198758
C   C10       1.0  0.68450  0.36040  0.68930  1.0000 0.5656198758
C   C11       1.0  0.00480  0.31550  0.67590  1.0000 0.5656198758
C   C12       1.0  0.63960  0.32890  0.32410  1.0000 0.563948502
C   C13       1.0  0.67250  0.37500  0.79750  1.0000 -0.4817025763
C   C14       1.0  0.57750  0.87500  0.20250  1.0000 -0.4817025763
C   C15       1.0  0.12500  0.32750  0.70250  1.0000 -0.4817025763
C   C16       1.0  0.62500  0.42250  0.29750  1.0000 -0.4817025763
S   S1        1.0  0.40787  0.37500  0.53287  1.0000 -0.3474551541
S   S2        1.0  0.84213  0.87500  0.46713  1.0000 -0.3474551541
S   S3        1.0  0.12500  0.59213  0.96713  1.0000 -0.3474551541
S   S4        1.0  0.62500  0.15787  0.03287  1.0000 -0.3474551541
N   N1        1.0  0.49810  0.38800  0.73710  1.0000 -0.3697963496
N   N2        1.0  0.65090  0.76100  0.26290  1.0000 -0.3697963496
N   N3        1.0  0.23900  0.50190  0.88990  1.0000 -0.3697963496
N   N4        1.0  0.61200  0.34910  0.11010  1.0000 -0.3697963496
N   N5        1.0  0.75190  0.98900  0.38990  1.0000 -0.3697963496
N   N6        1.0  0.59910  0.36200  0.61010  1.0000 -0.3697963496
N   N7        1.0  0.01100  0.40090  0.76290  1.0000 -0.3697963496
N   N8        1.0  0.63800  0.24810  0.23710  1.0000 -0.3697963496
O   O1        1.0  0.55280  0.39730  0.91710  1.0000 -0.5521197271
O   O2        1.0  0.48020  0.63570  0.08290  1.0000 -0.5521197271
O   O3        1.0  0.36430  0.44720  0.84450  1.0000 -0.5521197271
O   O4        1.0  0.60270  0.51980  0.15550  1.0000 -0.5521197271
O   O5        1.0  0.69720  0.11430  0.34450  1.0000 -0.5521197271
O   O6        1.0  0.76980  0.35270  0.65550  1.0000 -0.5521197271
O   O7        1.0  0.88570  0.23020  0.58290  1.0000 -0.5521197271
O   O8        1.0  0.64730  0.30280  0.41710  1.0000 -0.5521197271
