# DDEC6 charges by PACMAN v1.1 (https://github.com/mtap-research/PACMAN-charge/)
data_2013[Ce][ant]3[ASR]1
_chemical_formula_sum              "Ce4 H56 C96 N16 O32"
_cell_length_a       22.52
_cell_length_b       11.7787
_cell_length_c       11.6128
_cell_angle_alpha    90
_cell_angle_beta     95.56
_cell_angle_gamma    90

_symmetry_space_group_name_H-M    "P 1"
_symmetry_Int_Tables_number       1

loop_
  _symmetry_equiv_pos_as_xyz
  'x, y, z'

loop_
  _atom_site_type_symbol
  _atom_site_label
  _atom_site_symmetry_multiplicity
  _atom_site_fract_x
  _atom_site_fract_y
  _atom_site_fract_z
  _atom_site_occupancy
  _atom_site_charge
Ce  Ce1       1.0  0.50000  0.51502  0.75000  1.0000 2.059079755
Ce  Ce2       1.0  0.50000  0.48498  0.25000  1.0000 2.059079755
Ce  Ce3       1.0  0.00000  0.01502  0.75000  1.0000 2.059079755
Ce  Ce4       1.0  0.00000  0.98498  0.25000  1.0000 2.059079755
H   H1        1.0  0.01616  0.29416  0.67571  1.0000 0.3699435553
H   H2        1.0  0.98384  0.70584  0.32429  1.0000 0.3699435553
H   H3        1.0  0.98384  0.29416  0.82429  1.0000 0.3699435553
H   H4        1.0  0.01616  0.70584  0.17571  1.0000 0.3699435553
H   H5        1.0  0.51616  0.79416  0.67571  1.0000 0.3699435553
H   H6        1.0  0.48384  0.20584  0.32429  1.0000 0.3699435553
H   H7        1.0  0.48384  0.79416  0.82429  1.0000 0.3699435553
H   H8        1.0  0.51616  0.20584  0.17571  1.0000 0.3699435553
H   H9        1.0  0.35271  0.33454  0.65315  1.0000 0.124377001
H   H10       1.0  0.64729  0.66546  0.34685  1.0000 0.124377001
H   H11       1.0  0.64729  0.33454  0.84685  1.0000 0.124377001
H   H12       1.0  0.35271  0.66546  0.15315  1.0000 0.124377001
H   H13       1.0  0.85271  0.83454  0.65315  1.0000 0.124377001
H   H14       1.0  0.14729  0.16546  0.34685  1.0000 0.124377001
H   H15       1.0  0.14729  0.83454  0.84685  1.0000 0.124377001
H   H16       1.0  0.85271  0.16546  0.15315  1.0000 0.124377001
H   H17       1.0  0.32594  0.52586  0.33193  1.0000 0.1124883926
H   H18       1.0  0.67406  0.47414  0.66807  1.0000 0.1124883926
H   H19       1.0  0.67406  0.52586  0.16807  1.0000 0.1124883926
H   H20       1.0  0.32594  0.47414  0.83193  1.0000 0.1124883926
H   H21       1.0  0.82594  0.02586  0.33193  1.0000 0.1124883926
H   H22       1.0  0.17406  0.97414  0.66807  1.0000 0.1124883926
H   H23       1.0  0.17406  0.02586  0.16807  1.0000 0.1124883926
H   H24       1.0  0.82594  0.97414  0.83193  1.0000 0.1124883926
H   H25       1.0  0.21637  0.51826  0.35301  1.0000 0.0717453173
H   H26       1.0  0.78363  0.48174  0.64699  1.0000 0.0717453173
H   H27       1.0  0.78363  0.51826  0.14699  1.0000 0.0717453173
H   H28       1.0  0.21637  0.48174  0.85301  1.0000 0.0717453173
H   H29       1.0  0.71637  0.01826  0.35301  1.0000 0.0717453173
H   H30       1.0  0.28363  0.98174  0.64699  1.0000 0.0717453173
H   H31       1.0  0.28363  0.01826  0.14699  1.0000 0.0717453173
H   H32       1.0  0.71637  0.98174  0.85301  1.0000 0.0717453173
H   H33       1.0  0.14702  0.35920  0.62026  1.0000 0.129893545
H   H34       1.0  0.85298  0.64080  0.37974  1.0000 0.129893545
H   H35       1.0  0.85298  0.35920  0.87974  1.0000 0.129893545
H   H36       1.0  0.14702  0.64080  0.12026  1.0000 0.129893545
H   H37       1.0  0.64702  0.85920  0.62026  1.0000 0.129893545
H   H38       1.0  0.35298  0.14080  0.37974  1.0000 0.129893545
H   H39       1.0  0.35298  0.85920  0.87974  1.0000 0.129893545
H   H40       1.0  0.64702  0.14080  0.12026  1.0000 0.129893545
H   H41       1.0  0.17366  0.14560  0.92784  1.0000 0.1124883926
H   H42       1.0  0.82634  0.85440  0.07216  1.0000 0.1124883926
H   H43       1.0  0.82634  0.14560  0.57216  1.0000 0.1124883926
H   H44       1.0  0.17366  0.85440  0.42784  1.0000 0.1124883926
H   H45       1.0  0.67366  0.64560  0.92784  1.0000 0.1124883926
H   H46       1.0  0.32634  0.35440  0.07216  1.0000 0.1124883926
H   H47       1.0  0.32634  0.64560  0.57216  1.0000 0.1124883926
H   H48       1.0  0.67366  0.35440  0.42784  1.0000 0.1124883926
H   H49       1.0  0.28295  0.15975  0.91014  1.0000 0.0717453173
H   H50       1.0  0.71705  0.84025  0.08986  1.0000 0.0717453173
H   H51       1.0  0.71705  0.15975  0.58986  1.0000 0.0717453173
H   H52       1.0  0.28295  0.84025  0.41014  1.0000 0.0717453173
H   H53       1.0  0.78295  0.65975  0.91014  1.0000 0.0717453173
H   H54       1.0  0.21705  0.34025  0.08986  1.0000 0.0717453173
H   H55       1.0  0.21705  0.65975  0.58986  1.0000 0.0717453173
H   H56       1.0  0.78295  0.34025  0.41014  1.0000 0.0717453173
C   C1        1.0  0.41512  0.43683  0.49272  1.0000 0.6628742254
C   C2        1.0  0.58488  0.56317  0.50728  1.0000 0.6628742254
C   C3        1.0  0.58488  0.43683  0.00728  1.0000 0.6628742254
C   C4        1.0  0.41512  0.56317  0.99272  1.0000 0.6628742254
C   C5        1.0  0.91512  0.93683  0.49272  1.0000 0.6628742254
C   C6        1.0  0.08488  0.06317  0.50728  1.0000 0.6628742254
C   C7        1.0  0.08488  0.93683  0.00728  1.0000 0.6628742254
C   C8        1.0  0.91512  0.06317  0.99272  1.0000 0.6628742254
C   C9        1.0  0.26280  0.37581  0.58813  1.0000 0.1599631756
C   C10       1.0  0.73720  0.62419  0.41187  1.0000 0.1599631756
C   C11       1.0  0.73720  0.37581  0.91187  1.0000 0.1599631756
C   C12       1.0  0.26280  0.62419  0.08813  1.0000 0.1599631756
C   C13       1.0  0.76280  0.87581  0.58813  1.0000 0.1599631756
C   C14       1.0  0.23720  0.12419  0.41187  1.0000 0.1599631756
C   C15       1.0  0.23720  0.87581  0.91187  1.0000 0.1599631756
C   C16       1.0  0.76280  0.12419  0.08813  1.0000 0.1599631756
C   C17       1.0  0.32466  0.37738  0.58463  1.0000 -0.160442905
C   C18       1.0  0.67534  0.62262  0.41537  1.0000 -0.160442905
C   C19       1.0  0.67534  0.37738  0.91537  1.0000 -0.160442905
C   C20       1.0  0.32466  0.62262  0.08463  1.0000 -0.160442905
C   C21       1.0  0.82466  0.87738  0.58463  1.0000 -0.160442905
C   C22       1.0  0.17534  0.12262  0.41537  1.0000 -0.160442905
C   C23       1.0  0.17534  0.87738  0.91537  1.0000 -0.160442905
C   C24       1.0  0.82466  0.12262  0.08463  1.0000 -0.160442905
C   C25       1.0  0.34897  0.43185  0.49309  1.0000 -0.0241248502
C   C26       1.0  0.65103  0.56815  0.50691  1.0000 -0.0241248502
C   C27       1.0  0.65103  0.43185  0.00691  1.0000 -0.0241248502
C   C28       1.0  0.34897  0.56815  0.99309  1.0000 -0.0241248502
C   C29       1.0  0.84897  0.93185  0.49309  1.0000 -0.0241248502
C   C30       1.0  0.15103  0.06815  0.50691  1.0000 -0.0241248502
C   C31       1.0  0.15103  0.93185  0.00691  1.0000 -0.0241248502
C   C32       1.0  0.84897  0.06815  0.99309  1.0000 -0.0241248502
C   C33       1.0  0.30978  0.48191  0.40586  1.0000 -0.1517053111
C   C34       1.0  0.69022  0.51809  0.59414  1.0000 -0.1517053111
C   C35       1.0  0.69022  0.48191  0.09414  1.0000 -0.1517053111
C   C36       1.0  0.30978  0.51809  0.90586  1.0000 -0.1517053111
C   C37       1.0  0.80978  0.98191  0.40586  1.0000 -0.1517053111
C   C38       1.0  0.19022  0.01809  0.59414  1.0000 -0.1517053111
C   C39       1.0  0.19022  0.98191  0.09414  1.0000 -0.1517053111
C   C40       1.0  0.80978  0.01809  0.90586  1.0000 -0.1517053111
C   C41       1.0  0.24844  0.47783  0.41783  1.0000 0.0888138003
C   C42       1.0  0.75156  0.52217  0.58217  1.0000 0.0888138003
C   C43       1.0  0.75156  0.47783  0.08217  1.0000 0.0888138003
C   C44       1.0  0.24844  0.52217  0.91783  1.0000 0.0888138003
C   C45       1.0  0.74844  0.97783  0.41783  1.0000 0.0888138003
C   C46       1.0  0.25156  0.02217  0.58217  1.0000 0.0888138003
C   C47       1.0  0.25156  0.97783  0.08217  1.0000 0.0888138003
C   C48       1.0  0.74844  0.02217  0.91783  1.0000 0.0888138003
C   C49       1.0  0.08658  0.24647  0.77003  1.0000 0.5560144073
C   C50       1.0  0.91342  0.75353  0.22997  1.0000 0.5560144073
C   C51       1.0  0.91342  0.24647  0.72997  1.0000 0.5560144073
C   C52       1.0  0.08658  0.75353  0.27003  1.0000 0.5560144073
C   C53       1.0  0.58658  0.74647  0.77003  1.0000 0.5560144073
C   C54       1.0  0.41342  0.25353  0.22997  1.0000 0.5538195259
C   C55       1.0  0.41342  0.74647  0.72997  1.0000 0.5560144073
C   C56       1.0  0.58658  0.25353  0.27003  1.0000 0.5538195259
C   C57       1.0  0.23704  0.31642  0.68376  1.0000 0.1599631756
C   C58       1.0  0.76296  0.68358  0.31624  1.0000 0.1599631756
C   C59       1.0  0.76296  0.31642  0.81624  1.0000 0.1599631756
C   C60       1.0  0.23704  0.68358  0.18376  1.0000 0.1599631756
C   C61       1.0  0.73704  0.81642  0.68376  1.0000 0.1599631756
C   C62       1.0  0.26296  0.18358  0.31624  1.0000 0.1599631756
C   C63       1.0  0.26296  0.81642  0.81624  1.0000 0.1599631756
C   C64       1.0  0.73704  0.18358  0.18376  1.0000 0.1599631756
C   C65       1.0  0.17552  0.31599  0.68783  1.0000 -0.160442905
C   C66       1.0  0.82448  0.68401  0.31217  1.0000 -0.1517053111
C   C67       1.0  0.82448  0.31599  0.81217  1.0000 -0.160442905
C   C68       1.0  0.17552  0.68401  0.18783  1.0000 -0.1517053111
C   C69       1.0  0.67552  0.81599  0.68783  1.0000 -0.160442905
C   C70       1.0  0.32448  0.18401  0.31217  1.0000 -0.1517053111
C   C71       1.0  0.32448  0.81599  0.81217  1.0000 -0.160442905
C   C72       1.0  0.67552  0.18401  0.18783  1.0000 -0.1517053111
C   C73       1.0  0.15055  0.25393  0.77542  1.0000 -0.0472186265
C   C74       1.0  0.84945  0.74607  0.22458  1.0000 -0.0472186265
C   C75       1.0  0.84945  0.25393  0.72458  1.0000 -0.0472186265
C   C76       1.0  0.15055  0.74607  0.27542  1.0000 -0.0472186265
C   C77       1.0  0.65055  0.75393  0.77542  1.0000 -0.0472186265
C   C78       1.0  0.34945  0.24607  0.22458  1.0000 -0.0472186265
C   C79       1.0  0.34945  0.75393  0.72458  1.0000 -0.0472186265
C   C80       1.0  0.65055  0.24607  0.27542  1.0000 -0.0472186265
C   C81       1.0  0.18996  0.19601  0.85817  1.0000 -0.1347539538
C   C82       1.0  0.81004  0.80399  0.14183  1.0000 -0.1347539538
C   C83       1.0  0.81004  0.19601  0.64183  1.0000 -0.1347539538
C   C84       1.0  0.18996  0.80399  0.35817  1.0000 -0.1347539538
C   C85       1.0  0.68996  0.69601  0.85817  1.0000 -0.1347539538
C   C86       1.0  0.31004  0.30399  0.14183  1.0000 -0.1347539538
C   C87       1.0  0.31004  0.69601  0.64183  1.0000 -0.1347539538
C   C88       1.0  0.68996  0.30399  0.35817  1.0000 -0.1347539538
C   C89       1.0  0.25107  0.20375  0.84773  1.0000 0.0826242221
C   C90       1.0  0.74893  0.79625  0.15227  1.0000 0.0826242221
C   C91       1.0  0.74893  0.20375  0.65227  1.0000 0.0826242221
C   C92       1.0  0.25107  0.79625  0.34773  1.0000 0.0826242221
C   C93       1.0  0.75107  0.70375  0.84773  1.0000 0.0826242221
C   C94       1.0  0.24893  0.29625  0.15227  1.0000 0.0826242221
C   C95       1.0  0.24893  0.70375  0.65227  1.0000 0.0826242221
C   C96       1.0  0.75107  0.29625  0.34773  1.0000 0.0826242221
N   N1        1.0  0.22426  0.42686  0.50637  1.0000 -0.3153313809
N   N2        1.0  0.77574  0.57314  0.49363  1.0000 -0.3153313809
N   N3        1.0  0.77574  0.42686  0.99363  1.0000 -0.3153313809
N   N4        1.0  0.22426  0.57314  0.00637  1.0000 -0.3153313809
N   N5        1.0  0.72426  0.92686  0.50637  1.0000 -0.3153313809
N   N6        1.0  0.27574  0.07314  0.49363  1.0000 -0.3153313809
N   N7        1.0  0.27574  0.92686  0.99363  1.0000 -0.3153313809
N   N8        1.0  0.72426  0.07314  0.00637  1.0000 -0.3153313809
N   N9        1.0  0.27575  0.26161  0.76328  1.0000 -0.3039033451
N   N10       1.0  0.72425  0.73839  0.23672  1.0000 -0.3039033451
N   N11       1.0  0.72425  0.26161  0.73672  1.0000 -0.3039033451
N   N12       1.0  0.27575  0.73839  0.26328  1.0000 -0.3039033451
N   N13       1.0  0.77575  0.76161  0.76328  1.0000 -0.3039033451
N   N14       1.0  0.22425  0.23839  0.23672  1.0000 -0.3039033451
N   N15       1.0  0.22425  0.76161  0.73672  1.0000 -0.3039033451
N   N16       1.0  0.77575  0.23839  0.26328  1.0000 -0.3039033451
O   O1        1.0  0.44704  0.42115  0.58972  1.0000 -0.6735300274
O   O2        1.0  0.55296  0.57885  0.41028  1.0000 -0.6735300274
O   O3        1.0  0.55296  0.42115  0.91028  1.0000 -0.6735300274
O   O4        1.0  0.44704  0.57885  0.08972  1.0000 -0.6735300274
O   O5        1.0  0.94704  0.92115  0.58972  1.0000 -0.6735300274
O   O6        1.0  0.05296  0.07885  0.41028  1.0000 -0.6735300274
O   O7        1.0  0.05296  0.92115  0.91028  1.0000 -0.6735300274
O   O8        1.0  0.94704  0.07885  0.08972  1.0000 -0.6735300274
O   O9        1.0  0.43650  0.45633  0.39592  1.0000 -0.6735300274
O   O10       1.0  0.56350  0.54367  0.60408  1.0000 -0.6735300274
O   O11       1.0  0.56350  0.45633  0.10408  1.0000 -0.6735300274
O   O12       1.0  0.43650  0.54367  0.89592  1.0000 -0.6735300274
O   O13       1.0  0.93650  0.95633  0.39592  1.0000 -0.6735300274
O   O14       1.0  0.06350  0.04367  0.60408  1.0000 -0.6735300274
O   O15       1.0  0.06350  0.95633  0.10408  1.0000 -0.6735300274
O   O16       1.0  0.93650  0.04367  0.89592  1.0000 -0.6735300274
O   O17       1.0  0.05731  0.32111  0.69419  1.0000 -0.4523456656
O   O18       1.0  0.94269  0.67889  0.30581  1.0000 -0.4523456656
O   O19       1.0  0.94269  0.32111  0.80581  1.0000 -0.4523456656
O   O20       1.0  0.05731  0.67889  0.19419  1.0000 -0.4523456656
O   O21       1.0  0.55731  0.82111  0.69419  1.0000 -0.4523456656
O   O22       1.0  0.44269  0.17889  0.30581  1.0000 -0.4523456656
O   O23       1.0  0.44269  0.82111  0.80581  1.0000 -0.4523456656
O   O24       1.0  0.55731  0.17889  0.19419  1.0000 -0.4523456656
O   O25       1.0  0.05669  0.17626  0.82622  1.0000 -0.6389654838
O   O26       1.0  0.94331  0.82374  0.17378  1.0000 -0.6389654838
O   O27       1.0  0.94331  0.17626  0.67378  1.0000 -0.6389654838
O   O28       1.0  0.05669  0.82374  0.32622  1.0000 -0.6389654838
O   O29       1.0  0.55669  0.67626  0.82622  1.0000 -0.6389654838
O   O30       1.0  0.44331  0.32374  0.17378  1.0000 -0.6389654838
O   O31       1.0  0.44331  0.67626  0.67378  1.0000 -0.6389654838
O   O32       1.0  0.55669  0.32374  0.32622  1.0000 -0.6389654838
