# DDEC6 charges by PACMAN v1.1 (https://github.com/mtap-research/PACMAN-charge/)
data_2013[U][fcu]3[ASR]1
_chemical_formula_sum              "U6 H24 C48 O32"
_cell_length_a       15.2135
_cell_length_b       15.2135
_cell_length_c       15.2135
_cell_angle_alpha    60
_cell_angle_beta     60
_cell_angle_gamma    60

_symmetry_space_group_name_H-M    "P 1"
_symmetry_Int_Tables_number       1

loop_
  _symmetry_equiv_pos_as_xyz
  'x, y, z'

loop_
  _atom_site_type_symbol
  _atom_site_label
  _atom_site_symmetry_multiplicity
  _atom_site_fract_x
  _atom_site_fract_y
  _atom_site_fract_z
  _atom_site_occupancy
  _atom_site_charge
U   U1        1.0  0.12601  0.12601  0.87399  1.0000 2.5696070921
U   U2        1.0  0.87399  0.87399  0.12601  1.0000 2.5612572562
U   U3        1.0  0.87399  0.12601  0.12601  1.0000 2.5612572562
U   U4        1.0  0.12601  0.87399  0.87399  1.0000 2.5696070921
U   U5        1.0  0.12601  0.87399  0.12601  1.0000 2.5612572562
U   U6        1.0  0.87399  0.12601  0.87399  1.0000 2.5612572562
H   H1        1.0  0.13568  0.42170  0.57830  1.0000 0.1321065566
H   H2        1.0  0.42170  0.13568  0.86432  1.0000 0.1321065566
H   H3        1.0  0.57830  0.86432  0.13568  1.0000 0.1321065566
H   H4        1.0  0.86432  0.57830  0.42170  1.0000 0.1321065566
H   H5        1.0  0.57830  0.13568  0.42170  1.0000 0.1321065566
H   H6        1.0  0.86432  0.42170  0.13568  1.0000 0.1321065566
H   H7        1.0  0.13568  0.57830  0.86432  1.0000 0.1321065566
H   H8        1.0  0.42170  0.86432  0.57830  1.0000 0.1321065566
H   H9        1.0  0.42170  0.57830  0.13568  1.0000 0.1321065566
H   H10       1.0  0.13568  0.86432  0.42170  1.0000 0.1321065566
H   H11       1.0  0.86432  0.13568  0.57830  1.0000 0.1321065566
H   H12       1.0  0.57830  0.42170  0.86432  1.0000 0.1321065566
H   H13       1.0  0.86432  0.57830  0.13568  1.0000 0.1321065566
H   H14       1.0  0.57830  0.86432  0.42170  1.0000 0.1321065566
H   H15       1.0  0.42170  0.13568  0.57830  1.0000 0.1321065566
H   H16       1.0  0.13568  0.42170  0.86432  1.0000 0.1321065566
H   H17       1.0  0.42170  0.86432  0.13568  1.0000 0.1321065566
H   H18       1.0  0.13568  0.57830  0.42170  1.0000 0.1321065566
H   H19       1.0  0.86432  0.42170  0.57830  1.0000 0.1321065566
H   H20       1.0  0.57830  0.13568  0.86432  1.0000 0.1321065566
H   H21       1.0  0.57830  0.42170  0.13568  1.0000 0.1321065566
H   H22       1.0  0.86432  0.13568  0.42170  1.0000 0.1321065566
H   H23       1.0  0.13568  0.86432  0.57830  1.0000 0.1321065566
H   H24       1.0  0.42170  0.57830  0.86432  1.0000 0.1321065566
C   C1        1.0  0.00000  0.30980  0.69020  1.0000 0.6440434289
C   C2        1.0  0.30980  0.00000  0.00000  1.0000 0.6440434289
C   C3        1.0  0.69020  0.00000  0.00000  1.0000 0.6440434289
C   C4        1.0  0.00000  0.69020  0.30980  1.0000 0.6440434289
C   C5        1.0  0.69020  0.00000  0.30980  1.0000 0.6440434289
C   C6        1.0  0.00000  0.30980  0.00000  1.0000 0.6440434289
C   C7        1.0  0.00000  0.69020  0.00000  1.0000 0.6440434289
C   C8        1.0  0.30980  0.00000  0.69020  1.0000 0.6440434289
C   C9        1.0  0.30980  0.69020  0.00000  1.0000 0.6440434289
C   C10       1.0  0.00000  0.00000  0.30980  1.0000 0.6440434289
C   C11       1.0  0.00000  0.00000  0.69020  1.0000 0.6440434289
C   C12       1.0  0.69020  0.30980  0.00000  1.0000 0.6440434289
C   C13       1.0  0.00000  0.40840  0.59160  1.0000 -0.0347030468
C   C14       1.0  0.40840  0.00000  0.00000  1.0000 -0.0359988037
C   C15       1.0  0.59160  0.00000  0.00000  1.0000 -0.0359988037
C   C16       1.0  0.00000  0.59160  0.40840  1.0000 -0.0359988037
C   C17       1.0  0.59160  0.00000  0.40840  1.0000 -0.0347030468
C   C18       1.0  0.00000  0.40840  0.00000  1.0000 -0.0347030468
C   C19       1.0  0.00000  0.59160  0.00000  1.0000 -0.0359988037
C   C20       1.0  0.40840  0.00000  0.59160  1.0000 -0.0347030468
C   C21       1.0  0.40840  0.59160  0.00000  1.0000 -0.0359988037
C   C22       1.0  0.00000  0.00000  0.40840  1.0000 -0.0347030468
C   C23       1.0  0.00000  0.00000  0.59160  1.0000 -0.0347030468
C   C24       1.0  0.59160  0.40840  0.00000  1.0000 -0.0347030468
C   C25       1.0  0.08130  0.45370  0.54630  1.0000 -0.1077208556
C   C26       1.0  0.45370  0.08130  0.91870  1.0000 -0.1077208556
C   C27       1.0  0.54630  0.91870  0.08130  1.0000 -0.1077208556
C   C28       1.0  0.91870  0.54630  0.45370  1.0000 -0.1077208556
C   C29       1.0  0.54630  0.08130  0.45370  1.0000 -0.1077208556
C   C30       1.0  0.91870  0.45370  0.08130  1.0000 -0.1077208556
C   C31       1.0  0.08130  0.54630  0.91870  1.0000 -0.1077208556
C   C32       1.0  0.45370  0.91870  0.54630  1.0000 -0.1077208556
C   C33       1.0  0.45370  0.54630  0.08130  1.0000 -0.1077208556
C   C34       1.0  0.08130  0.91870  0.45370  1.0000 -0.1077208556
C   C35       1.0  0.91870  0.08130  0.54630  1.0000 -0.1077208556
C   C36       1.0  0.54630  0.45370  0.91870  1.0000 -0.1077208556
C   C37       1.0  0.91870  0.54630  0.08130  1.0000 -0.1077208556
C   C38       1.0  0.54630  0.91870  0.45370  1.0000 -0.1077208556
C   C39       1.0  0.45370  0.08130  0.54630  1.0000 -0.1077208556
C   C40       1.0  0.08130  0.45370  0.91870  1.0000 -0.1077208556
C   C41       1.0  0.45370  0.91870  0.08130  1.0000 -0.1077208556
C   C42       1.0  0.08130  0.54630  0.45370  1.0000 -0.1077208556
C   C43       1.0  0.91870  0.45370  0.54630  1.0000 -0.1077208556
C   C44       1.0  0.54630  0.08130  0.91870  1.0000 -0.1077208556
C   C45       1.0  0.54630  0.45370  0.08130  1.0000 -0.1077208556
C   C46       1.0  0.91870  0.08130  0.45370  1.0000 -0.1077208556
C   C47       1.0  0.08130  0.91870  0.54630  1.0000 -0.1077208556
C   C48       1.0  0.45370  0.54630  0.91870  1.0000 -0.1077208556
O   O1        1.0  0.07470  0.27290  0.72710  1.0000 -0.6020927671
O   O2        1.0  0.27290  0.07470  0.92530  1.0000 -0.6020927671
O   O3        1.0  0.72710  0.92530  0.07470  1.0000 -0.6020927671
O   O4        1.0  0.92530  0.72710  0.27290  1.0000 -0.6020927671
O   O5        1.0  0.72710  0.07470  0.27290  1.0000 -0.6020927671
O   O6        1.0  0.92530  0.27290  0.07470  1.0000 -0.6020927671
O   O7        1.0  0.07470  0.72710  0.92530  1.0000 -0.6020927671
O   O8        1.0  0.27290  0.92530  0.72710  1.0000 -0.6020927671
O   O9        1.0  0.27290  0.72710  0.07470  1.0000 -0.6020927671
O   O10       1.0  0.07470  0.92530  0.27290  1.0000 -0.6020927671
O   O11       1.0  0.92530  0.07470  0.72710  1.0000 -0.6020927671
O   O12       1.0  0.72710  0.27290  0.92530  1.0000 -0.6020927671
O   O13       1.0  0.92530  0.72710  0.07470  1.0000 -0.6020927671
O   O14       1.0  0.72710  0.92530  0.27290  1.0000 -0.6020927671
O   O15       1.0  0.27290  0.07470  0.72710  1.0000 -0.6020927671
O   O16       1.0  0.07470  0.27290  0.92530  1.0000 -0.6020927671
O   O17       1.0  0.27290  0.92530  0.07470  1.0000 -0.6020927671
O   O18       1.0  0.07470  0.72710  0.27290  1.0000 -0.6020927671
O   O19       1.0  0.92530  0.27290  0.72710  1.0000 -0.6020927671
O   O20       1.0  0.72710  0.07470  0.92530  1.0000 -0.6020927671
O   O21       1.0  0.72710  0.27290  0.07470  1.0000 -0.6020927671
O   O22       1.0  0.92530  0.07470  0.27290  1.0000 -0.6020927671
O   O23       1.0  0.07470  0.92530  0.72710  1.0000 -0.6020927671
O   O24       1.0  0.27290  0.72710  0.92530  1.0000 -0.6020927671
O   O25       1.0  0.06010  0.06010  0.06010  1.0000 -1.1060153711
O   O26       1.0  0.06010  0.06010  0.81970  1.0000 -1.1013666618
O   O27       1.0  0.06010  0.81970  0.06010  1.0000 -1.1013666618
O   O28       1.0  0.81970  0.06010  0.06010  1.0000 -1.1060153711
O   O29       1.0  0.93990  0.93990  0.18030  1.0000 -1.1013666618
O   O30       1.0  0.93990  0.93990  0.93990  1.0000 -1.1013666618
O   O31       1.0  0.93990  0.18030  0.93990  1.0000 -1.1013666618
O   O32       1.0  0.18030  0.93990  0.93990  1.0000 -1.1060153711
