# DDEC6 charges by PACMAN v1.1 (https://github.com/mtap-research/PACMAN-charge/)
data_2013[Ce][seh]3[ASR]1
_chemical_formula_sum              "Ce4 H108 C84 N24 O24"
_cell_length_a       16.143
_cell_length_b       7.7507
_cell_length_c       31.0241
_cell_angle_alpha    90
_cell_angle_beta     118.228
_cell_angle_gamma    90

_symmetry_space_group_name_H-M    "P 1"
_symmetry_Int_Tables_number       1

loop_
  _symmetry_equiv_pos_as_xyz
  'x, y, z'

loop_
  _atom_site_type_symbol
  _atom_site_label
  _atom_site_symmetry_multiplicity
  _atom_site_fract_x
  _atom_site_fract_y
  _atom_site_fract_z
  _atom_site_occupancy
  _atom_site_charge
Ce  Ce1       1.0  0.99009  0.87143  0.76613  1.0000 1.9413353914
Ce  Ce2       1.0  0.00991  0.37143  0.73387  1.0000 1.9413353914
Ce  Ce3       1.0  0.00991  0.12857  0.23387  1.0000 1.9413353914
Ce  Ce4       1.0  0.99009  0.62857  0.26613  1.0000 1.9413353914
H   H1        1.0  0.18800  0.17300  0.36600  1.0000 0.1110052386
H   H2        1.0  0.81200  0.67300  0.13400  1.0000 0.1110052386
H   H3        1.0  0.81200  0.82700  0.63400  1.0000 0.1110052386
H   H4        1.0  0.18800  0.32700  0.86600  1.0000 0.1110052386
H   H5        1.0  0.56220  0.27440  0.57810  1.0000 0.1007708881
H   H6        1.0  0.43780  0.77440  0.92190  1.0000 0.1007708881
H   H7        1.0  0.43780  0.72560  0.42190  1.0000 0.1007708881
H   H8        1.0  0.56220  0.22560  0.07810  1.0000 0.1007708881
H   H9        1.0  0.61460  0.40900  0.62030  1.0000 0.1007708881
H   H10       1.0  0.38540  0.90900  0.87970  1.0000 0.1007708881
H   H11       1.0  0.38540  0.59100  0.37970  1.0000 0.1007708881
H   H12       1.0  0.61460  0.09100  0.12030  1.0000 0.1007708881
H   H13       1.0  0.72600  0.21270  0.62070  1.0000 0.1255450269
H   H14       1.0  0.27400  0.71270  0.87930  1.0000 0.1255450269
H   H15       1.0  0.27400  0.78730  0.37930  1.0000 0.1255450269
H   H16       1.0  0.72600  0.28730  0.12070  1.0000 0.1255450269
H   H17       1.0  0.66810  0.05650  0.62470  1.0000 0.1110052386
H   H18       1.0  0.33190  0.55650  0.87530  1.0000 0.1110052386
H   H19       1.0  0.33190  0.94350  0.37530  1.0000 0.1110052386
H   H20       1.0  0.66810  0.44350  0.12470  1.0000 0.1110052386
H   H21       1.0  0.76000  0.30800  0.69800  1.0000 0.1182535354
H   H22       1.0  0.24000  0.80800  0.80200  1.0000 0.1182535354
H   H23       1.0  0.24000  0.69200  0.30200  1.0000 0.1182535354
H   H24       1.0  0.76000  0.19200  0.19800  1.0000 0.1182535354
H   H25       1.0  0.65770  0.02410  0.70450  1.0000 0.1182535354
H   H26       1.0  0.34230  0.52410  0.79550  1.0000 0.1182535354
H   H27       1.0  0.34230  0.97590  0.29550  1.0000 0.1182535354
H   H28       1.0  0.65770  0.47590  0.20450  1.0000 0.1182535354
H   H29       1.0  0.70600  0.16620  0.74470  1.0000 0.1110052386
H   H30       1.0  0.29400  0.66620  0.75530  1.0000 0.1110052386
H   H31       1.0  0.29400  0.83380  0.25530  1.0000 0.1110052386
H   H32       1.0  0.70600  0.33380  0.24470  1.0000 0.1110052386
H   H33       1.0  0.59720  0.36890  0.69760  1.0000 0.1007708881
H   H34       1.0  0.40280  0.86890  0.80240  1.0000 0.1007708881
H   H35       1.0  0.40280  0.63110  0.30240  1.0000 0.1007708881
H   H36       1.0  0.59720  0.13110  0.19760  1.0000 0.1007708881
H   H37       1.0  0.54120  0.20530  0.69900  1.0000 0.1007708881
H   H38       1.0  0.45880  0.70530  0.80100  1.0000 0.1007708881
H   H39       1.0  0.45880  0.79470  0.30100  1.0000 0.1007708881
H   H40       1.0  0.54120  0.29470  0.19900  1.0000 0.1007708881
H   H41       1.0  0.09120  0.17000  0.61660  1.0000 0.1182535354
H   H42       1.0  0.90880  0.67000  0.88340  1.0000 0.1182535354
H   H43       1.0  0.90880  0.83000  0.38340  1.0000 0.1182535354
H   H44       1.0  0.09120  0.33000  0.11660  1.0000 0.1182535354
H   H45       1.0  0.03600  0.99630  0.59700  1.0000 0.1110052386
H   H46       1.0  0.96400  0.49630  0.90300  1.0000 0.1110052386
H   H47       1.0  0.96400  0.00370  0.40300  1.0000 0.1110052386
H   H48       1.0  0.03600  0.50370  0.09700  1.0000 0.1110052386
H   H49       1.0  0.14400  0.85200  0.66800  1.0000 0.1110052386
H   H50       1.0  0.85600  0.35200  0.83200  1.0000 0.1110052386
H   H51       1.0  0.85600  0.14800  0.33200  1.0000 0.1110052386
H   H52       1.0  0.14400  0.64800  0.16800  1.0000 0.1110052386
H   H53       1.0  0.26920  0.00650  0.73030  1.0000 0.1110052386
H   H54       1.0  0.73080  0.50650  0.76970  1.0000 0.1110052386
H   H55       1.0  0.73080  0.99350  0.26970  1.0000 0.1110052386
H   H56       1.0  0.26920  0.49350  0.23030  1.0000 0.1110052386
H   H57       1.0  0.23560  0.17630  0.69930  1.0000 0.1255450269
H   H58       1.0  0.76440  0.67630  0.80070  1.0000 0.1255450269
H   H59       1.0  0.76440  0.82370  0.30070  1.0000 0.1255450269
H   H60       1.0  0.23560  0.32370  0.19930  1.0000 0.1255450269
H   H61       1.0  0.31200  0.88660  0.67550  1.0000 0.1007708881
H   H62       1.0  0.68800  0.38660  0.82450  1.0000 0.1007708881
H   H63       1.0  0.68800  0.11340  0.32450  1.0000 0.1007708881
H   H64       1.0  0.31200  0.61340  0.17550  1.0000 0.1007708881
H   H65       1.0  0.36050  0.06820  0.69110  1.0000 0.1007708881
H   H66       1.0  0.63950  0.56820  0.80890  1.0000 0.1007708881
H   H67       1.0  0.63950  0.93180  0.30890  1.0000 0.1007708881
H   H68       1.0  0.36050  0.43180  0.19110  1.0000 0.1007708881
H   H69       1.0  0.13350  0.04900  0.56080  1.0000 0.1007708881
H   H70       1.0  0.86650  0.54900  0.93920  1.0000 0.1007708881
H   H71       1.0  0.86650  0.95100  0.43920  1.0000 0.1007708881
H   H72       1.0  0.13350  0.45100  0.06080  1.0000 0.1007708881
H   H73       1.0  0.16250  0.87590  0.59060  1.0000 0.1007708881
H   H74       1.0  0.83750  0.37590  0.90940  1.0000 0.1007708881
H   H75       1.0  0.83750  0.12410  0.40940  1.0000 0.1007708881
H   H76       1.0  0.16250  0.62410  0.09060  1.0000 0.1007708881
H   H77       1.0  0.31640  0.35480  0.39730  1.0000 0.1110052386
H   H78       1.0  0.68360  0.85480  0.10270  1.0000 0.1110052386
H   H79       1.0  0.68360  0.64520  0.60270  1.0000 0.1110052386
H   H80       1.0  0.31640  0.14520  0.89730  1.0000 0.1110052386
H   H81       1.0  0.27510  0.46230  0.42550  1.0000 0.1182535354
H   H82       1.0  0.72490  0.96230  0.07450  1.0000 0.1182535354
H   H83       1.0  0.72490  0.53770  0.57450  1.0000 0.1182535354
H   H84       1.0  0.27510  0.03770  0.92550  1.0000 0.1182535354
H   H85       1.0  0.11650  0.36050  0.41900  1.0000 0.1182535354
H   H86       1.0  0.88350  0.86050  0.08100  1.0000 0.1182535354
H   H87       1.0  0.88350  0.63950  0.58100  1.0000 0.1182535354
H   H88       1.0  0.11650  0.13950  0.91900  1.0000 0.1182535354
H   H89       1.0  0.06870  0.19820  0.38650  1.0000 0.1182535354
H   H90       1.0  0.93130  0.69820  0.11350  1.0000 0.1182535354
H   H91       1.0  0.93130  0.80180  0.61350  1.0000 0.1182535354
H   H92       1.0  0.06870  0.30180  0.88650  1.0000 0.1182535354
H   H93       1.0  0.38930  0.28480  0.48090  1.0000 0.1007708881
H   H94       1.0  0.61070  0.78480  0.01910  1.0000 0.1007708881
H   H95       1.0  0.61070  0.71520  0.51910  1.0000 0.1007708881
H   H96       1.0  0.38930  0.21520  0.98090  1.0000 0.1007708881
H   H97       1.0  0.34360  0.12260  0.44790  1.0000 0.1007708881
H   H98       1.0  0.65640  0.62260  0.05210  1.0000 0.1007708881
H   H99       1.0  0.65640  0.87740  0.55210  1.0000 0.1007708881
H   H100      1.0  0.34360  0.37740  0.94790  1.0000 0.1007708881
H   H101      1.0  0.18500  0.02180  0.44020  1.0000 0.1110052386
H   H102      1.0  0.81500  0.52180  0.05980  1.0000 0.1110052386
H   H103      1.0  0.81500  0.97820  0.55980  1.0000 0.1110052386
H   H104      1.0  0.18500  0.47820  0.94020  1.0000 0.1110052386
H   H105      1.0  0.14590  0.12890  0.46960  1.0000 0.1007708881
H   H106      1.0  0.85410  0.62890  0.03040  1.0000 0.1007708881
H   H107      1.0  0.85410  0.87110  0.53040  1.0000 0.1007708881
H   H108      1.0  0.14590  0.37110  0.96960  1.0000 0.1007708881
C   C1        1.0  0.12740  0.40790  0.33770  1.0000 0.588334676
C   C2        1.0  0.87260  0.90790  0.16230  1.0000 0.588334676
C   C3        1.0  0.87260  0.59210  0.66230  1.0000 0.588334676
C   C4        1.0  0.12740  0.09210  0.83770  1.0000 0.588334676
C   C5        1.0  0.18190  0.28300  0.37960  1.0000 -0.1087304082
C   C6        1.0  0.81810  0.78300  0.12040  1.0000 -0.1087304082
C   C7        1.0  0.81810  0.71700  0.62040  1.0000 -0.1087304082
C   C8        1.0  0.18190  0.21700  0.87960  1.0000 -0.1087304082
C   C9        1.0  0.59670  0.28860  0.61330  1.0000 -0.0848839468
C   C10       1.0  0.40330  0.78860  0.88670  1.0000 -0.0913867535
C   C11       1.0  0.40330  0.71140  0.38670  1.0000 -0.0848839468
C   C12       1.0  0.59670  0.21140  0.11330  1.0000 -0.0848839468
C   C13       1.0  0.68570  0.17560  0.63420  1.0000 -0.2110629952
C   C14       1.0  0.31430  0.67560  0.86580  1.0000 -0.2110629952
C   C15       1.0  0.31430  0.82440  0.36580  1.0000 -0.2110629952
C   C16       1.0  0.68570  0.32440  0.13420  1.0000 -0.2110629952
C   C17       1.0  0.73830  0.18820  0.68910  1.0000 -0.1156042403
C   C18       1.0  0.26170  0.68820  0.81090  1.0000 -0.1156042403
C   C19       1.0  0.26170  0.81180  0.31090  1.0000 -0.1156042403
C   C20       1.0  0.73830  0.31180  0.18910  1.0000 -0.1156042403
C   C21       1.0  0.67330  0.14580  0.70970  1.0000 -0.2110629952
C   C22       1.0  0.32670  0.64580  0.79030  1.0000 -0.2110629952
C   C23       1.0  0.32670  0.85420  0.29030  1.0000 -0.2110629952
C   C24       1.0  0.67330  0.35420  0.20970  1.0000 -0.2110629952
C   C25       1.0  0.58310  0.24950  0.68730  1.0000 -0.0913867535
C   C26       1.0  0.41690  0.74950  0.81270  1.0000 -0.0913867535
C   C27       1.0  0.41690  0.75050  0.31270  1.0000 -0.0913867535
C   C28       1.0  0.58310  0.25050  0.18730  1.0000 -0.0913867535
C   C29       1.0  0.44560  0.20780  0.60720  1.0000 0.4594920093
C   C30       1.0  0.55440  0.70780  0.89280  1.0000 0.4594920093
C   C31       1.0  0.55440  0.79220  0.39280  1.0000 0.4594920093
C   C32       1.0  0.44560  0.29220  0.10720  1.0000 0.4594920093
C   C33       1.0  0.30520  0.12050  0.60070  1.0000 0.4712162131
C   C34       1.0  0.69480  0.62050  0.89930  1.0000 0.4712162131
C   C35       1.0  0.69480  0.87950  0.39930  1.0000 0.4712162131
C   C36       1.0  0.30520  0.37950  0.10070  1.0000 0.4712162131
C   C37       1.0  0.31700  0.18250  0.53240  1.0000 0.4712162131
C   C38       1.0  0.68300  0.68250  0.96760  1.0000 0.4712162131
C   C39       1.0  0.68300  0.81750  0.46760  1.0000 0.4594920093
C   C40       1.0  0.31700  0.31750  0.03240  1.0000 0.4594920093
C   C41       1.0  0.09800  0.04560  0.61650  1.0000 -0.2110629952
C   C42       1.0  0.90200  0.54560  0.88350  1.0000 -0.2110629952
C   C43       1.0  0.90200  0.95440  0.38350  1.0000 -0.2110629952
C   C44       1.0  0.09800  0.45440  0.11650  1.0000 -0.2110629952
C   C45       1.0  0.13970  0.97770  0.66910  1.0000 -0.1302939913
C   C46       1.0  0.86030  0.47770  0.83090  1.0000 -0.1302939913
C   C47       1.0  0.86030  0.02230  0.33090  1.0000 -0.1302939913
C   C48       1.0  0.13970  0.52230  0.16910  1.0000 -0.1302939913
C   C49       1.0  0.23950  0.05200  0.69720  1.0000 -0.2110629952
C   C50       1.0  0.76050  0.55200  0.80280  1.0000 -0.2110629952
C   C51       1.0  0.76050  0.94800  0.30280  1.0000 -0.2110629952
C   C52       1.0  0.23950  0.44800  0.19720  1.0000 -0.2110629952
C   C53       1.0  0.30040  0.00990  0.67360  1.0000 -0.0999269478
C   C54       1.0  0.69960  0.50990  0.82640  1.0000 -0.0999269478
C   C55       1.0  0.69960  0.99010  0.32640  1.0000 -0.0999269478
C   C56       1.0  0.30040  0.49010  0.17360  1.0000 -0.0999269478
C   C57       1.0  0.16030  0.00020  0.59350  1.0000 -0.0913867535
C   C58       1.0  0.83970  0.50020  0.90650  1.0000 -0.0913867535
C   C59       1.0  0.83970  0.99980  0.40650  1.0000 -0.0913867535
C   C60       1.0  0.16030  0.49980  0.09350  1.0000 -0.0913867535
C   C61       1.0  0.27980  0.34720  0.41460  1.0000 -0.2110629952
C   C62       1.0  0.72020  0.84720  0.08540  1.0000 -0.2110629952
C   C63       1.0  0.72020  0.65280  0.58540  1.0000 -0.2110629952
C   C64       1.0  0.27980  0.15280  0.91460  1.0000 -0.2110629952
C   C65       1.0  0.12870  0.25080  0.40800  1.0000 -0.2195945418
C   C66       1.0  0.87130  0.75080  0.09200  1.0000 -0.2195945418
C   C67       1.0  0.87130  0.74920  0.59200  1.0000 -0.2195945418
C   C68       1.0  0.12870  0.24920  0.90800  1.0000 -0.2195945418
C   C69       1.0  0.33000  0.23200  0.45840  1.0000 -0.0913867535
C   C70       1.0  0.67000  0.73200  0.04160  1.0000 -0.0913867535
C   C71       1.0  0.67000  0.76800  0.54160  1.0000 -0.0913867535
C   C72       1.0  0.33000  0.26800  0.95840  1.0000 -0.0913867535
C   C73       1.0  0.18070  0.13690  0.45130  1.0000 -0.0913867535
C   C74       1.0  0.81930  0.63690  0.04870  1.0000 -0.0913867535
C   C75       1.0  0.81930  0.86310  0.54870  1.0000 -0.0913867535
C   C76       1.0  0.18070  0.36310  0.95130  1.0000 -0.0913867535
C   C77       1.0  0.82300  0.07290  0.70930  1.0000 0.588334676
C   C78       1.0  0.17700  0.57290  0.79070  1.0000 0.588334676
C   C79       1.0  0.17700  0.92710  0.29070  1.0000 0.588334676
C   C80       1.0  0.82300  0.42710  0.20930  1.0000 0.588334676
C   C81       1.0  0.08230  0.02210  0.69380  1.0000 0.6196737701
C   C82       1.0  0.91770  0.52210  0.80620  1.0000 0.6196737701
C   C83       1.0  0.91770  0.97790  0.30620  1.0000 0.6196737701
C   C84       1.0  0.08230  0.47790  0.19380  1.0000 0.6196737701
N   N1        1.0  0.25960  0.13250  0.55140  1.0000 -0.5770125127
N   N2        1.0  0.74040  0.63250  0.94860  1.0000 -0.5770125127
N   N3        1.0  0.74040  0.86750  0.44860  1.0000 -0.5770125127
N   N4        1.0  0.25960  0.36750  0.05140  1.0000 -0.5770125127
N   N5        1.0  0.25360  0.06500  0.62230  1.0000 -0.1087304082
N   N6        1.0  0.74640  0.56500  0.87770  1.0000 -0.1087304082
N   N7        1.0  0.74640  0.93500  0.37770  1.0000 -0.1087304082
N   N8        1.0  0.25360  0.43500  0.12230  1.0000 -0.1087304082
N   N9        1.0  0.40760  0.21550  0.55750  1.0000 -0.5714328101
N   N10       1.0  0.59240  0.71550  0.94250  1.0000 -0.5714328101
N   N11       1.0  0.59240  0.78450  0.44250  1.0000 -0.5714328101
N   N12       1.0  0.40760  0.28450  0.05750  1.0000 -0.5714328101
N   N13       1.0  0.39480  0.16600  0.63050  1.0000 -0.5714328101
N   N14       1.0  0.60520  0.66600  0.86950  1.0000 -0.5714328101
N   N15       1.0  0.60520  0.83400  0.36950  1.0000 -0.5714328101
N   N16       1.0  0.39480  0.33400  0.13050  1.0000 -0.5714328101
N   N17       1.0  0.53720  0.24100  0.63470  1.0000 -0.0999269478
N   N18       1.0  0.46280  0.74100  0.86530  1.0000 -0.0999269478
N   N19       1.0  0.46280  0.75900  0.36530  1.0000 -0.0999269478
N   N20       1.0  0.53720  0.25900  0.13470  1.0000 -0.0999269478
N   N21       1.0  0.27530  0.20070  0.48360  1.0000 -0.0999269478
N   N22       1.0  0.72470  0.70070  0.01640  1.0000 -0.0999269478
N   N23       1.0  0.72470  0.79930  0.51640  1.0000 -0.0999269478
N   N24       1.0  0.27530  0.29930  0.98360  1.0000 -0.0999269478
O   O1        1.0  0.07710  0.34750  0.29420  1.0000 -0.72617333
O   O2        1.0  0.92290  0.84750  0.20580  1.0000 -0.72617333
O   O3        1.0  0.92290  0.65250  0.70580  1.0000 -0.72617333
O   O4        1.0  0.07710  0.15250  0.79420  1.0000 -0.72617333
O   O5        1.0  0.13090  0.56580  0.34480  1.0000 -0.5897551736
O   O6        1.0  0.86910  0.06580  0.15520  1.0000 -0.5897551736
O   O7        1.0  0.86910  0.43420  0.65520  1.0000 -0.5897551736
O   O8        1.0  0.13090  0.93420  0.84480  1.0000 -0.5897551736
O   O9        1.0  0.06400  0.90570  0.71580  1.0000 -0.619719196
O   O10       1.0  0.93600  0.40570  0.78420  1.0000 -0.619719196
O   O11       1.0  0.93600  0.09430  0.28420  1.0000 -0.619719196
O   O12       1.0  0.06400  0.59430  0.21580  1.0000 -0.619719196
O   O13       1.0  0.81740  0.91750  0.71940  1.0000 -0.5897551736
O   O14       1.0  0.18260  0.41750  0.78060  1.0000 -0.5897551736
O   O15       1.0  0.18260  0.08250  0.28060  1.0000 -0.5897551736
O   O16       1.0  0.81740  0.58250  0.21940  1.0000 -0.5897551736
O   O17       1.0  0.90350  0.12730  0.71580  1.0000 -0.7177431917
O   O18       1.0  0.09650  0.62730  0.78420  1.0000 -0.7177431917
O   O19       1.0  0.09650  0.87270  0.28420  1.0000 -0.7177431917
O   O20       1.0  0.90350  0.37270  0.21580  1.0000 -0.7177431917
O   O21       1.0  0.05800  0.17690  0.69300  1.0000 -0.6377435214
O   O22       1.0  0.94200  0.67690  0.80700  1.0000 -0.6377435214
O   O23       1.0  0.94200  0.82310  0.30700  1.0000 -0.6377435214
O   O24       1.0  0.05800  0.32310  0.19300  1.0000 -0.6377435214
