# DDEC6 charges by PACMAN v1.1 (https://github.com/mtap-research/PACMAN-charge/)
data_2013[Nd][dia]3[ASR]1
_chemical_formula_sum              "Nd4 C16 O32"
_cell_length_a       9.7166
_cell_length_b       11.926
_cell_length_c       14.4326
_cell_angle_alpha    90
_cell_angle_beta     122.198
_cell_angle_gamma    90

_symmetry_space_group_name_H-M    "P 1"
_symmetry_Int_Tables_number       1

loop_
  _symmetry_equiv_pos_as_xyz
  'x, y, z'

loop_
  _atom_site_type_symbol
  _atom_site_label
  _atom_site_symmetry_multiplicity
  _atom_site_fract_x
  _atom_site_fract_y
  _atom_site_fract_z
  _atom_site_occupancy
  _atom_site_charge
Nd  Nd1       1.0  0.11638  0.48146  0.32926  1.0000 1.9354860301
Nd  Nd2       1.0  0.88362  0.98146  0.17074  1.0000 1.9346980567
Nd  Nd3       1.0  0.88362  0.51854  0.67074  1.0000 1.9346980567
Nd  Nd4       1.0  0.11638  0.01854  0.82926  1.0000 1.9354860301
C   C1        1.0  0.51530  0.49830  0.45280  1.0000 0.5557877536
C   C2        1.0  0.48470  0.99830  0.04720  1.0000 0.5557877536
C   C3        1.0  0.48470  0.50170  0.54720  1.0000 0.5557877536
C   C4        1.0  0.51530  0.00170  0.95280  1.0000 0.5557877536
C   C5        1.0  0.99580  0.43580  0.50180  1.0000 0.5345238562
C   C6        1.0  0.00420  0.93580  0.99820  1.0000 0.5345238562
C   C7        1.0  0.00420  0.56420  0.49820  1.0000 0.5345238562
C   C8        1.0  0.99580  0.06420  0.00180  1.0000 0.5345238562
C   C9        1.0  0.91700  0.25060  0.21780  1.0000 0.5977025743
C   C10       1.0  0.08300  0.75060  0.28220  1.0000 0.5977025743
C   C11       1.0  0.08300  0.74940  0.78220  1.0000 0.5977025743
C   C12       1.0  0.91700  0.24940  0.71780  1.0000 0.5977025743
C   C13       1.0  0.09430  0.20710  0.29580  1.0000 0.5812138732
C   C14       1.0  0.90570  0.70710  0.20420  1.0000 0.5812138732
C   C15       1.0  0.90570  0.79290  0.70420  1.0000 0.5812138732
C   C16       1.0  0.09430  0.29290  0.79580  1.0000 0.5812138732
O   O1        1.0  0.65800  0.51320  0.47700  1.0000 -0.5215042193
O   O2        1.0  0.34200  0.01320  0.02300  1.0000 -0.5215042193
O   O3        1.0  0.34200  0.48680  0.52300  1.0000 -0.5215042193
O   O4        1.0  0.65800  0.98680  0.97700  1.0000 -0.5215042193
O   O5        1.0  0.39340  0.48200  0.35880  1.0000 -0.5083016043
O   O6        1.0  0.60660  0.98200  0.14120  1.0000 -0.5083016043
O   O7        1.0  0.60660  0.51800  0.64120  1.0000 -0.5083016043
O   O8        1.0  0.39340  0.01800  0.85880  1.0000 -0.5083016043
O   O9        1.0  0.96970  0.39370  0.57010  1.0000 -0.5083016043
O   O10       1.0  0.03030  0.89370  0.92990  1.0000 -0.5043985133
O   O11       1.0  0.03030  0.60630  0.42990  1.0000 -0.5083016043
O   O12       1.0  0.96970  0.10630  0.07010  1.0000 -0.5083016043
O   O13       1.0  0.01580  0.38170  0.43470  1.0000 -0.5316271965
O   O14       1.0  0.98420  0.88170  0.06530  1.0000 -0.5316271965
O   O15       1.0  0.98420  0.61830  0.56530  1.0000 -0.5316271965
O   O16       1.0  0.01580  0.11830  0.93470  1.0000 -0.5316271965
O   O17       1.0  0.89830  0.35420  0.20340  1.0000 -0.5316271965
O   O18       1.0  0.10170  0.85420  0.29660  1.0000 -0.5316271965
O   O19       1.0  0.10170  0.64580  0.79660  1.0000 -0.5316271965
O   O20       1.0  0.89830  0.14580  0.70340  1.0000 -0.5316271965
O   O21       1.0  0.80660  0.17800  0.17430  1.0000 -0.5508026367
O   O22       1.0  0.19340  0.67800  0.32570  1.0000 -0.5508026367
O   O23       1.0  0.19340  0.82200  0.82570  1.0000 -0.5508026367
O   O24       1.0  0.80660  0.32200  0.67430  1.0000 -0.5508026367
O   O25       1.0  0.20290  0.28050  0.34390  1.0000 -0.5316271965
O   O26       1.0  0.79710  0.78050  0.15610  1.0000 -0.5316271965
O   O27       1.0  0.79710  0.71950  0.65610  1.0000 -0.5316271965
O   O28       1.0  0.20290  0.21950  0.84390  1.0000 -0.5316271965
O   O29       1.0  0.11390  0.10340  0.30370  1.0000 -0.5215042193
O   O30       1.0  0.88610  0.60340  0.19630  1.0000 -0.5215042193
O   O31       1.0  0.88610  0.89660  0.69630  1.0000 -0.5215042193
O   O32       1.0  0.11390  0.39660  0.80370  1.0000 -0.5215042193
