# DDEC6 charges by PACMAN v1.1 (https://github.com/mtap-research/PACMAN-charge/)
data_2013[Cu][cds]3[ASR]1
_chemical_formula_sum              "Cu4 H104 C128 N16 O40"
_cell_length_a       17.7882
_cell_length_b       17.7882
_cell_length_c       17.7882
_cell_angle_alpha    129.019
_cell_angle_beta     123.904
_cell_angle_gamma    79.2001

_symmetry_space_group_name_H-M    "P 1"
_symmetry_Int_Tables_number       1

loop_
  _symmetry_equiv_pos_as_xyz
  'x, y, z'

loop_
  _atom_site_type_symbol
  _atom_site_label
  _atom_site_symmetry_multiplicity
  _atom_site_fract_x
  _atom_site_fract_y
  _atom_site_fract_z
  _atom_site_occupancy
  _atom_site_charge
Cu  Cu1       1.0  0.00000  0.50000  0.00000  1.0000 0.7169629112
Cu  Cu2       1.0  0.00000  0.00000  0.50000  1.0000 0.7169629112
Cu  Cu3       1.0  0.50000  0.00000  0.00000  1.0000 0.7169629112
Cu  Cu4       1.0  0.50000  0.50000  0.50000  1.0000 0.7169629112
H   H1        1.0  0.19540  0.60710  0.21910  1.0000 0.1137720365
H   H2        1.0  0.88800  0.97630  0.28090  1.0000 0.1137720365
H   H3        1.0  0.80460  0.39290  0.78090  1.0000 0.1137720365
H   H4        1.0  0.11200  0.02370  0.71910  1.0000 0.1137720365
H   H5        1.0  0.34560  0.58580  0.28360  1.0000 0.1514461282
H   H6        1.0  0.80220  0.06200  0.21640  1.0000 0.1514461282
H   H7        1.0  0.65440  0.41420  0.71640  1.0000 0.1514461282
H   H8        1.0  0.19780  0.93800  0.78360  1.0000 0.1514461282
H   H9        1.0  0.24020  0.31700  0.95620  1.0000 0.1514461282
H   H10       1.0  0.86080  0.28400  0.54380  1.0000 0.1514461282
H   H11       1.0  0.75980  0.68300  0.04380  1.0000 0.1514461282
H   H12       1.0  0.13920  0.71600  0.45620  1.0000 0.1514461282
H   H13       1.0  0.09290  0.34510  0.89920  1.0000 0.1137720365
H   H14       1.0  0.94590  0.19370  0.60080  1.0000 0.1137720365
H   H15       1.0  0.90710  0.65490  0.10080  1.0000 0.1137720365
H   H16       1.0  0.05410  0.80630  0.39920  1.0000 0.1137720365
H   H17       1.0  0.45020  0.48080  0.25320  1.0000 0.1277495888
H   H18       1.0  0.72760  0.19700  0.24680  1.0000 0.1277495888
H   H19       1.0  0.54980  0.51920  0.74680  1.0000 0.1277495888
H   H20       1.0  0.27240  0.80300  0.75320  1.0000 0.1277495888
H   H21       1.0  0.40690  0.36510  0.13640  1.0000 0.1210514116
H   H22       1.0  0.72870  0.27050  0.36360  1.0000 0.1277495888
H   H23       1.0  0.59310  0.63490  0.86360  1.0000 0.1210514116
H   H24       1.0  0.27130  0.72950  0.63640  1.0000 0.1210514116
H   H25       1.0  0.55430  0.67470  0.16800  1.0000 0.1514461282
H   H26       1.0  0.00670  0.38630  0.33200  1.0000 0.1514461282
H   H27       1.0  0.44570  0.32530  0.83200  1.0000 0.1514461282
H   H28       1.0  0.99330  0.61370  0.66800  1.0000 0.1514461282
H   H29       1.0  0.81760  0.24800  0.86540  1.0000 0.1210514116
H   H30       1.0  0.88260  0.95220  0.63460  1.0000 0.1277495888
H   H31       1.0  0.18240  0.75200  0.13460  1.0000 0.1277495888
H   H32       1.0  0.11740  0.04780  0.36540  1.0000 0.1210514116
H   H33       1.0  0.76060  0.10090  0.80830  1.0000 0.1137720365
H   H34       1.0  0.79260  0.95230  0.69170  1.0000 0.1137720365
H   H35       1.0  0.23940  0.89910  0.19170  1.0000 0.1137720365
H   H36       1.0  0.20740  0.04770  0.30830  1.0000 0.1137720365
H   H37       1.0  0.93760  0.44520  0.12140  1.0000 0.1210514116
H   H38       1.0  0.82380  0.81620  0.37860  1.0000 0.1210514116
H   H39       1.0  0.06240  0.55480  0.87860  1.0000 0.1210514116
H   H40       1.0  0.17620  0.18380  0.62140  1.0000 0.1210514116
H   H41       1.0  0.91750  0.55320  0.16970  1.0000 0.1004330888
H   H42       1.0  0.88350  0.74780  0.33030  1.0000 0.1004330888
H   H43       1.0  0.08250  0.44680  0.83030  1.0000 0.1004330888
H   H44       1.0  0.11650  0.25220  0.66970  1.0000 0.1004330888
H   H45       1.0  0.99590  0.53730  0.26080  1.0000 0.1137720365
H   H46       1.0  0.77650  0.73510  0.23920  1.0000 0.1137720365
H   H47       1.0  0.00410  0.46270  0.73920  1.0000 0.1137720365
H   H48       1.0  0.22350  0.26490  0.76080  1.0000 0.1137720365
H   H49       1.0  0.00870  0.55580  0.13410  1.0000 0.2724303975
H   H50       1.0  0.92170  0.87460  0.36590  1.0000 0.2724303975
H   H51       1.0  0.99130  0.44420  0.86590  1.0000 0.2724303975
H   H52       1.0  0.07830  0.12540  0.63410  1.0000 0.2724303975
H   H53       1.0  0.61200  0.89290  0.08830  1.0000 0.1137720365
H   H54       1.0  0.30460  0.52370  0.41170  1.0000 0.1137720365
H   H55       1.0  0.38800  0.10710  0.91170  1.0000 0.1137720365
H   H56       1.0  0.69540  0.47630  0.58830  1.0000 0.1137720365
H   H57       1.0  0.69780  0.91420  0.25980  1.0000 0.1514461282
H   H58       1.0  0.15440  0.43800  0.24020  1.0000 0.1514461282
H   H59       1.0  0.30220  0.08580  0.74020  1.0000 0.1514461282
H   H60       1.0  0.84560  0.56200  0.75980  1.0000 0.1514461282
H   H61       1.0  0.63920  0.18300  0.42320  1.0000 0.1514461282
H   H62       1.0  0.25980  0.21600  0.07680  1.0000 0.1514461282
H   H63       1.0  0.36080  0.81700  0.57680  1.0000 0.1514461282
H   H64       1.0  0.74020  0.78400  0.92320  1.0000 0.1514461282
H   H65       1.0  0.55410  0.15490  0.24780  1.0000 0.1137720365
H   H66       1.0  0.40710  0.30630  0.25220  1.0000 0.1137720365
H   H67       1.0  0.44590  0.84510  0.75220  1.0000 0.1137720365
H   H68       1.0  0.59290  0.69370  0.74780  1.0000 0.1137720365
H   H69       1.0  0.77240  0.01920  0.46940  1.0000 0.1277495888
H   H70       1.0  0.04980  0.30300  0.03060  1.0000 0.1277495888
H   H71       1.0  0.22760  0.98080  0.53060  1.0000 0.1277495888
H   H72       1.0  0.95020  0.69700  0.96940  1.0000 0.1277495888
H   H73       1.0  0.77130  0.13490  0.54180  1.0000 0.1210514116
H   H74       1.0  0.09310  0.22950  0.95820  1.0000 0.1210514116
H   H75       1.0  0.22870  0.86510  0.45820  1.0000 0.1210514116
H   H76       1.0  0.90690  0.77050  0.04180  1.0000 0.1210514116
H   H77       1.0  0.49330  0.82530  0.37960  1.0000 0.1514461282
H   H78       1.0  0.94570  0.11370  0.12040  1.0000 0.1514461282
H   H79       1.0  0.50670  0.17470  0.62040  1.0000 0.1514461282
H   H80       1.0  0.05430  0.88630  0.87960  1.0000 0.1514461282
H   H81       1.0  0.61740  0.25200  0.06960  1.0000 0.1277495888
H   H82       1.0  0.68240  0.54780  0.43040  1.0000 0.1277495888
H   H83       1.0  0.38260  0.74800  0.93040  1.0000 0.1210514116
H   H84       1.0  0.31760  0.45220  0.56960  1.0000 0.1277495888
H   H85       1.0  0.70740  0.39910  0.15970  1.0000 0.1137720365
H   H86       1.0  0.73940  0.54770  0.34030  1.0000 0.1137720365
H   H87       1.0  0.29260  0.60090  0.84030  1.0000 0.1137720365
H   H88       1.0  0.26060  0.45230  0.65970  1.0000 0.1137720365
H   H89       1.0  0.67620  0.05480  0.99240  1.0000 0.1210514116
H   H90       1.0  0.56240  0.68380  0.50760  1.0000 0.1210514116
H   H91       1.0  0.32380  0.94520  0.00760  1.0000 0.1210514116
H   H92       1.0  0.43760  0.31620  0.49240  1.0000 0.1210514116
H   H93       1.0  0.61650  0.94680  0.86430  1.0000 0.1004330888
H   H94       1.0  0.58250  0.75220  0.63570  1.0000 0.1004330888
H   H95       1.0  0.38350  0.05320  0.13570  1.0000 0.1004330888
H   H96       1.0  0.41750  0.24780  0.36430  1.0000 0.1004330888
H   H97       1.0  0.72350  0.96270  0.95860  1.0000 0.1137720365
H   H98       1.0  0.50410  0.76490  0.54140  1.0000 0.1137720365
H   H99       1.0  0.27650  0.03730  0.04140  1.0000 0.1137720365
H   H100      1.0  0.49590  0.23510  0.45860  1.0000 0.1137720365
H   H101      1.0  0.57830  0.94420  0.95290  1.0000 0.2724303975
H   H102      1.0  0.49130  0.62540  0.54710  1.0000 0.2724303975
H   H103      1.0  0.42170  0.05580  0.04710  1.0000 0.2724303975
H   H104      1.0  0.50870  0.37460  0.45290  1.0000 0.2724303975
C   C1        1.0  0.20473  0.54773  0.16500  1.0000 0.0928005278
C   C2        1.0  0.88273  0.03973  0.33500  1.0000 0.0928005278
C   C3        1.0  0.79527  0.45227  0.83500  1.0000 0.0928005278
C   C4        1.0  0.11727  0.96027  0.66500  1.0000 0.0928005278
C   C5        1.0  0.29462  0.53542  0.20420  1.0000 -0.1812660033
C   C6        1.0  0.83122  0.09042  0.29580  1.0000 -0.1812660033
C   C7        1.0  0.70538  0.46458  0.79580  1.0000 -0.1812660033
C   C8        1.0  0.16878  0.90958  0.70420  1.0000 -0.1812660033
C   C9        1.0  0.30992  0.44922  0.12710  1.0000 0.1514461282
C   C10       1.0  0.82212  0.18282  0.37290  1.0000 0.1514461282
C   C11       1.0  0.69008  0.55078  0.87290  1.0000 0.1514461282
C   C12       1.0  0.17788  0.81718  0.62710  1.0000 0.1514461282
C   C13       1.0  0.23248  0.37728  0.01140  1.0000 -0.1812660033
C   C14       1.0  0.86588  0.22108  0.48860  1.0000 -0.1812660033
C   C15       1.0  0.76752  0.62272  0.98860  1.0000 -0.1812660033
C   C16       1.0  0.13412  0.77892  0.51140  1.0000 -0.1812660033
C   C17       1.0  0.14494  0.39454  0.97820  1.0000 0.073333241
C   C18       1.0  0.91634  0.16674  0.52180  1.0000 0.073333241
C   C19       1.0  0.85506  0.60546  0.02180  1.0000 0.073333241
C   C20       1.0  0.08366  0.83326  0.47820  1.0000 0.073333241
C   C21       1.0  0.40749  0.43439  0.16570  1.0000 -0.1523812786
C   C22       1.0  0.76869  0.24179  0.33430  1.0000 -0.1523812786
C   C23       1.0  0.59251  0.56561  0.83430  1.0000 -0.1523812786
C   C24       1.0  0.23131  0.75821  0.66570  1.0000 -0.1523812786
C   C25       1.0  0.48076  0.54816  0.17260  1.0000 0.4291753508
C   C26       1.0  0.87556  0.30816  0.32740  1.0000 0.4291753508
C   C27       1.0  0.51924  0.45184  0.82740  1.0000 0.4291753508
C   C28       1.0  0.12444  0.69184  0.67260  1.0000 0.4291753508
C   C29       1.0  0.42859  0.37929  0.00970  1.0000 0.4291753508
C   C30       1.0  0.86959  0.41889  0.49030  1.0000 0.4291753508
C   C31       1.0  0.57141  0.62071  0.99030  1.0000 0.4291753508
C   C32       1.0  0.13041  0.58111  0.50970  1.0000 0.4291753508
C   C33       1.0  0.49639  0.53439  0.09060  1.0000 -0.0512762023
C   C34       1.0  0.94379  0.40579  0.40940  1.0000 -0.0512762023
C   C35       1.0  0.50361  0.46561  0.90940  1.0000 -0.0512762023
C   C36       1.0  0.05621  0.59421  0.59060  1.0000 -0.0512762023
C   C37       1.0  0.53276  0.60536  0.10140  1.0000 -0.0747268334
C   C38       1.0  0.00396  0.43136  0.39860  1.0000 -0.075440228
C   C39       1.0  0.46724  0.39464  0.89860  1.0000 -0.0747268334
C   C40       1.0  0.99604  0.56864  0.60140  1.0000 -0.0747268334
C   C41       1.0  0.53512  0.56702  0.00730  1.0000 -0.0512762023
C   C42       1.0  0.05972  0.52782  0.49270  1.0000 -0.0512762023
C   C43       1.0  0.46488  0.43298  0.99270  1.0000 -0.0512762023
C   C44       1.0  0.94028  0.47218  0.50730  1.0000 -0.0512762023
C   C45       1.0  0.91539  0.28329  0.81570  1.0000 0.5553345754
C   C46       1.0  0.96759  0.09969  0.68430  1.0000 0.5553345754
C   C47       1.0  0.08461  0.71671  0.18430  1.0000 0.5553345754
C   C48       1.0  0.03241  0.90031  0.31570  1.0000 0.5553345754
C   C49       1.0  0.88384  0.18904  0.78380  1.0000 -0.0384173394
C   C50       1.0  0.90524  0.10004  0.71620  1.0000 -0.0384173394
C   C51       1.0  0.11616  0.81096  0.21620  1.0000 -0.0384173394
C   C52       1.0  0.09476  0.89996  0.28380  1.0000 -0.0384173394
C   C53       1.0  0.83083  0.18783  0.81800  1.0000 -0.1076891721
C   C54       1.0  0.86983  0.01283  0.68200  1.0000 -0.1076891721
C   C55       1.0  0.16917  0.81217  0.18200  1.0000 -0.1076891721
C   C56       1.0  0.13017  0.98717  0.31800  1.0000 -0.1076891721
C   C57       1.0  0.79703  0.10063  0.78440  1.0000 -0.1031053513
C   C58       1.0  0.81623  0.01263  0.71560  1.0000 -0.1031053513
C   C59       1.0  0.20297  0.89937  0.21560  1.0000 -0.1031053513
C   C60       1.0  0.18377  0.98737  0.28440  1.0000 -0.1031053513
C   C61       1.0  0.96610  0.51740  0.18290  1.0000 -0.2028052136
C   C62       1.0  0.83450  0.78320  0.31710  1.0000 -0.2028052136
C   C63       1.0  0.03390  0.48260  0.81710  1.0000 -0.2028052136
C   C64       1.0  0.16550  0.21680  0.68290  1.0000 -0.2028052136
C   C65       1.0  0.61727  0.95227  0.15700  1.0000 0.0928005278
C   C66       1.0  0.29527  0.46027  0.34300  1.0000 0.0928005278
C   C67       1.0  0.38273  0.04773  0.84300  1.0000 0.0928005278
C   C68       1.0  0.70473  0.53973  0.65700  1.0000 0.0928005278
C   C69       1.0  0.66878  0.96458  0.25920  1.0000 -0.1812660033
C   C70       1.0  0.20538  0.40958  0.24080  1.0000 -0.1812660033
C   C71       1.0  0.33122  0.03542  0.74080  1.0000 -0.1812660033
C   C72       1.0  0.79462  0.59042  0.75920  1.0000 -0.1812660033
C   C73       1.0  0.67788  0.05078  0.36070  1.0000 0.1514461282
C   C74       1.0  0.19008  0.31718  0.13930  1.0000 0.1514461282
C   C75       1.0  0.32212  0.94922  0.63930  1.0000 0.1514461282
C   C76       1.0  0.80992  0.68282  0.86070  1.0000 0.1514461282
C   C77       1.0  0.63412  0.12272  0.35520  1.0000 -0.1812660033
C   C78       1.0  0.26752  0.27892  0.14480  1.0000 -0.1812660033
C   C79       1.0  0.36588  0.87728  0.64480  1.0000 -0.1812660033
C   C80       1.0  0.73248  0.72108  0.85520  1.0000 -0.1812660033
C   C81       1.0  0.58366  0.10546  0.25040  1.0000 0.073333241
C   C82       1.0  0.35506  0.33326  0.24960  1.0000 0.073333241
C   C83       1.0  0.41634  0.89454  0.74960  1.0000 0.073333241
C   C84       1.0  0.64494  0.66674  0.75040  1.0000 0.073333241
C   C85       1.0  0.73131  0.06561  0.47310  1.0000 -0.1523812786
C   C86       1.0  0.09251  0.25821  0.02690  1.0000 -0.1523812786
C   C87       1.0  0.26869  0.93439  0.52690  1.0000 -0.1523812786
C   C88       1.0  0.90749  0.74179  0.97310  1.0000 -0.1523812786
C   C89       1.0  0.62444  0.95184  0.43260  1.0000 0.4291753508
C   C90       1.0  0.01924  0.19184  0.06740  1.0000 0.4291753508
C   C91       1.0  0.37556  0.04816  0.56740  1.0000 0.4291753508
C   C92       1.0  0.98076  0.80816  0.93260  1.0000 0.4291753508
C   C93       1.0  0.63041  0.12071  0.54930  1.0000 0.4291753508
C   C94       1.0  0.07141  0.08111  0.95070  1.0000 0.4291753508
C   C95       1.0  0.36959  0.87929  0.45070  1.0000 0.4291753508
C   C96       1.0  0.92859  0.91889  0.04930  1.0000 0.4291753508
C   C97       1.0  0.55621  0.96561  0.46200  1.0000 -0.0512762023
C   C98       1.0  0.00361  0.09421  0.03800  1.0000 -0.0512762023
C   C99       1.0  0.44379  0.03439  0.53800  1.0000 -0.0512762023
C   C100      1.0  0.99639  0.90579  0.96200  1.0000 -0.0512762023
C   C101      1.0  0.49604  0.89464  0.42740  1.0000 -0.075440228
C   C102      1.0  0.96724  0.06864  0.07260  1.0000 -0.0747268334
C   C103      1.0  0.50396  0.10536  0.57260  1.0000 -0.0747268334
C   C104      1.0  0.03276  0.93136  0.92740  1.0000 -0.075440228
C   C105      1.0  0.44028  0.93298  0.46810  1.0000 -0.0512762023
C   C106      1.0  0.96488  0.97218  0.03190  1.0000 -0.0512762023
C   C107      1.0  0.55972  0.06702  0.53190  1.0000 -0.0512762023
C   C108      1.0  0.03512  0.02782  0.96810  1.0000 -0.0512762023
C   C109      1.0  0.53241  0.21671  0.13210  1.0000 0.5553345754
C   C110      1.0  0.58461  0.40031  0.36790  1.0000 0.5553345754
C   C111      1.0  0.46759  0.78329  0.86790  1.0000 0.5553345754
C   C112      1.0  0.41539  0.59969  0.63210  1.0000 0.5553345754
C   C113      1.0  0.59476  0.31096  0.19480  1.0000 -0.0384173394
C   C114      1.0  0.61616  0.39996  0.30520  1.0000 -0.0384173394
C   C115      1.0  0.40524  0.68904  0.80520  1.0000 -0.0384173394
C   C116      1.0  0.38384  0.60004  0.69480  1.0000 -0.0384173394
C   C117      1.0  0.63017  0.31217  0.14300  1.0000 -0.1076891721
C   C118      1.0  0.66917  0.48717  0.35700  1.0000 -0.1076891721
C   C119      1.0  0.36983  0.68783  0.85700  1.0000 -0.1076891721
C   C120      1.0  0.33083  0.51283  0.64300  1.0000 -0.1076891721
C   C121      1.0  0.68377  0.39937  0.19640  1.0000 -0.1031053513
C   C122      1.0  0.70297  0.48737  0.30360  1.0000 -0.1031053513
C   C123      1.0  0.31623  0.60063  0.80360  1.0000 -0.1031053513
C   C124      1.0  0.29703  0.51263  0.69640  1.0000 -0.1031053513
C   C125      1.0  0.66550  0.98260  0.94870  1.0000 -0.2028052136
C   C126      1.0  0.53390  0.71680  0.55130  1.0000 -0.2028052136
C   C127      1.0  0.33450  0.01740  0.05130  1.0000 -0.2028052136
C   C128      1.0  0.46610  0.28320  0.44870  1.0000 -0.2028052136
N   N1        1.0  0.12933  0.47863  0.05270  1.0000 -0.2372075151
N   N2        1.0  0.92593  0.07663  0.44730  1.0000 -0.2372075151
N   N3        1.0  0.87067  0.52137  0.94730  1.0000 -0.2372075151
N   N4        1.0  0.07407  0.92337  0.55270  1.0000 -0.2372075151
N   N5        1.0  0.44134  0.45294  0.11900  1.0000 -0.1739380472
N   N6        1.0  0.83394  0.32234  0.38100  1.0000 -0.1739380472
N   N7        1.0  0.55866  0.54706  0.88100  1.0000 -0.1739380472
N   N8        1.0  0.16606  0.67766  0.61900  1.0000 -0.1739380472
N   N9        1.0  0.57407  0.02137  0.15070  1.0000 -0.2372075151
N   N10       1.0  0.37067  0.42337  0.34930  1.0000 -0.2372075151
N   N11       1.0  0.42593  0.97863  0.84930  1.0000 -0.2372075151
N   N12       1.0  0.62933  0.57663  0.65070  1.0000 -0.2372075151
N   N13       1.0  0.66606  0.04706  0.48840  1.0000 -0.1739380472
N   N14       1.0  0.05866  0.17766  0.01160  1.0000 -0.1739380472
N   N15       1.0  0.33394  0.95294  0.51160  1.0000 -0.1739380472
N   N16       1.0  0.94134  0.82234  0.98840  1.0000 -0.1739380472
O   O1        1.0  0.49748  0.62508  0.26660  1.0000 -0.420288831
O   O2        1.0  0.85848  0.23088  0.23340  1.0000 -0.420288831
O   O3        1.0  0.50252  0.37492  0.73340  1.0000 -0.420288831
O   O4        1.0  0.14152  0.76912  0.76660  1.0000 -0.420288831
O   O5        1.0  0.39353  0.29123  0.94450  1.0000 -0.4081401974
O   O6        1.0  0.84673  0.44903  0.55550  1.0000 -0.4081401974
O   O7        1.0  0.60647  0.70877  0.05550  1.0000 -0.4081401974
O   O8        1.0  0.15327  0.55097  0.44450  1.0000 -0.4081401974
O   O9        1.0  0.95065  0.36270  0.92315  1.0000 -0.5476442501
O   O10       1.0  0.93955  0.02750  0.57685  1.0000 -0.5476442501
O   O11       1.0  0.04935  0.63730  0.07685  1.0000 -0.5476442501
O   O12       1.0  0.06045  0.97250  0.42315  1.0000 -0.5476442501
O   O13       1.0  0.90246  0.27907  0.73617  1.0000 -0.5476442501
O   O14       1.0  0.04290  0.16629  0.76383  1.0000 -0.5476442501
O   O15       1.0  0.09754  0.72093  0.26383  1.0000 -0.5476442501
O   O16       1.0  0.95710  0.83371  0.23617  1.0000 -0.5476442501
O   O17       1.0  0.03372  0.54132  0.17840  1.0000 -0.3886238895
O   O18       1.0  0.86292  0.85532  0.32160  1.0000 -0.3886238895
O   O19       1.0  0.96628  0.45868  0.82160  1.0000 -0.3886238895
O   O20       1.0  0.13708  0.14468  0.67840  1.0000 -0.3886238895
O   O21       1.0  0.64152  0.87492  0.37240  1.0000 -0.420288831
O   O22       1.0  0.00252  0.26912  0.12760  1.0000 -0.420288831
O   O23       1.0  0.35848  0.12508  0.62760  1.0000 -0.420288831
O   O24       1.0  0.99748  0.73088  0.87240  1.0000 -0.420288831
O   O25       1.0  0.65327  0.20877  0.60230  1.0000 -0.4081401974
O   O26       1.0  0.10647  0.05097  0.89770  1.0000 -0.4081401974
O   O27       1.0  0.34673  0.79123  0.39770  1.0000 -0.4081401974
O   O28       1.0  0.89353  0.94903  0.10230  1.0000 -0.4081401974
O   O29       1.0  0.56045  0.13730  0.08795  1.0000 -0.5476442501
O   O30       1.0  0.54935  0.47250  0.41205  1.0000 -0.5476442501
O   O31       1.0  0.43955  0.86270  0.91205  1.0000 -0.5476442501
O   O32       1.0  0.45065  0.52750  0.58795  1.0000 -0.5476442501
O   O33       1.0  0.45710  0.22093  0.12339  1.0000 -0.5476442501
O   O34       1.0  0.59754  0.33371  0.37661  1.0000 -0.5476442501
O   O35       1.0  0.54290  0.77907  0.87661  1.0000 -0.5476442501
O   O36       1.0  0.40246  0.66629  0.62339  1.0000 -0.5476442501
O   O37       1.0  0.63708  0.95868  0.99240  1.0000 -0.3886238895
O   O38       1.0  0.46628  0.64468  0.50760  1.0000 -0.3886238895
O   O39       1.0  0.36292  0.04132  0.00760  1.0000 -0.3886238895
O   O40       1.0  0.53372  0.35532  0.49240  1.0000 -0.3886238895
