# DDEC6 charges by PACMAN v1.1 (https://github.com/mtap-research/PACMAN-charge/)
data_2013[Ni][nan]3[ASR]3
_chemical_formula_sum              "Ni3 H42 C78 N18 O12 F6"
_cell_length_a       15.54
_cell_length_b       15.54
_cell_length_c       18.679
_cell_angle_alpha    90
_cell_angle_beta     90
_cell_angle_gamma    120

_symmetry_space_group_name_H-M    "P 1"
_symmetry_Int_Tables_number       1

loop_
  _symmetry_equiv_pos_as_xyz
  'x, y, z'

loop_
  _atom_site_type_symbol
  _atom_site_label
  _atom_site_symmetry_multiplicity
  _atom_site_fract_x
  _atom_site_fract_y
  _atom_site_fract_z
  _atom_site_occupancy
  _atom_site_charge
Ni  Ni1       1.0  0.82532  0.00000  0.83333  1.0000 0.6705674329
Ni  Ni2       1.0  0.00000  0.82532  0.16667  1.0000 0.6705674329
Ni  Ni3       1.0  0.17468  0.17468  0.50000  1.0000 0.6705674329
H   H1        1.0  0.65150  0.81130  0.77600  1.0000 0.1044696965
H   H2        1.0  0.18870  0.84020  0.10933  1.0000 0.1044696965
H   H3        1.0  0.15980  0.34850  0.44267  1.0000 0.1044696965
H   H4        1.0  0.81130  0.65150  0.22400  1.0000 0.1044696965
H   H5        1.0  0.34850  0.15980  0.55733  1.0000 0.1044696965
H   H6        1.0  0.84020  0.18870  0.89067  1.0000 0.1044696965
H   H7        1.0  0.59860  0.70780  0.67710  1.0000 0.1328195283
H   H8        1.0  0.29220  0.89080  0.01043  1.0000 0.1328195283
H   H9        1.0  0.10920  0.40140  0.34377  1.0000 0.1328195283
H   H10       1.0  0.70780  0.59860  0.32290  1.0000 0.1328195283
H   H11       1.0  0.40140  0.10920  0.65623  1.0000 0.1328195283
H   H12       1.0  0.89080  0.29220  0.98957  1.0000 0.1328195283
H   H13       1.0  0.85990  0.89170  0.58600  1.0000 0.1388644757
H   H14       1.0  0.10830  0.96820  0.91933  1.0000 0.1388644757
H   H15       1.0  0.03180  0.14010  0.25267  1.0000 0.1388644757
H   H16       1.0  0.89170  0.85990  0.41400  1.0000 0.1388644757
H   H17       1.0  0.14010  0.03180  0.74733  1.0000 0.1388644757
H   H18       1.0  0.96820  0.10830  0.08067  1.0000 0.1388644757
H   H19       1.0  0.90100  0.99370  0.68360  1.0000 0.1104641059
H   H20       1.0  0.00630  0.90730  0.01693  1.0000 0.1104641059
H   H21       1.0  0.09270  0.09900  0.35027  1.0000 0.1104641059
H   H22       1.0  0.99370  0.90100  0.31640  1.0000 0.1104641059
H   H23       1.0  0.09900  0.09270  0.64973  1.0000 0.1104641059
H   H24       1.0  0.90730  0.00630  0.98307  1.0000 0.1104641059
H   H25       1.0  0.36220  0.28950  0.41010  1.0000 0.1166321659
H   H26       1.0  0.71050  0.07270  0.74343  1.0000 0.1166321659
H   H27       1.0  0.92730  0.63780  0.07677  1.0000 0.1166321659
H   H28       1.0  0.28950  0.36220  0.58990  1.0000 0.1166321659
H   H29       1.0  0.63780  0.92730  0.92323  1.0000 0.1166321659
H   H30       1.0  0.07270  0.71050  0.25657  1.0000 0.1166321659
H   H31       1.0  0.50540  0.44090  0.40520  1.0000 0.1388644757
H   H32       1.0  0.55910  0.06450  0.73853  1.0000 0.1388644757
H   H33       1.0  0.93550  0.49460  0.07187  1.0000 0.1388644757
H   H34       1.0  0.44090  0.50540  0.59480  1.0000 0.1388644757
H   H35       1.0  0.49460  0.93550  0.92813  1.0000 0.1388644757
H   H36       1.0  0.06450  0.55910  0.26147  1.0000 0.1388644757
H   H37       1.0  0.95450  0.45910  0.72000  1.0000 0.1388644757
H   H38       1.0  0.54090  0.49540  0.05333  1.0000 0.1388644757
H   H39       1.0  0.50460  0.04550  0.38667  1.0000 0.1388644757
H   H40       1.0  0.45910  0.95450  0.28000  1.0000 0.1388644757
H   H41       1.0  0.04550  0.50460  0.61333  1.0000 0.1388644757
H   H42       1.0  0.49540  0.54090  0.94667  1.0000 0.1388644757
C   C1        1.0  0.69350  0.82830  0.73660  1.0000 0.0778005084
C   C2        1.0  0.17170  0.86520  0.06993  1.0000 0.0778005084
C   C3        1.0  0.13480  0.30650  0.40327  1.0000 0.0778005084
C   C4        1.0  0.82830  0.69350  0.26340  1.0000 0.0778005084
C   C5        1.0  0.30650  0.13480  0.59673  1.0000 0.0778005084
C   C6        1.0  0.86520  0.17170  0.93007  1.0000 0.0778005084
C   C7        1.0  0.66090  0.76490  0.67791  1.0000 -0.1595432834
C   C8        1.0  0.23510  0.89600  0.01124  1.0000 -0.1595432834
C   C9        1.0  0.10400  0.33910  0.34458  1.0000 -0.1595432834
C   C10       1.0  0.76490  0.66090  0.32209  1.0000 -0.1595432834
C   C11       1.0  0.33910  0.10400  0.65542  1.0000 -0.1595432834
C   C12       1.0  0.89600  0.23510  0.98876  1.0000 -0.1595432834
C   C13       1.0  0.72540  0.79080  0.62090  1.0000 0.0577065546
C   C14       1.0  0.20920  0.93460  0.95423  1.0000 0.0577065546
C   C15       1.0  0.06540  0.27460  0.28757  1.0000 0.0577065546
C   C16       1.0  0.79080  0.72540  0.37910  1.0000 0.0577065546
C   C17       1.0  0.27460  0.06540  0.71243  1.0000 0.0577065546
C   C18       1.0  0.93460  0.20920  0.04577  1.0000 0.0577065546
C   C19       1.0  0.81550  0.87480  0.62380  1.0000 -0.1348545066
C   C20       1.0  0.12520  0.94070  0.95713  1.0000 -0.1348545066
C   C21       1.0  0.05930  0.18450  0.29047  1.0000 -0.1348545066
C   C22       1.0  0.87480  0.81550  0.37620  1.0000 -0.1367317319
C   C23       1.0  0.18450  0.05930  0.70953  1.0000 -0.1348545066
C   C24       1.0  0.94070  0.12520  0.04287  1.0000 -0.1348545066
C   C25       1.0  0.84030  0.93480  0.68305  1.0000 0.0877132302
C   C26       1.0  0.06520  0.90550  0.01638  1.0000 0.0877132302
C   C27       1.0  0.09450  0.15970  0.34972  1.0000 0.0877132302
C   C28       1.0  0.93480  0.84030  0.31695  1.0000 0.0877132302
C   C29       1.0  0.15970  0.09450  0.65028  1.0000 0.0877132302
C   C30       1.0  0.90550  0.06520  0.98362  1.0000 0.0877132302
C   C31       1.0  0.69320  0.72590  0.55460  1.0000 0.3760731556
C   C32       1.0  0.27410  0.96730  0.88793  1.0000 0.3760731556
C   C33       1.0  0.03270  0.30680  0.22127  1.0000 0.3760731556
C   C34       1.0  0.72590  0.69320  0.44540  1.0000 0.3702314371
C   C35       1.0  0.30680  0.03270  0.77873  1.0000 0.3760731556
C   C36       1.0  0.96730  0.27410  0.11207  1.0000 0.3760731556
C   C37       1.0  0.58450  0.58450  0.50000  1.0000 0.3702314371
C   C38       1.0  0.41550  0.00000  0.83333  1.0000 0.3702314371
C   C39       1.0  0.00000  0.41550  0.16667  1.0000 0.3702314371
C   C40       1.0  0.48890  0.48890  0.50000  1.0000 0.0577065546
C   C41       1.0  0.51110  0.00000  0.83333  1.0000 0.0577065546
C   C42       1.0  0.00000  0.51110  0.16667  1.0000 0.0577065546
C   C43       1.0  0.37560  0.33450  0.44720  1.0000 0.0778005084
C   C44       1.0  0.66550  0.04110  0.78053  1.0000 0.0778005084
C   C45       1.0  0.95890  0.62440  0.11387  1.0000 0.0778005084
C   C46       1.0  0.33450  0.37560  0.55280  1.0000 0.0778005084
C   C47       1.0  0.62440  0.95890  0.88613  1.0000 0.0778005084
C   C48       1.0  0.04110  0.66550  0.21947  1.0000 0.0778005084
C   C49       1.0  0.46370  0.42470  0.44480  1.0000 -0.1595432834
C   C50       1.0  0.57530  0.03900  0.77813  1.0000 -0.1595432834
C   C51       1.0  0.96100  0.53630  0.11147  1.0000 -0.1595432834
C   C52       1.0  0.42470  0.46370  0.55520  1.0000 -0.1595432834
C   C53       1.0  0.53630  0.96100  0.88853  1.0000 -0.1595432834
C   C54       1.0  0.03900  0.57530  0.22187  1.0000 -0.1595432834
C   C55       1.0  0.96900  0.17910  0.74310  1.0000 0.5784263411
C   C56       1.0  0.82090  0.78990  0.07643  1.0000 0.5784263411
C   C57       1.0  0.21010  0.03100  0.40977  1.0000 0.5784263411
C   C58       1.0  0.17910  0.96900  0.25690  1.0000 0.5784263411
C   C59       1.0  0.03100  0.21010  0.59023  1.0000 0.5784263411
C   C60       1.0  0.78990  0.82090  0.92357  1.0000 0.5784263411
C   C61       1.0  0.98490  0.26930  0.70150  1.0000 -0.1367317319
C   C62       1.0  0.73070  0.71560  0.03483  1.0000 -0.1367317319
C   C63       1.0  0.28440  0.01510  0.36817  1.0000 -0.1367317319
C   C64       1.0  0.26930  0.98490  0.29850  1.0000 -0.1367317319
C   C65       1.0  0.01510  0.28440  0.63183  1.0000 -0.1367317319
C   C66       1.0  0.71560  0.73070  0.96517  1.0000 -0.1367317319
C   C67       1.0  0.97310  0.34110  0.74560  1.0000 0.2984184025
C   C68       1.0  0.65890  0.63200  0.07893  1.0000 0.2984184025
C   C69       1.0  0.36800  0.02690  0.41227  1.0000 0.2984184025
C   C70       1.0  0.34110  0.97310  0.25440  1.0000 0.2984184025
C   C71       1.0  0.02690  0.36800  0.58773  1.0000 0.2984184025
C   C72       1.0  0.63200  0.65890  0.92107  1.0000 0.2984184025
C   C73       1.0  0.97910  0.41990  0.70180  1.0000 -0.1963026127
C   C74       1.0  0.58010  0.55920  0.03513  1.0000 -0.1963026127
C   C75       1.0  0.44080  0.02090  0.36847  1.0000 -0.1963026127
C   C76       1.0  0.41990  0.97910  0.29820  1.0000 -0.1941512576
C   C77       1.0  0.02090  0.44080  0.63153  1.0000 -0.1963026127
C   C78       1.0  0.55920  0.58010  0.96487  1.0000 -0.1963026127
N   N1        1.0  0.78090  0.91180  0.74008  1.0000 -0.2075458088
N   N2        1.0  0.08820  0.86910  0.07341  1.0000 -0.2075458088
N   N3        1.0  0.13090  0.21910  0.40675  1.0000 -0.2075458088
N   N4        1.0  0.91180  0.78090  0.25992  1.0000 -0.2075458088
N   N5        1.0  0.21910  0.13090  0.59325  1.0000 -0.2075458088
N   N6        1.0  0.86910  0.08820  0.92659  1.0000 -0.2075458088
N   N7        1.0  0.60610  0.64060  0.55863  1.0000 -0.4157777033
N   N8        1.0  0.35940  0.96550  0.89196  1.0000 -0.4137686095
N   N9        1.0  0.03450  0.39390  0.22530  1.0000 -0.4137686095
N   N10       1.0  0.64060  0.60610  0.44137  1.0000 -0.4157777033
N   N11       1.0  0.39390  0.03450  0.77470  1.0000 -0.4137686095
N   N12       1.0  0.96550  0.35940  0.10804  1.0000 -0.4137686095
N   N13       1.0  0.75610  0.75610  0.50000  1.0000 -0.3955668808
N   N14       1.0  0.24390  0.00000  0.83333  1.0000 -0.3955668808
N   N15       1.0  0.00000  0.24390  0.16667  1.0000 -0.3955668808
N   N16       1.0  0.30870  0.30870  0.50000  1.0000 -0.2075458088
N   N17       1.0  0.69130  0.00000  0.83333  1.0000 -0.2075458088
N   N18       1.0  0.00000  0.69130  0.16667  1.0000 -0.2075458088
O   O1        1.0  0.88492  0.12851  0.77169  1.0000 -0.5637010337
O   O2        1.0  0.87149  0.75641  0.10502  1.0000 -0.5637010337
O   O3        1.0  0.24359  0.11508  0.43836  1.0000 -0.5637010337
O   O4        1.0  0.12851  0.88492  0.22831  1.0000 -0.5637010337
O   O5        1.0  0.11508  0.24359  0.56164  1.0000 -0.5637010337
O   O6        1.0  0.75641  0.87149  0.89498  1.0000 -0.5637010337
O   O7        1.0  0.03790  0.16010  0.74630  1.0000 -0.5425628226
O   O8        1.0  0.83990  0.87780  0.07963  1.0000 -0.5425628226
O   O9        1.0  0.12220  0.96210  0.41297  1.0000 -0.5425628226
O   O10       1.0  0.16010  0.03790  0.25370  1.0000 -0.5425628226
O   O11       1.0  0.96210  0.12220  0.58703  1.0000 -0.5425628226
O   O12       1.0  0.87780  0.83990  0.92037  1.0000 -0.5425628226
F   F1        1.0  0.94530  0.33980  0.81570  1.0000 -0.1664626699
F   F2        1.0  0.66020  0.60550  0.14903  1.0000 -0.1664626699
F   F3        1.0  0.39450  0.05470  0.48237  1.0000 -0.1664626699
F   F4        1.0  0.33980  0.94530  0.18430  1.0000 -0.1664626699
F   F5        1.0  0.05470  0.39450  0.51763  1.0000 -0.1664626699
F   F6        1.0  0.60550  0.66020  0.85097  1.0000 -0.1664626699
