# DDEC6 charges by PACMAN v1.1 (https://github.com/mtap-research/PACMAN-charge/)
data_2013[Zn][rtl]3[ASR]1
_chemical_formula_sum              "Zn4 H32 C76 N8 O24"
_cell_length_a       5.6415
_cell_length_b       27.633
_cell_length_c       14.9245
_cell_angle_alpha    90
_cell_angle_beta     101.695
_cell_angle_gamma    90

_symmetry_space_group_name_H-M    "P 1"
_symmetry_Int_Tables_number       1

loop_
  _symmetry_equiv_pos_as_xyz
  'x, y, z'

loop_
  _atom_site_type_symbol
  _atom_site_label
  _atom_site_symmetry_multiplicity
  _atom_site_fract_x
  _atom_site_fract_y
  _atom_site_fract_z
  _atom_site_occupancy
  _atom_site_charge
Zn  Zn1       1.0  0.62848  0.02372  0.58923  1.0000 0.8522491528
Zn  Zn2       1.0  0.37152  0.52372  0.91077  1.0000 0.8522491528
Zn  Zn3       1.0  0.37152  0.97628  0.41077  1.0000 0.8522491528
Zn  Zn4       1.0  0.62848  0.47628  0.08923  1.0000 0.8522491528
H   H1        1.0  0.52070  0.57720  0.76050  1.0000 0.1185276879
H   H2        1.0  0.47930  0.07720  0.73950  1.0000 0.1185276879
H   H3        1.0  0.47930  0.42280  0.23950  1.0000 0.1185276879
H   H4        1.0  0.52070  0.92280  0.26050  1.0000 0.1185276879
H   H5        1.0  0.47470  0.65440  0.69740  1.0000 0.1487961111
H   H6        1.0  0.52530  0.15440  0.80260  1.0000 0.1487961111
H   H7        1.0  0.52530  0.34560  0.30260  1.0000 0.1487961111
H   H8        1.0  0.47470  0.84560  0.19740  1.0000 0.1487961111
H   H9        1.0  0.90390  0.67510  0.82060  1.0000 0.1487961111
H   H10       1.0  0.09610  0.17510  0.67940  1.0000 0.1487961111
H   H11       1.0  0.09610  0.32490  0.17940  1.0000 0.1487961111
H   H12       1.0  0.90390  0.82490  0.32060  1.0000 0.1487961111
H   H13       1.0  0.96080  0.59630  0.87900  1.0000 0.1185276879
H   H14       1.0  0.03920  0.09630  0.62100  1.0000 0.1185276879
H   H15       1.0  0.03920  0.40370  0.12100  1.0000 0.1185276879
H   H16       1.0  0.96080  0.90370  0.37900  1.0000 0.1185276879
H   H17       1.0  0.61660  0.77500  0.53740  1.0000 0.1281029934
H   H18       1.0  0.38340  0.27500  0.96260  1.0000 0.1281029934
H   H19       1.0  0.38340  0.22500  0.46260  1.0000 0.1281029934
H   H20       1.0  0.61660  0.72500  0.03740  1.0000 0.1281029934
H   H21       1.0  0.57220  0.85510  0.48600  1.0000 0.1281029934
H   H22       1.0  0.42780  0.35510  0.01400  1.0000 0.1281029934
H   H23       1.0  0.42780  0.14490  0.51400  1.0000 0.1281029934
H   H24       1.0  0.57220  0.64490  0.98600  1.0000 0.1281029934
H   H25       1.0  0.61150  0.90830  0.75170  1.0000 0.1281029934
H   H26       1.0  0.38850  0.40830  0.74830  1.0000 0.1281029934
H   H27       1.0  0.38850  0.09170  0.24830  1.0000 0.1281029934
H   H28       1.0  0.61150  0.59170  0.25170  1.0000 0.1281029934
H   H29       1.0  0.64180  0.82800  0.80490  1.0000 0.1281029934
H   H30       1.0  0.35820  0.32800  0.69510  1.0000 0.1281029934
H   H31       1.0  0.35820  0.17200  0.19510  1.0000 0.1281029934
H   H32       1.0  0.64180  0.67200  0.30490  1.0000 0.1281029934
C   C1        1.0  0.39520  0.59740  0.77310  1.0000 0.1057635842
C   C2        1.0  0.60480  0.09740  0.72690  1.0000 0.1057635842
C   C3        1.0  0.60480  0.40260  0.22690  1.0000 0.1057635842
C   C4        1.0  0.39520  0.90260  0.27310  1.0000 0.1057635842
C   C5        1.0  0.37030  0.64334  0.73570  1.0000 -0.2012976112
C   C6        1.0  0.62970  0.14334  0.76430  1.0000 -0.2012976112
C   C7        1.0  0.62970  0.35666  0.26430  1.0000 -0.2012976112
C   C8        1.0  0.37030  0.85666  0.23570  1.0000 -0.2012976112
C   C9        1.0  0.19010  0.67270  0.75520  1.0000 0.2357738836
C   C10       1.0  0.80990  0.17270  0.74480  1.0000 0.2357738836
C   C11       1.0  0.80990  0.32730  0.24480  1.0000 0.2357738836
C   C12       1.0  0.19010  0.82730  0.25520  1.0000 0.2357738836
C   C13       1.0  0.03200  0.65553  0.80830  1.0000 -0.2067005264
C   C14       1.0  0.96800  0.15553  0.69170  1.0000 -0.2067005264
C   C15       1.0  0.96800  0.34447  0.19170  1.0000 -0.2067005264
C   C16       1.0  0.03200  0.84447  0.30830  1.0000 -0.2067005264
C   C17       1.0  0.06760  0.60871  0.84290  1.0000 0.0904701797
C   C18       1.0  0.93240  0.10871  0.65710  1.0000 0.0904701797
C   C19       1.0  0.93240  0.39129  0.15710  1.0000 0.0904701797
C   C20       1.0  0.06760  0.89129  0.34290  1.0000 0.0904701797
C   C21       1.0  0.95320  0.73448  0.66010  1.0000 0.4559933318
C   C22       1.0  0.04680  0.23448  0.83990  1.0000 0.4559933318
C   C23       1.0  0.04680  0.26552  0.33990  1.0000 0.4559933318
C   C24       1.0  0.95320  0.76552  0.16010  1.0000 0.4559933318
C   C25       1.0  0.93400  0.78537  0.62750  1.0000 -0.0769745436
C   C26       1.0  0.06600  0.28537  0.87250  1.0000 -0.0769745436
C   C27       1.0  0.06600  0.21463  0.37250  1.0000 -0.0769745436
C   C28       1.0  0.93400  0.71463  0.12750  1.0000 -0.0769745436
C   C29       1.0  0.11980  0.81932  0.66060  1.0000 0.0331539547
C   C30       1.0  0.88020  0.31932  0.83940  1.0000 0.0331539547
C   C31       1.0  0.88020  0.18068  0.33940  1.0000 0.0331539547
C   C32       1.0  0.11980  0.68068  0.16060  1.0000 0.0331539547
C   C33       1.0  0.32730  0.80498  0.72580  1.0000 -0.0738573002
C   C34       1.0  0.67270  0.30498  0.77420  1.0000 -0.0738573002
C   C35       1.0  0.67270  0.19502  0.27420  1.0000 -0.0738573002
C   C36       1.0  0.32730  0.69502  0.22580  1.0000 -0.0738573002
C   C37       1.0  0.36040  0.75370  0.75670  1.0000 0.453147657
C   C38       1.0  0.63960  0.25370  0.74330  1.0000 0.453147657
C   C39       1.0  0.63960  0.24630  0.24330  1.0000 0.453147657
C   C40       1.0  0.36040  0.74630  0.25670  1.0000 0.453147657
C   C41       1.0  0.73560  0.79847  0.56170  1.0000 -0.0769745436
C   C42       1.0  0.26440  0.29847  0.93830  1.0000 -0.0769745436
C   C43       1.0  0.26440  0.20153  0.43830  1.0000 -0.0769745436
C   C44       1.0  0.73560  0.70153  0.06170  1.0000 -0.0769745436
C   C45       1.0  0.71020  0.84634  0.53090  1.0000 -0.1104109029
C   C46       1.0  0.28980  0.34634  0.96910  1.0000 -0.1104109029
C   C47       1.0  0.28980  0.15366  0.46910  1.0000 -0.1104109029
C   C48       1.0  0.71020  0.65366  0.03090  1.0000 -0.1104109029
C   C49       1.0  0.87980  0.88098  0.56390  1.0000 -0.0443039911
C   C50       1.0  0.12020  0.38098  0.93610  1.0000 -0.0443039911
C   C51       1.0  0.12020  0.11902  0.43610  1.0000 -0.0443039911
C   C52       1.0  0.87980  0.61902  0.06390  1.0000 -0.0443039911
C   C53       1.0  0.09830  0.86808  0.62840  1.0000 0.0412188319
C   C54       1.0  0.90170  0.36808  0.87160  1.0000 0.0412188319
C   C55       1.0  0.90170  0.13192  0.37160  1.0000 0.0412188319
C   C56       1.0  0.09830  0.63192  0.12840  1.0000 0.0412188319
C   C57       1.0  0.29460  0.90064  0.66020  1.0000 -0.0332636873
C   C58       1.0  0.70540  0.40064  0.83980  1.0000 -0.0332636873
C   C59       1.0  0.70540  0.09936  0.33980  1.0000 -0.0332636873
C   C60       1.0  0.29460  0.59936  0.16020  1.0000 -0.0332636873
C   C61       1.0  0.48840  0.88570  0.72720  1.0000 -0.1104109029
C   C62       1.0  0.51160  0.38570  0.77280  1.0000 -0.1104109029
C   C63       1.0  0.51160  0.11430  0.27280  1.0000 -0.1104109029
C   C64       1.0  0.48840  0.61430  0.22720  1.0000 -0.1104109029
C   C65       1.0  0.50630  0.83769  0.75970  1.0000 -0.0769745436
C   C66       1.0  0.49370  0.33769  0.74030  1.0000 -0.0769745436
C   C67       1.0  0.49370  0.16231  0.24030  1.0000 -0.0769745436
C   C68       1.0  0.50630  0.66231  0.25970  1.0000 -0.0769745436
C   C69       1.0  0.80950  0.93292  0.53870  1.0000 0.5940254403
C   C70       1.0  0.19050  0.43292  0.96130  1.0000 0.5940254403
C   C71       1.0  0.19050  0.06708  0.46130  1.0000 0.5940254403
C   C72       1.0  0.80950  0.56708  0.03870  1.0000 0.5940254403
C   C73       1.0  0.32780  0.94768  0.61210  1.0000 0.5996084583
C   C74       1.0  0.67220  0.44768  0.88790  1.0000 0.5996084583
C   C75       1.0  0.67220  0.05232  0.38790  1.0000 0.5996084583
C   C76       1.0  0.32780  0.55232  0.11210  1.0000 0.5996084583
N   N1        1.0  0.25030  0.58022  0.82650  1.0000 -0.2236736494
N   N2        1.0  0.74970  0.08022  0.67350  1.0000 -0.2236736494
N   N3        1.0  0.74970  0.41978  0.17350  1.0000 -0.2236736494
N   N4        1.0  0.25030  0.91978  0.32650  1.0000 -0.2236736494
N   N5        1.0  0.16700  0.72224  0.72270  1.0000 -0.2389030086
N   N6        1.0  0.83300  0.22224  0.77730  1.0000 -0.2389030086
N   N7        1.0  0.83300  0.27776  0.27730  1.0000 -0.2389030086
N   N8        1.0  0.16700  0.77776  0.22270  1.0000 -0.2389030086
O   O1        1.0  0.84490  0.96427  0.60150  1.0000 -0.5080916809
O   O2        1.0  0.15510  0.46427  0.89850  1.0000 -0.5080916809
O   O3        1.0  0.15510  0.03573  0.39850  1.0000 -0.5080916809
O   O4        1.0  0.84490  0.53573  0.10150  1.0000 -0.5080916809
O   O5        1.0  0.69510  0.93907  0.45740  1.0000 -0.5629226195
O   O6        1.0  0.30490  0.43907  0.04260  1.0000 -0.5629226195
O   O7        1.0  0.30490  0.06093  0.54260  1.0000 -0.5629226195
O   O8        1.0  0.69510  0.56093  0.95740  1.0000 -0.5629226195
O   O9        1.0  0.42970  0.98186  0.66180  1.0000 -0.5234357791
O   O10       1.0  0.57030  0.48186  0.83820  1.0000 -0.5234357791
O   O11       1.0  0.57030  0.01814  0.33820  1.0000 -0.5234357791
O   O12       1.0  0.42970  0.51814  0.16180  1.0000 -0.5234357791
O   O13       1.0  0.27810  0.94604  0.52590  1.0000 -0.5629226195
O   O14       1.0  0.72190  0.44604  0.97410  1.0000 -0.5629226195
O   O15       1.0  0.72190  0.05396  0.47410  1.0000 -0.5629226195
O   O16       1.0  0.27810  0.55396  0.02590  1.0000 -0.5629226195
O   O17       1.0  0.53830  0.73895  0.80920  1.0000 -0.4336112367
O   O18       1.0  0.46170  0.23895  0.69080  1.0000 -0.4336112367
O   O19       1.0  0.46170  0.26105  0.19080  1.0000 -0.4336112367
O   O20       1.0  0.53830  0.76105  0.30920  1.0000 -0.4336112367
O   O21       1.0  0.79630  0.70401  0.63530  1.0000 -0.4437348994
O   O22       1.0  0.20370  0.20401  0.86470  1.0000 -0.4437348994
O   O23       1.0  0.20370  0.29599  0.36470  1.0000 -0.4437348994
O   O24       1.0  0.79630  0.79599  0.13530  1.0000 -0.4437348994
