# DDEC6 charges by PACMAN v1.1 (https://github.com/mtap-research/PACMAN-charge/)
data_2013[Eu][nan]3[ASR]3
_chemical_formula_sum              "Eu12 H120 C176 S16 N16 O66"
_cell_length_a       24.2069
_cell_length_b       24.2069
_cell_length_c       28.3561
_cell_angle_alpha    60.317
_cell_angle_beta     119.683
_cell_angle_gamma    153.748

_symmetry_space_group_name_H-M    "P 1"
_symmetry_Int_Tables_number       1

loop_
  _symmetry_equiv_pos_as_xyz
  'x, y, z'

loop_
  _atom_site_type_symbol
  _atom_site_label
  _atom_site_symmetry_multiplicity
  _atom_site_fract_x
  _atom_site_fract_y
  _atom_site_fract_z
  _atom_site_occupancy
  _atom_site_charge
Eu  Eu1       1.0  0.83828  0.40458  0.41763  1.0000 2.1255529722
Eu  Eu2       1.0  0.40458  0.83828  0.08237  1.0000 2.122344176
Eu  Eu3       1.0  0.16172  0.59542  0.58237  1.0000 2.122344176
Eu  Eu4       1.0  0.59542  0.16172  0.91763  1.0000 2.122344176
Eu  Eu5       1.0  0.82593  0.29425  0.56286  1.0000 2.146717151
Eu  Eu6       1.0  0.29425  0.82593  0.93714  1.0000 2.1433533033
Eu  Eu7       1.0  0.17408  0.70576  0.43714  1.0000 2.1433533033
Eu  Eu8       1.0  0.70576  0.17408  0.06286  1.0000 2.1433533033
Eu  Eu9       1.0  0.01953  0.41619  0.49028  1.0000 2.1828282674
Eu  Eu10      1.0  0.41619  0.01953  0.00972  1.0000 2.1828282674
Eu  Eu11      1.0  0.98047  0.58381  0.50972  1.0000 2.1865728696
Eu  Eu12      1.0  0.58381  0.98047  0.99028  1.0000 2.1828282674
H   H1        1.0  0.33220  0.26820  0.06130  1.0000 0.275562187
H   H2        1.0  0.26820  0.33220  0.43870  1.0000 0.275562187
H   H3        1.0  0.66780  0.73180  0.93870  1.0000 0.275562187
H   H4        1.0  0.73180  0.66780  0.56130  1.0000 0.275562187
H   H5        1.0  0.52860  0.36500  0.20880  1.0000 0.1304606635
H   H6        1.0  0.36500  0.52860  0.29120  1.0000 0.1304606635
H   H7        1.0  0.47140  0.63500  0.79120  1.0000 0.1304606635
H   H8        1.0  0.63500  0.47140  0.70880  1.0000 0.1304606635
H   H9        1.0  0.54320  0.49540  0.16530  1.0000 0.1304606635
H   H10       1.0  0.49540  0.54320  0.33470  1.0000 0.1304606635
H   H11       1.0  0.45680  0.50460  0.83470  1.0000 0.1304606635
H   H12       1.0  0.50460  0.45680  0.66530  1.0000 0.1304606635
H   H13       1.0  0.18470  0.92090  0.05630  1.0000 0.1304606635
H   H14       1.0  0.92090  0.18470  0.44370  1.0000 0.1304606635
H   H15       1.0  0.81530  0.07910  0.94370  1.0000 0.1304606635
H   H16       1.0  0.07910  0.81530  0.55630  1.0000 0.1304606635
H   H17       1.0  0.34630  0.04950  0.13280  1.0000 0.1304606635
H   H18       1.0  0.04950  0.34630  0.36720  1.0000 0.1304606635
H   H19       1.0  0.65370  0.95050  0.86720  1.0000 0.1304606635
H   H20       1.0  0.95050  0.65370  0.63280  1.0000 0.1304606635
H   H21       1.0  0.16960  0.14120  0.98280  1.0000 0.273072203
H   H22       1.0  0.14120  0.16960  0.51720  1.0000 0.273072203
H   H23       1.0  0.83040  0.85880  0.01720  1.0000 0.273072203
H   H24       1.0  0.85880  0.83040  0.48280  1.0000 0.273072203
H   H25       1.0  0.90950  0.99210  0.85430  1.0000 0.1304606635
H   H26       1.0  0.99210  0.90950  0.64570  1.0000 0.1304606635
H   H27       1.0  0.09050  0.00790  0.14570  1.0000 0.1304606635
H   H28       1.0  0.00790  0.09050  0.35430  1.0000 0.1304606635
H   H29       1.0  0.87490  0.84510  0.90400  1.0000 0.1304606635
H   H30       1.0  0.84510  0.87490  0.59600  1.0000 0.1304606635
H   H31       1.0  0.12510  0.15490  0.09600  1.0000 0.1304606635
H   H32       1.0  0.15490  0.12510  0.40400  1.0000 0.1304606635
H   H33       1.0  0.40920  0.56840  0.96170  1.0000 0.1304606635
H   H34       1.0  0.56840  0.40920  0.53830  1.0000 0.1304606635
H   H35       1.0  0.59080  0.43160  0.03830  1.0000 0.1304606635
H   H36       1.0  0.43160  0.59080  0.46170  1.0000 0.1304606635
H   H37       1.0  0.26300  0.45180  0.88140  1.0000 0.121263692
H   H38       1.0  0.45180  0.26300  0.61860  1.0000 0.121263692
H   H39       1.0  0.73700  0.54820  0.11860  1.0000 0.121263692
H   H40       1.0  0.54820  0.73700  0.38140  1.0000 0.121263692
H   H41       1.0  0.62300  0.34840  0.17560  1.0000 0.121263692
H   H42       1.0  0.34840  0.62300  0.32440  1.0000 0.121263692
H   H43       1.0  0.37700  0.65160  0.82440  1.0000 0.121263692
H   H44       1.0  0.65160  0.37700  0.67560  1.0000 0.121263692
H   H45       1.0  0.70340  0.33160  0.25990  1.0000 0.14135036
H   H46       1.0  0.33160  0.70340  0.24010  1.0000 0.14135036
H   H47       1.0  0.29660  0.66840  0.74010  1.0000 0.14135036
H   H48       1.0  0.66840  0.29660  0.75990  1.0000 0.14135036
H   H49       1.0  0.36410  0.01330  0.31140  1.0000 0.14135036
H   H50       1.0  0.01330  0.36410  0.18860  1.0000 0.14135036
H   H51       1.0  0.63590  0.98670  0.68860  1.0000 0.14135036
H   H52       1.0  0.98670  0.63590  0.81140  1.0000 0.14135036
H   H53       1.0  0.28580  0.03280  0.22880  1.0000 0.121263692
H   H54       1.0  0.03280  0.28580  0.27120  1.0000 0.121263692
H   H55       1.0  0.71420  0.96720  0.77120  1.0000 0.121263692
H   H56       1.0  0.96720  0.71420  0.72880  1.0000 0.121263692
H   H57       1.0  0.93810  0.72970  0.05670  1.0000 0.113788239
H   H58       1.0  0.72970  0.93810  0.44330  1.0000 0.113788239
H   H59       1.0  0.06190  0.27030  0.94330  1.0000 0.113788239
H   H60       1.0  0.27030  0.06190  0.55670  1.0000 0.113788239
H   H61       1.0  0.85040  0.57040  0.04360  1.0000 0.1304606635
H   H62       1.0  0.57040  0.85040  0.45640  1.0000 0.1304606635
H   H63       1.0  0.14960  0.42960  0.95640  1.0000 0.1304606635
H   H64       1.0  0.42960  0.14960  0.54360  1.0000 0.1304606635
H   H65       1.0  0.93640  0.73740  0.88810  1.0000 0.1304606635
H   H66       1.0  0.73740  0.93640  0.61190  1.0000 0.1304606635
H   H67       1.0  0.06360  0.26260  0.11190  1.0000 0.1304606635
H   H68       1.0  0.26260  0.06360  0.38810  1.0000 0.1304606635
H   H69       1.0  0.01810  0.89210  0.90100  1.0000 0.121263692
H   H70       1.0  0.89210  0.01810  0.59900  1.0000 0.121263692
H   H71       1.0  0.98190  0.10790  0.09900  1.0000 0.121263692
H   H72       1.0  0.10790  0.98190  0.40100  1.0000 0.121263692
H   H73       1.0  0.92440  0.11920  0.87120  1.0000 0.113788239
H   H74       1.0  0.11920  0.92440  0.62880  1.0000 0.113788239
H   H75       1.0  0.07560  0.88080  0.12880  1.0000 0.113788239
H   H76       1.0  0.88080  0.07560  0.37120  1.0000 0.113788239
H   H77       1.0  0.87740  0.17940  0.79560  1.0000 0.121263692
H   H78       1.0  0.17940  0.87740  0.70440  1.0000 0.121263692
H   H79       1.0  0.12260  0.82060  0.20440  1.0000 0.121263692
H   H80       1.0  0.82060  0.12260  0.29560  1.0000 0.121263692
H   H81       1.0  0.17310  0.42050  0.72970  1.0000 0.14135036
H   H82       1.0  0.42050  0.17310  0.77030  1.0000 0.14135036
H   H83       1.0  0.82690  0.57950  0.27030  1.0000 0.14135036
H   H84       1.0  0.57950  0.82690  0.22970  1.0000 0.14135036
H   H85       1.0  0.21800  0.35840  0.80450  1.0000 0.1304606635
H   H86       1.0  0.35840  0.21800  0.69550  1.0000 0.121263692
H   H87       1.0  0.78200  0.64160  0.19550  1.0000 0.121263692
H   H88       1.0  0.64160  0.78200  0.30450  1.0000 0.1304606635
H   H89       1.0  0.66290  0.69910  0.07240  1.0000 0.121263692
H   H90       1.0  0.69910  0.66290  0.42760  1.0000 0.121263692
H   H91       1.0  0.33710  0.30090  0.92760  1.0000 0.121263692
H   H92       1.0  0.30090  0.33710  0.57240  1.0000 0.121263692
H   H93       1.0  0.74080  0.85020  0.08800  1.0000 0.121263692
H   H94       1.0  0.85020  0.74080  0.41200  1.0000 0.121263692
H   H95       1.0  0.25920  0.14980  0.91200  1.0000 0.121263692
H   H96       1.0  0.14980  0.25920  0.58800  1.0000 0.121263692
H   H97       1.0  0.38840  0.58580  0.09330  1.0000 0.1304606635
H   H98       1.0  0.58580  0.38840  0.40670  1.0000 0.1304606635
H   H99       1.0  0.61160  0.41420  0.90670  1.0000 0.1304606635
H   H100      1.0  0.41420  0.61160  0.59330  1.0000 0.1304606635
H   H101      1.0  0.31140  0.43760  0.07610  1.0000 0.113788239
H   H102      1.0  0.43760  0.31140  0.42390  1.0000 0.113788239
H   H103      1.0  0.68860  0.56240  0.92390  1.0000 0.113788239
H   H104      1.0  0.56240  0.68860  0.57610  1.0000 0.113788239
H   H105      1.0  0.99340  0.34100  0.60820  1.0000 0.4201169332
H   H106      1.0  0.34100  0.99340  0.89180  1.0000 0.4201169332
H   H107      1.0  0.00660  0.65900  0.39180  1.0000 0.4201169332
H   H108      1.0  0.65900  0.00660  0.10820  1.0000 0.4201169332
H   H109      1.0  0.27030  0.65870  0.51060  1.0000 0.4085572263
H   H110      1.0  0.65870  0.27030  0.98940  1.0000 0.4085572263
H   H111      1.0  0.72970  0.34130  0.48940  1.0000 0.4085572263
H   H112      1.0  0.34130  0.72970  0.01060  1.0000 0.4085572263
H   H113      1.0  0.00540  0.49700  0.38000  1.0000 0.4201169332
H   H114      1.0  0.49700  0.00540  0.12000  1.0000 0.4201169332
H   H115      1.0  0.99460  0.50300  0.62000  1.0000 0.4258222481
H   H116      1.0  0.50300  0.99460  0.88000  1.0000 0.4258222481
H   H117      1.0  0.74070  0.20070  0.47110  1.0000 0.4201169332
H   H118      1.0  0.20070  0.74070  0.02890  1.0000 0.4201169332
H   H119      1.0  0.25930  0.79930  0.52890  1.0000 0.4201169332
H   H120      1.0  0.79930  0.25930  0.97110  1.0000 0.4201169332
C   C1        1.0  0.42014  0.28566  0.13473  1.0000 0.164704149
C   C2        1.0  0.28566  0.42014  0.36527  1.0000 0.164704149
C   C3        1.0  0.57986  0.71434  0.86527  1.0000 0.164704149
C   C4        1.0  0.71434  0.57986  0.63473  1.0000 0.164704149
C   C5        1.0  0.49222  0.36318  0.17288  1.0000 -0.1901818282
C   C6        1.0  0.36318  0.49222  0.32712  1.0000 -0.1901818282
C   C7        1.0  0.50778  0.63682  0.82712  1.0000 -0.1901818282
C   C8        1.0  0.63682  0.50778  0.67288  1.0000 -0.1901818282
C   C9        1.0  0.50019  0.43481  0.14903  1.0000 -0.1968637599
C   C10       1.0  0.43481  0.50019  0.35097  1.0000 -0.1968637599
C   C11       1.0  0.49981  0.56519  0.85097  1.0000 -0.1968637599
C   C12       1.0  0.56519  0.49981  0.64903  1.0000 -0.1968637599
C   C13       1.0  0.43262  0.40238  0.09540  1.0000 0.1714656038
C   C14       1.0  0.40238  0.43262  0.40460  1.0000 0.1714656038
C   C15       1.0  0.56738  0.59762  0.90460  1.0000 0.1714656038
C   C16       1.0  0.59762  0.56738  0.59540  1.0000 0.1714656038
C   C17       1.0  0.39278  0.20182  0.14088  1.0000 -0.0893743067
C   C18       1.0  0.20182  0.39278  0.35912  1.0000 -0.0893743067
C   C19       1.0  0.60722  0.79818  0.85912  1.0000 -0.0893743067
C   C20       1.0  0.79818  0.60722  0.64088  1.0000 -0.0893743067
C   C21       1.0  0.31552  0.12248  0.10274  1.0000 0.1714656038
C   C22       1.0  0.12248  0.31552  0.39726  1.0000 0.1714656038
C   C23       1.0  0.68448  0.87752  0.89726  1.0000 0.1714656038
C   C24       1.0  0.87752  0.68448  0.60274  1.0000 0.1714656038
C   C25       1.0  0.16958  0.00622  0.03548  1.0000 0.1802341037
C   C26       1.0  0.00622  0.16958  0.46452  1.0000 0.1802341037
C   C27       1.0  0.83042  0.99378  0.96452  1.0000 0.1802341037
C   C28       1.0  0.99378  0.83042  0.53548  1.0000 0.1802341037
C   C29       1.0  0.21317  0.97803  0.06482  1.0000 -0.1824697405
C   C30       1.0  0.97803  0.21317  0.43518  1.0000 -0.1824697405
C   C31       1.0  0.78683  0.02197  0.93518  1.0000 -0.1824697405
C   C32       1.0  0.02197  0.78683  0.56482  1.0000 -0.1824697405
C   C33       1.0  0.30152  0.04848  0.10626  1.0000 -0.1901818282
C   C34       1.0  0.04848  0.30152  0.39374  1.0000 -0.1901818282
C   C35       1.0  0.69848  0.95152  0.89374  1.0000 -0.1901818282
C   C36       1.0  0.95152  0.69848  0.60626  1.0000 -0.1901818282
C   C37       1.0  0.06813  0.94227  0.99299  1.0000 -0.0796637171
C   C38       1.0  0.94227  0.06813  0.50701  1.0000 -0.0796637171
C   C39       1.0  0.93187  0.05773  0.00701  1.0000 -0.0796637171
C   C40       1.0  0.05773  0.93187  0.49299  1.0000 -0.0796637171
C   C41       1.0  0.03913  0.98187  0.95929  1.0000 0.1714656038
C   C42       1.0  0.98187  0.03913  0.54071  1.0000 0.1714656038
C   C43       1.0  0.96087  0.01813  0.04071  1.0000 0.1714656038
C   C44       1.0  0.01813  0.96087  0.45929  1.0000 0.1714656038
C   C45       1.0  0.06779  0.11201  0.91539  1.0000 0.1714656038
C   C46       1.0  0.11201  0.06779  0.58461  1.0000 0.1714656038
C   C47       1.0  0.93221  0.88799  0.08461  1.0000 0.1714656038
C   C48       1.0  0.88799  0.93221  0.41539  1.0000 0.1714656038
C   C49       1.0  0.95934  0.00486  0.88643  1.0000 -0.1824697405
C   C50       1.0  0.00486  0.95934  0.61357  1.0000 -0.1824697405
C   C51       1.0  0.04066  0.99514  0.11357  1.0000 -0.1824697405
C   C52       1.0  0.99514  0.04066  0.38643  1.0000 -0.1824697405
C   C53       1.0  0.94087  0.92453  0.91359  1.0000 -0.1968637599
C   C54       1.0  0.92453  0.94087  0.58641  1.0000 -0.1968637599
C   C55       1.0  0.05913  0.07547  0.08641  1.0000 -0.1968637599
C   C56       1.0  0.07547  0.05913  0.41359  1.0000 -0.1968637599
C   C57       1.0  0.12716  0.22224  0.90025  1.0000 -0.0796637171
C   C58       1.0  0.22224  0.12716  0.59975  1.0000 -0.0796637171
C   C59       1.0  0.87284  0.77776  0.09975  1.0000 -0.0796637171
C   C60       1.0  0.77776  0.87284  0.40025  1.0000 -0.0796637171
C   C61       1.0  0.22737  0.32063  0.93192  1.0000 0.1714656038
C   C62       1.0  0.32063  0.22737  0.56808  1.0000 0.1714656038
C   C63       1.0  0.77263  0.67937  0.06808  1.0000 0.1714656038
C   C64       1.0  0.67937  0.77263  0.43192  1.0000 0.1714656038
C   C65       1.0  0.35695  0.42445  0.00236  1.0000 0.1802341037
C   C66       1.0  0.42445  0.35695  0.49764  1.0000 0.1802341037
C   C67       1.0  0.64305  0.57555  0.99764  1.0000 0.1802341037
C   C68       1.0  0.57555  0.64305  0.50236  1.0000 0.1802341037
C   C69       1.0  0.36013  0.49287  0.95944  1.0000 -0.1824697405
C   C70       1.0  0.49287  0.36013  0.54056  1.0000 -0.1824697405
C   C71       1.0  0.63987  0.50713  0.04056  1.0000 -0.1824697405
C   C72       1.0  0.50713  0.63987  0.45944  1.0000 -0.1824697405
C   C73       1.0  0.28071  0.42969  0.91584  1.0000 -0.1824697405
C   C74       1.0  0.42969  0.28071  0.58416  1.0000 -0.1901818282
C   C75       1.0  0.71929  0.57031  0.08416  1.0000 -0.1824697405
C   C76       1.0  0.57031  0.71929  0.41584  1.0000 -0.1824697405
C   C77       1.0  0.42243  0.45797  0.05513  1.0000 -0.0711423671
C   C78       1.0  0.45797  0.42243  0.44487  1.0000 -0.0711423671
C   C79       1.0  0.57757  0.54203  0.94487  1.0000 -0.0711423671
C   C80       1.0  0.54203  0.57757  0.55513  1.0000 -0.0796637171
C   C81       1.0  0.44600  0.19240  0.19380  1.0000 0.0899345552
C   C82       1.0  0.19240  0.44600  0.30620  1.0000 0.0899345552
C   C83       1.0  0.55400  0.80760  0.80620  1.0000 0.0899345552
C   C84       1.0  0.80760  0.55400  0.69380  1.0000 0.0899345552
C   C85       1.0  0.57012  0.28068  0.20334  1.0000 -0.1511781713
C   C86       1.0  0.28068  0.57012  0.29666  1.0000 -0.1511781713
C   C87       1.0  0.42988  0.71932  0.79666  1.0000 -0.1511781713
C   C88       1.0  0.71932  0.42988  0.70334  1.0000 -0.1511781713
C   C89       1.0  0.61816  0.27084  0.25345  1.0000 -0.0711423671
C   C90       1.0  0.27084  0.61816  0.24655  1.0000 -0.0711423671
C   C91       1.0  0.38184  0.72916  0.74655  1.0000 -0.0711423671
C   C92       1.0  0.72916  0.38184  0.75345  1.0000 -0.0711423671
C   C93       1.0  0.54095  0.17245  0.29327  1.0000 -0.0991655557
C   C94       1.0  0.17245  0.54095  0.20673  1.0000 -0.0991655557
C   C95       1.0  0.45905  0.82755  0.70673  1.0000 -0.0991655557
C   C96       1.0  0.82755  0.45905  0.79327  1.0000 -0.0991655557
C   C97       1.0  0.41757  0.08283  0.28410  1.0000 -0.0620005267
C   C98       1.0  0.08283  0.41757  0.21590  1.0000 -0.0620005267
C   C99       1.0  0.58243  0.91717  0.71590  1.0000 -0.0620005267
C   C100      1.0  0.91717  0.58243  0.78410  1.0000 -0.0620005267
C   C101      1.0  0.37110  0.09410  0.23470  1.0000 -0.1409893582
C   C102      1.0  0.09410  0.37110  0.26530  1.0000 -0.1409893582
C   C103      1.0  0.62890  0.90590  0.76530  1.0000 -0.1409893582
C   C104      1.0  0.90590  0.62890  0.73470  1.0000 -0.1409893582
C   C105      1.0  0.99529  0.83211  0.98132  1.0000 0.0824352565
C   C106      1.0  0.83211  0.99529  0.51868  1.0000 0.0824352565
C   C107      1.0  0.00471  0.16789  0.01868  1.0000 0.0824352565
C   C108      1.0  0.16789  0.00471  0.48132  1.0000 0.0824352565
C   C109      1.0  0.94013  0.73267  0.02279  1.0000 -0.1409893582
C   C110      1.0  0.73267  0.94013  0.47721  1.0000 -0.1409893582
C   C111      1.0  0.05987  0.26733  0.97721  1.0000 -0.1409893582
C   C112      1.0  0.26733  0.05987  0.52279  1.0000 -0.1409893582
C   C113      1.0  0.88820  0.63800  0.01522  1.0000 -0.0893743067
C   C114      1.0  0.63800  0.88820  0.48478  1.0000 -0.0893743067
C   C115      1.0  0.11180  0.36200  0.98478  1.0000 -0.0893743067
C   C116      1.0  0.36200  0.11180  0.51522  1.0000 -0.0893743067
C   C117      1.0  0.89204  0.64336  0.96589  1.0000 -0.0796637171
C   C118      1.0  0.64336  0.89204  0.53411  1.0000 -0.0796637171
C   C119      1.0  0.10796  0.35664  0.03411  1.0000 -0.0796637171
C   C120      1.0  0.35664  0.10796  0.46589  1.0000 -0.0796637171
C   C121      1.0  0.93871  0.73709  0.92260  1.0000 -0.0796637171
C   C122      1.0  0.73709  0.93871  0.57740  1.0000 -0.0796637171
C   C123      1.0  0.06129  0.26291  0.07740  1.0000 -0.0796637171
C   C124      1.0  0.26291  0.06129  0.42260  1.0000 -0.0796637171
C   C125      1.0  0.98833  0.82947  0.93059  1.0000 -0.1287295862
C   C126      1.0  0.82947  0.98833  0.56941  1.0000 -0.1287295862
C   C127      1.0  0.01167  0.17053  0.06941  1.0000 -0.1287295862
C   C128      1.0  0.17053  0.01167  0.43059  1.0000 -0.1287295862
C   C129      1.0  0.08037  0.23883  0.84687  1.0000 0.0824352565
C   C130      1.0  0.23883  0.08037  0.65313  1.0000 0.0824352565
C   C131      1.0  0.91963  0.76117  0.15313  1.0000 0.0824352565
C   C132      1.0  0.76117  0.91963  0.34687  1.0000 0.0824352565
C   C133      1.0  0.97675  0.18265  0.84296  1.0000 -0.1409893582
C   C134      1.0  0.18265  0.97675  0.65704  1.0000 -0.1511781713
C   C135      1.0  0.02325  0.81735  0.15704  1.0000 -0.1511781713
C   C136      1.0  0.81735  0.02325  0.34296  1.0000 -0.1409893582
C   C137      1.0  0.94834  0.21786  0.79811  1.0000 -0.0893743067
C   C138      1.0  0.21786  0.94834  0.70189  1.0000 -0.0893743067
C   C139      1.0  0.05166  0.78214  0.20189  1.0000 -0.0893743067
C   C140      1.0  0.78214  0.05166  0.29811  1.0000 -0.0893743067
C   C141      1.0  0.02475  0.30965  0.75712  1.0000 -0.0991655557
C   C142      1.0  0.30965  0.02475  0.74288  1.0000 -0.0991655557
C   C143      1.0  0.97525  0.69035  0.24288  1.0000 -0.0991655557
C   C144      1.0  0.69035  0.97525  0.25712  1.0000 -0.0991655557
C   C145      1.0  0.12363  0.36057  0.75900  1.0000 -0.0711423671
C   C146      1.0  0.36057  0.12363  0.74100  1.0000 -0.0711423671
C   C147      1.0  0.87637  0.63943  0.24100  1.0000 -0.0711423671
C   C148      1.0  0.63943  0.87637  0.25900  1.0000 -0.0711423671
C   C149      1.0  0.15088  0.32452  0.80349  1.0000 -0.1409893582
C   C150      1.0  0.32452  0.15088  0.69651  1.0000 -0.1409893582
C   C151      1.0  0.84912  0.67548  0.19651  1.0000 -0.1409893582
C   C152      1.0  0.67548  0.84912  0.30349  1.0000 -0.1409893582
C   C153      1.0  0.47844  0.55456  0.07024  1.0000 0.0824352565
C   C154      1.0  0.55456  0.47844  0.42976  1.0000 0.0824352565
C   C155      1.0  0.52156  0.44544  0.92976  1.0000 0.0824352565
C   C156      1.0  0.44544  0.52156  0.57024  1.0000 0.0824352565
C   C157      1.0  0.60606  0.67614  0.07540  1.0000 -0.1409893582
C   C158      1.0  0.67614  0.60606  0.42460  1.0000 -0.1409893582
C   C159      1.0  0.39394  0.32386  0.92460  1.0000 -0.1409893582
C   C160      1.0  0.32386  0.39394  0.57540  1.0000 -0.1409893582
C   C161      1.0  0.65278  0.76602  0.08500  1.0000 -0.0893743067
C   C162      1.0  0.76602  0.65278  0.41500  1.0000 -0.0893743067
C   C163      1.0  0.34722  0.23398  0.91500  1.0000 -0.0893743067
C   C164      1.0  0.23398  0.34722  0.58500  1.0000 -0.0893743067
C   C165      1.0  0.57120  0.73200  0.09012  1.0000 -0.0893743067
C   C166      1.0  0.73200  0.57120  0.40988  1.0000 -0.0893743067
C   C167      1.0  0.42880  0.26800  0.90988  1.0000 -0.0893743067
C   C168      1.0  0.26800  0.42880  0.59012  1.0000 -0.0893743067
C   C169      1.0  0.44451  0.60989  0.08790  1.0000 -0.0711423671
C   C170      1.0  0.60989  0.44451  0.41210  1.0000 -0.0796637171
C   C171      1.0  0.55549  0.39011  0.91210  1.0000 -0.0711423671
C   C172      1.0  0.39011  0.55549  0.58790  1.0000 -0.0711423671
C   C173      1.0  0.39927  0.52213  0.07780  1.0000 -0.1287295862
C   C174      1.0  0.52213  0.39927  0.42220  1.0000 -0.1287295862
C   C175      1.0  0.60073  0.47787  0.92220  1.0000 -0.1287295862
C   C176      1.0  0.47787  0.60073  0.57780  1.0000 -0.1287295862
S   S1        1.0  0.60030  0.15782  0.35645  1.0000 1.1971371969
S   S2        1.0  0.15782  0.60030  0.14355  1.0000 1.1971371969
S   S3        1.0  0.39970  0.84218  0.64355  1.0000 1.1971371969
S   S4        1.0  0.84218  0.39970  0.85645  1.0000 1.1971371969
S   S5        1.0  0.85073  0.53935  0.95983  1.0000 1.1593061288
S   S6        1.0  0.53935  0.85073  0.54017  1.0000 1.1593061288
S   S7        1.0  0.14927  0.46065  0.04017  1.0000 1.1593061288
S   S8        1.0  0.46065  0.14927  0.45983  1.0000 1.1593061288
S   S9        1.0  0.00018  0.36800  0.70439  1.0000 1.2204451674
S   S10       1.0  0.36800  0.00018  0.79561  1.0000 1.2204451674
S   S11       1.0  0.99982  0.63200  0.29561  1.0000 1.2204451674
S   S12       1.0  0.63200  0.99982  0.20439  1.0000 1.2204451674
S   S13       1.0  0.62425  0.84329  0.09931  1.0000 1.2204451674
S   S14       1.0  0.84329  0.62425  0.40069  1.0000 1.2204451674
S   S15       1.0  0.37575  0.15671  0.90069  1.0000 1.2146423658
S   S16       1.0  0.15671  0.37575  0.59931  1.0000 1.2204451674
N   N1        1.0  0.38375  0.31045  0.08828  1.0000 -0.2761050935
N   N2        1.0  0.31045  0.38375  0.41172  1.0000 -0.2761050935
N   N3        1.0  0.61625  0.68955  0.91172  1.0000 -0.2761050935
N   N4        1.0  0.68955  0.61625  0.58828  1.0000 -0.2761050935
N   N5        1.0  0.23707  0.09793  0.05822  1.0000 -0.4398379761
N   N6        1.0  0.09793  0.23707  0.44178  1.0000 -0.4398379761
N   N7        1.0  0.76293  0.90207  0.94178  1.0000 -0.4398379761
N   N8        1.0  0.90207  0.76293  0.55822  1.0000 -0.4398379761
N   N9        1.0  0.10973  0.09187  0.96005  1.0000 -0.2702072362
N   N10       1.0  0.09187  0.10973  0.53995  1.0000 -0.2702072362
N   N11       1.0  0.89027  0.90813  0.03995  1.0000 -0.2702072362
N   N12       1.0  0.90813  0.89027  0.46005  1.0000 -0.2702072362
N   N13       1.0  0.27783  0.32177  0.98426  1.0000 -0.4398379761
N   N14       1.0  0.32177  0.27783  0.51574  1.0000 -0.4398379761
N   N15       1.0  0.72217  0.67823  0.01574  1.0000 -0.4398379761
N   N16       1.0  0.67823  0.72217  0.48426  1.0000 -0.4398379761
O   O1        1.0  0.00636  0.38704  0.57909  1.0000 -1.1502961516
O   O2        1.0  0.38704  0.00636  0.92091  1.0000 -1.1571375529
O   O3        1.0  0.99364  0.61296  0.42091  1.0000 -1.1502961516
O   O4        1.0  0.61296  0.99364  0.07909  1.0000 -1.1571375529
O   O5        1.0  0.21236  0.63164  0.50772  1.0000 -1.1502961516
O   O6        1.0  0.63164  0.21236  0.99228  1.0000 -1.1502961516
O   O7        1.0  0.78764  0.36836  0.49228  1.0000 -1.1502961516
O   O8        1.0  0.36836  0.78764  0.00772  1.0000 -1.1502961516
O   O9        1.0  0.01851  0.51509  0.40852  1.0000 -1.2494812707
O   O10       1.0  0.51509  0.01851  0.09148  1.0000 -1.2494812707
O   O11       1.0  0.98149  0.48491  0.59148  1.0000 -1.2494812707
O   O12       1.0  0.48491  0.98149  0.90852  1.0000 -1.2494812707
O   O13       1.0  0.80955  0.27025  0.48163  1.0000 -1.135890007
O   O14       1.0  0.27025  0.80955  0.01837  1.0000 -1.135890007
O   O15       1.0  0.19045  0.72975  0.51837  1.0000 -1.1339377562
O   O16       1.0  0.72975  0.19045  0.98163  1.0000 -1.135890007
O   O17       1.0  0.57966  0.15174  0.40045  1.0000 -0.6384623597
O   O18       1.0  0.15174  0.57966  0.09955  1.0000 -0.6384623597
O   O19       1.0  0.42034  0.84826  0.59955  1.0000 -0.6384623597
O   O20       1.0  0.84826  0.42034  0.90045  1.0000 -0.6384623597
O   O21       1.0  0.73587  0.27233  0.35619  1.0000 -0.6897204841
O   O22       1.0  0.27233  0.73587  0.14381  1.0000 -0.6897204841
O   O23       1.0  0.26413  0.72767  0.64381  1.0000 -0.6897204841
O   O24       1.0  0.72767  0.26413  0.85619  1.0000 -0.6897204841
O   O25       1.0  0.53348  0.04412  0.35930  1.0000 -0.5582358936
O   O26       1.0  0.04412  0.53348  0.14070  1.0000 -0.5582358936
O   O27       1.0  0.46652  0.95588  0.64070  1.0000 -0.5582358936
O   O28       1.0  0.95588  0.46652  0.85930  1.0000 -0.5582358936
O   O29       1.0  0.00000  0.50000  0.50000  1.0000 -1.4021645585
O   O30       1.0  0.50000  0.00000  0.00000  1.0000 -1.4021645585
O   O31       1.0  0.75026  0.42154  0.99255  1.0000 -0.5699481269
O   O32       1.0  0.42154  0.75026  0.50745  1.0000 -0.5699481269
O   O33       1.0  0.24974  0.57846  0.00745  1.0000 -0.5699481269
O   O34       1.0  0.57846  0.24974  0.49255  1.0000 -0.5699481269
O   O35       1.0  0.96582  0.59998  0.98137  1.0000 -0.5893498907
O   O36       1.0  0.59998  0.96582  0.51863  1.0000 -0.5893498907
O   O37       1.0  0.03418  0.40002  0.01863  1.0000 -0.5893498907
O   O38       1.0  0.40002  0.03418  0.48137  1.0000 -0.5893498907
O   O39       1.0  0.81596  0.53084  0.90172  1.0000 -0.6102292339
O   O40       1.0  0.53084  0.81596  0.59828  1.0000 -0.6102292339
O   O41       1.0  0.18404  0.46916  0.09828  1.0000 -0.6102292339
O   O42       1.0  0.46916  0.18404  0.40172  1.0000 -0.6102292339
O   O43       1.0  0.98884  0.39436  0.73217  1.0000 -0.5388991634
O   O44       1.0  0.39436  0.98884  0.76783  1.0000 -0.5388991634
O   O45       1.0  0.01116  0.60564  0.26783  1.0000 -0.5388991634
O   O46       1.0  0.60564  0.01116  0.23217  1.0000 -0.5388991634
O   O47       1.0  0.88437  0.27063  0.66886  1.0000 -0.6897204841
O   O48       1.0  0.27063  0.88437  0.83114  1.0000 -0.6897204841
O   O49       1.0  0.11563  0.72937  0.33114  1.0000 -0.6897204841
O   O50       1.0  0.72937  0.11563  0.16886  1.0000 -0.6897204841
O   O51       1.0  0.11227  0.48173  0.67687  1.0000 -0.6813528786
O   O52       1.0  0.48173  0.11227  0.82313  1.0000 -0.6813528786
O   O53       1.0  0.88773  0.51827  0.32313  1.0000 -0.6813528786
O   O54       1.0  0.51827  0.88773  0.17687  1.0000 -0.6813528786
O   O55       1.0  0.57281  0.79179  0.14648  1.0000 -0.5699481269
O   O56       1.0  0.79179  0.57281  0.35352  1.0000 -0.5699481269
O   O57       1.0  0.42719  0.20821  0.85352  1.0000 -0.5760686795
O   O58       1.0  0.20821  0.42719  0.64648  1.0000 -0.5760686795
O   O59       1.0  0.57262  0.85498  0.04887  1.0000 -0.7274664292
O   O60       1.0  0.85498  0.57262  0.45113  1.0000 -0.7274664292
O   O61       1.0  0.42738  0.14502  0.95113  1.0000 -0.7274664292
O   O62       1.0  0.14502  0.42738  0.54887  1.0000 -0.7274664292
O   O63       1.0  0.76075  0.96045  0.10683  1.0000 -0.6102292339
O   O64       1.0  0.96045  0.76075  0.39317  1.0000 -0.6102292339
O   O65       1.0  0.23925  0.03955  0.89317  1.0000 -0.6102292339
O   O66       1.0  0.03955  0.23925  0.60683  1.0000 -0.6102292339
