# DDEC6 charges by PACMAN v1.1 (https://github.com/mtap-research/PACMAN-charge/)
data_2013[Zn][nan]3[ASR]27
_chemical_formula_sum              "Zn16 H80 C96 N64 O32"
_cell_length_a       12.5223
_cell_length_b       12.5223
_cell_length_c       26.022
_cell_angle_alpha    90
_cell_angle_beta     90
_cell_angle_gamma    90

_symmetry_space_group_name_H-M    "P 1"
_symmetry_Int_Tables_number       1

loop_
  _symmetry_equiv_pos_as_xyz
  'x, y, z'

loop_
  _atom_site_type_symbol
  _atom_site_label
  _atom_site_symmetry_multiplicity
  _atom_site_fract_x
  _atom_site_fract_y
  _atom_site_fract_z
  _atom_site_occupancy
  _atom_site_charge
Zn  Zn1       1.0  0.28949  0.81172  0.31260  1.0000 0.7042958079
Zn  Zn2       1.0  0.71051  0.18828  0.68740  1.0000 0.7042958079
Zn  Zn3       1.0  0.71051  0.18828  0.31260  1.0000 0.7042958079
Zn  Zn4       1.0  0.28949  0.81172  0.68740  1.0000 0.7042958079
Zn  Zn5       1.0  0.18828  0.28949  0.31260  1.0000 0.7042958079
Zn  Zn6       1.0  0.81172  0.71051  0.68740  1.0000 0.7042958079
Zn  Zn7       1.0  0.81172  0.71051  0.31260  1.0000 0.7042958079
Zn  Zn8       1.0  0.18828  0.28949  0.68740  1.0000 0.7042958079
Zn  Zn9       1.0  0.78949  0.31172  0.81260  1.0000 0.7042958079
Zn  Zn10      1.0  0.21051  0.68828  0.18740  1.0000 0.7042958079
Zn  Zn11      1.0  0.21051  0.68828  0.81260  1.0000 0.7042958079
Zn  Zn12      1.0  0.78949  0.31172  0.18740  1.0000 0.7042958079
Zn  Zn13      1.0  0.68828  0.78949  0.81260  1.0000 0.7042958079
Zn  Zn14      1.0  0.31172  0.21051  0.18740  1.0000 0.7042958079
Zn  Zn15      1.0  0.31172  0.21051  0.81260  1.0000 0.7042958079
Zn  Zn16      1.0  0.68828  0.78949  0.18740  1.0000 0.7042958079
H   H1        1.0  0.58360  0.82940  0.41668  1.0000 0.1074979455
H   H2        1.0  0.41640  0.17060  0.58332  1.0000 0.1074979455
H   H3        1.0  0.41640  0.17060  0.41668  1.0000 0.1074979455
H   H4        1.0  0.58360  0.82940  0.58332  1.0000 0.1074979455
H   H5        1.0  0.17060  0.58360  0.41668  1.0000 0.1074979455
H   H6        1.0  0.82940  0.41640  0.58332  1.0000 0.1074979455
H   H7        1.0  0.82940  0.41640  0.41668  1.0000 0.1074979455
H   H8        1.0  0.17060  0.58360  0.58332  1.0000 0.1074979455
H   H9        1.0  0.08360  0.32940  0.91668  1.0000 0.1074979455
H   H10       1.0  0.91640  0.67060  0.08332  1.0000 0.1074979455
H   H11       1.0  0.91640  0.67060  0.91668  1.0000 0.1074979455
H   H12       1.0  0.08360  0.32940  0.08332  1.0000 0.1074979455
H   H13       1.0  0.67060  0.08360  0.91668  1.0000 0.1074979455
H   H14       1.0  0.32940  0.91640  0.08332  1.0000 0.1074979455
H   H15       1.0  0.32940  0.91640  0.91668  1.0000 0.1074979455
H   H16       1.0  0.67060  0.08360  0.08332  1.0000 0.1074979455
H   H17       1.0  0.67762  0.85474  0.50000  1.0000 0.1074979455
H   H18       1.0  0.32238  0.14526  0.50000  1.0000 0.1074979455
H   H19       1.0  0.14526  0.67762  0.50000  1.0000 0.1074979455
H   H20       1.0  0.85474  0.32238  0.50000  1.0000 0.1074979455
H   H21       1.0  0.17762  0.35474  0.00000  1.0000 0.1074979455
H   H22       1.0  0.82238  0.64526  0.00000  1.0000 0.1074979455
H   H23       1.0  0.64526  0.17762  0.00000  1.0000 0.1074979455
H   H24       1.0  0.35474  0.82238  0.00000  1.0000 0.1074979455
H   H25       1.0  0.28309  0.81925  0.50000  1.0000 0.1074979455
H   H26       1.0  0.71691  0.18075  0.50000  1.0000 0.1074979455
H   H27       1.0  0.18075  0.28309  0.50000  1.0000 0.1074979455
H   H28       1.0  0.81925  0.71691  0.50000  1.0000 0.1074979455
H   H29       1.0  0.78309  0.31925  0.00000  1.0000 0.1074979455
H   H30       1.0  0.21691  0.68075  0.00000  1.0000 0.1074979455
H   H31       1.0  0.68075  0.78309  0.00000  1.0000 0.1074979455
H   H32       1.0  0.31925  0.21691  0.00000  1.0000 0.1074979455
H   H33       1.0  0.53560  0.81006  0.28347  1.0000 0.1074979455
H   H34       1.0  0.46440  0.18994  0.71653  1.0000 0.1074979455
H   H35       1.0  0.46440  0.18994  0.28347  1.0000 0.1074979455
H   H36       1.0  0.53560  0.81006  0.71653  1.0000 0.1074979455
H   H37       1.0  0.18994  0.53560  0.28347  1.0000 0.1074979455
H   H38       1.0  0.81006  0.46440  0.71653  1.0000 0.1074979455
H   H39       1.0  0.81006  0.46440  0.28347  1.0000 0.1074979455
H   H40       1.0  0.18994  0.53560  0.71653  1.0000 0.1074979455
H   H41       1.0  0.03560  0.31006  0.78347  1.0000 0.1074979455
H   H42       1.0  0.96440  0.68994  0.21653  1.0000 0.1074979455
H   H43       1.0  0.96440  0.68994  0.78347  1.0000 0.1074979455
H   H44       1.0  0.03560  0.31006  0.21653  1.0000 0.1074979455
H   H45       1.0  0.68994  0.03560  0.78347  1.0000 0.1074979455
H   H46       1.0  0.31006  0.96440  0.21653  1.0000 0.1074979455
H   H47       1.0  0.31006  0.96440  0.78347  1.0000 0.1074979455
H   H48       1.0  0.68994  0.03560  0.21653  1.0000 0.1074979455
H   H49       1.0  0.51998  0.73011  0.10329  1.0000 0.3286701081
H   H50       1.0  0.48002  0.26989  0.89671  1.0000 0.3286701081
H   H51       1.0  0.48002  0.26989  0.10329  1.0000 0.3286701081
H   H52       1.0  0.51998  0.73011  0.89671  1.0000 0.3286701081
H   H53       1.0  0.26989  0.51998  0.10329  1.0000 0.3286701081
H   H54       1.0  0.73011  0.48002  0.89671  1.0000 0.3286701081
H   H55       1.0  0.73011  0.48002  0.10329  1.0000 0.3286701081
H   H56       1.0  0.26989  0.51998  0.89671  1.0000 0.3286701081
H   H57       1.0  0.01998  0.23011  0.60329  1.0000 0.3286701081
H   H58       1.0  0.98002  0.76989  0.39671  1.0000 0.3286701081
H   H59       1.0  0.98002  0.76989  0.60329  1.0000 0.3286701081
H   H60       1.0  0.01998  0.23011  0.39671  1.0000 0.3286701081
H   H61       1.0  0.76989  0.01998  0.60329  1.0000 0.3286701081
H   H62       1.0  0.23011  0.98002  0.39671  1.0000 0.3286701081
H   H63       1.0  0.23011  0.98002  0.60329  1.0000 0.3286701081
H   H64       1.0  0.76989  0.01998  0.39671  1.0000 0.3286701081
H   H65       1.0  0.37467  0.70879  0.10276  1.0000 0.3286701081
H   H66       1.0  0.62533  0.29121  0.89724  1.0000 0.3286701081
H   H67       1.0  0.62533  0.29121  0.10276  1.0000 0.3286701081
H   H68       1.0  0.37467  0.70879  0.89724  1.0000 0.3286701081
H   H69       1.0  0.29121  0.37467  0.10276  1.0000 0.3286701081
H   H70       1.0  0.70879  0.62533  0.89724  1.0000 0.3286701081
H   H71       1.0  0.70879  0.62533  0.10276  1.0000 0.3286701081
H   H72       1.0  0.29121  0.37467  0.89724  1.0000 0.3286701081
H   H73       1.0  0.87467  0.20879  0.60276  1.0000 0.3286701081
H   H74       1.0  0.12533  0.79121  0.39724  1.0000 0.3286701081
H   H75       1.0  0.12533  0.79121  0.60276  1.0000 0.3286701081
H   H76       1.0  0.87467  0.20879  0.39724  1.0000 0.3286701081
H   H77       1.0  0.79121  0.87467  0.60276  1.0000 0.3286701081
H   H78       1.0  0.20879  0.12533  0.39724  1.0000 0.3286701081
H   H79       1.0  0.20879  0.12533  0.60276  1.0000 0.3286701081
H   H80       1.0  0.79121  0.87467  0.39724  1.0000 0.3286701081
C   C1        1.0  0.42479  0.82310  0.45316  1.0000 -0.0595329968
C   C2        1.0  0.57521  0.17690  0.54684  1.0000 -0.0595329968
C   C3        1.0  0.57521  0.17690  0.45316  1.0000 -0.0595329968
C   C4        1.0  0.42479  0.82310  0.54684  1.0000 -0.0595329968
C   C5        1.0  0.17690  0.42479  0.45316  1.0000 -0.0595329968
C   C6        1.0  0.82310  0.57521  0.54684  1.0000 -0.0595329968
C   C7        1.0  0.82310  0.57521  0.45316  1.0000 -0.0595329968
C   C8        1.0  0.17690  0.42479  0.54684  1.0000 -0.0595329968
C   C9        1.0  0.92479  0.32310  0.95316  1.0000 -0.0595329968
C   C10       1.0  0.07521  0.67690  0.04684  1.0000 -0.0595329968
C   C11       1.0  0.07521  0.67690  0.95316  1.0000 -0.0595329968
C   C12       1.0  0.92479  0.32310  0.04684  1.0000 -0.0595329968
C   C13       1.0  0.67690  0.92479  0.95316  1.0000 -0.0595329968
C   C14       1.0  0.32310  0.07521  0.04684  1.0000 -0.0595329968
C   C15       1.0  0.32310  0.07521  0.95316  1.0000 -0.0595329968
C   C16       1.0  0.67690  0.92479  0.04684  1.0000 -0.0595329968
C   C17       1.0  0.53789  0.83093  0.45261  1.0000 -0.0595329968
C   C18       1.0  0.46211  0.16907  0.54739  1.0000 -0.0595329968
C   C19       1.0  0.46211  0.16907  0.45261  1.0000 -0.0595329968
C   C20       1.0  0.53789  0.83093  0.54739  1.0000 -0.0595329968
C   C21       1.0  0.16907  0.53789  0.45261  1.0000 -0.0595329968
C   C22       1.0  0.83093  0.46211  0.54739  1.0000 -0.0595329968
C   C23       1.0  0.83093  0.46211  0.45261  1.0000 -0.0595329968
C   C24       1.0  0.16907  0.53789  0.54739  1.0000 -0.0595329968
C   C25       1.0  0.03789  0.33093  0.95261  1.0000 -0.0595329968
C   C26       1.0  0.96211  0.66907  0.04739  1.0000 -0.0595329968
C   C27       1.0  0.96211  0.66907  0.95261  1.0000 -0.0595329968
C   C28       1.0  0.03789  0.33093  0.04739  1.0000 -0.0595329968
C   C29       1.0  0.66907  0.03789  0.95261  1.0000 -0.0595329968
C   C30       1.0  0.33093  0.96211  0.04739  1.0000 -0.0595329968
C   C31       1.0  0.33093  0.96211  0.95261  1.0000 -0.0595329968
C   C32       1.0  0.66907  0.03789  0.04739  1.0000 -0.0595329968
C   C33       1.0  0.59185  0.83999  0.50000  1.0000 -0.0911791196
C   C34       1.0  0.40815  0.16001  0.50000  1.0000 -0.0951964246
C   C35       1.0  0.16001  0.59185  0.50000  1.0000 -0.0911791196
C   C36       1.0  0.83999  0.40815  0.50000  1.0000 -0.0911791196
C   C37       1.0  0.09185  0.33999  0.00000  1.0000 -0.0951964246
C   C38       1.0  0.90815  0.66001  0.00000  1.0000 -0.0911791196
C   C39       1.0  0.66001  0.09185  0.00000  1.0000 -0.0951964246
C   C40       1.0  0.33999  0.90815  0.00000  1.0000 -0.0911791196
C   C41       1.0  0.37009  0.82308  0.50000  1.0000 -0.0911791196
C   C42       1.0  0.62991  0.17692  0.50000  1.0000 -0.0911791196
C   C43       1.0  0.17692  0.37009  0.50000  1.0000 -0.0911791196
C   C44       1.0  0.82308  0.62991  0.50000  1.0000 -0.0911791196
C   C45       1.0  0.87009  0.32308  0.00000  1.0000 -0.0911791196
C   C46       1.0  0.12991  0.67692  0.00000  1.0000 -0.0911791196
C   C47       1.0  0.67692  0.87009  0.00000  1.0000 -0.0911791196
C   C48       1.0  0.32308  0.12991  0.00000  1.0000 -0.0911791196
C   C49       1.0  0.44200  0.75011  0.17160  1.0000 0.5582310496
C   C50       1.0  0.55800  0.24989  0.82840  1.0000 0.5582310496
C   C51       1.0  0.55800  0.24989  0.17160  1.0000 0.5582310496
C   C52       1.0  0.44200  0.75011  0.82840  1.0000 0.5582310496
C   C53       1.0  0.24989  0.44200  0.17160  1.0000 0.5582310496
C   C54       1.0  0.75011  0.55800  0.82840  1.0000 0.5582310496
C   C55       1.0  0.75011  0.55800  0.17160  1.0000 0.5582310496
C   C56       1.0  0.24989  0.44200  0.82840  1.0000 0.5582310496
C   C57       1.0  0.94200  0.25011  0.67160  1.0000 0.5582310496
C   C58       1.0  0.05800  0.74989  0.32840  1.0000 0.5582310496
C   C59       1.0  0.05800  0.74989  0.67160  1.0000 0.5582310496
C   C60       1.0  0.94200  0.25011  0.32840  1.0000 0.5582310496
C   C61       1.0  0.74989  0.94200  0.67160  1.0000 0.5582310496
C   C62       1.0  0.25011  0.05800  0.32840  1.0000 0.5582310496
C   C63       1.0  0.25011  0.05800  0.67160  1.0000 0.5582310496
C   C64       1.0  0.74989  0.94200  0.32840  1.0000 0.5582310496
C   C65       1.0  0.48767  0.78904  0.24984  1.0000 0.1675990014
C   C66       1.0  0.51233  0.21096  0.75016  1.0000 0.1675990014
C   C67       1.0  0.51233  0.21096  0.24984  1.0000 0.1675990014
C   C68       1.0  0.48767  0.78904  0.75016  1.0000 0.1675990014
C   C69       1.0  0.21096  0.48767  0.24984  1.0000 0.1675990014
C   C70       1.0  0.78904  0.51233  0.75016  1.0000 0.1675990014
C   C71       1.0  0.78904  0.51233  0.24984  1.0000 0.1675990014
C   C72       1.0  0.21096  0.48767  0.75016  1.0000 0.1675990014
C   C73       1.0  0.98767  0.28904  0.74984  1.0000 0.1675990014
C   C74       1.0  0.01233  0.71096  0.25016  1.0000 0.1675990014
C   C75       1.0  0.01233  0.71096  0.74984  1.0000 0.1675990014
C   C76       1.0  0.98767  0.28904  0.25016  1.0000 0.1675990014
C   C77       1.0  0.71096  0.98767  0.74984  1.0000 0.1675990014
C   C78       1.0  0.28904  0.01233  0.25016  1.0000 0.1675990014
C   C79       1.0  0.28904  0.01233  0.74984  1.0000 0.1675990014
C   C80       1.0  0.71096  0.98767  0.25016  1.0000 0.1675990014
C   C81       1.0  0.35725  0.81691  0.40718  1.0000 0.5790111659
C   C82       1.0  0.64275  0.18309  0.59282  1.0000 0.5790111659
C   C83       1.0  0.64275  0.18309  0.40718  1.0000 0.5790111659
C   C84       1.0  0.35725  0.81691  0.59282  1.0000 0.5790111659
C   C85       1.0  0.18309  0.35725  0.40718  1.0000 0.5790111659
C   C86       1.0  0.81691  0.64275  0.59282  1.0000 0.5790111659
C   C87       1.0  0.81691  0.64275  0.40718  1.0000 0.5790111659
C   C88       1.0  0.18309  0.35725  0.59282  1.0000 0.5790111659
C   C89       1.0  0.85725  0.31691  0.90718  1.0000 0.5790111659
C   C90       1.0  0.14275  0.68309  0.09282  1.0000 0.5790111659
C   C91       1.0  0.14275  0.68309  0.90718  1.0000 0.5790111659
C   C92       1.0  0.85725  0.31691  0.09282  1.0000 0.5790111659
C   C93       1.0  0.68309  0.85725  0.90718  1.0000 0.5790111659
C   C94       1.0  0.31691  0.14275  0.09282  1.0000 0.5790111659
C   C95       1.0  0.31691  0.14275  0.90718  1.0000 0.5790111659
C   C96       1.0  0.68309  0.85725  0.09282  1.0000 0.5790111659
N   N1        1.0  0.38261  0.77331  0.25146  1.0000 -0.2164345594
N   N2        1.0  0.61739  0.22669  0.74854  1.0000 -0.2164345594
N   N3        1.0  0.61739  0.22669  0.25146  1.0000 -0.2164345594
N   N4        1.0  0.38261  0.77331  0.74854  1.0000 -0.2164345594
N   N5        1.0  0.22669  0.38261  0.25146  1.0000 -0.2164345594
N   N6        1.0  0.77331  0.61739  0.74854  1.0000 -0.2164345594
N   N7        1.0  0.77331  0.61739  0.25146  1.0000 -0.2164345594
N   N8        1.0  0.22669  0.38261  0.74854  1.0000 -0.2164345594
N   N9        1.0  0.88261  0.27331  0.75146  1.0000 -0.2164345594
N   N10       1.0  0.11739  0.72669  0.24854  1.0000 -0.2164345594
N   N11       1.0  0.11739  0.72669  0.75146  1.0000 -0.2164345594
N   N12       1.0  0.88261  0.27331  0.24854  1.0000 -0.2164345594
N   N13       1.0  0.72669  0.88261  0.75146  1.0000 -0.2164345594
N   N14       1.0  0.27331  0.11739  0.24854  1.0000 -0.2164345594
N   N15       1.0  0.27331  0.11739  0.75146  1.0000 -0.2164345594
N   N16       1.0  0.72669  0.88261  0.24854  1.0000 -0.2164345594
N   N17       1.0  0.35132  0.75048  0.20063  1.0000 -0.35249815
N   N18       1.0  0.64868  0.24952  0.79937  1.0000 -0.35249815
N   N19       1.0  0.64868  0.24952  0.20063  1.0000 -0.35249815
N   N20       1.0  0.35132  0.75048  0.79937  1.0000 -0.35249815
N   N21       1.0  0.24952  0.35132  0.20063  1.0000 -0.35249815
N   N22       1.0  0.75048  0.64868  0.79937  1.0000 -0.35249815
N   N23       1.0  0.75048  0.64868  0.20063  1.0000 -0.35249815
N   N24       1.0  0.24952  0.35132  0.79937  1.0000 -0.35249815
N   N25       1.0  0.85132  0.25048  0.70063  1.0000 -0.35249815
N   N26       1.0  0.14868  0.74952  0.29937  1.0000 -0.35249815
N   N27       1.0  0.14868  0.74952  0.70063  1.0000 -0.35249815
N   N28       1.0  0.85132  0.25048  0.29937  1.0000 -0.35249815
N   N29       1.0  0.74952  0.85132  0.70063  1.0000 -0.35249815
N   N30       1.0  0.25048  0.14868  0.29937  1.0000 -0.35249815
N   N31       1.0  0.25048  0.14868  0.70063  1.0000 -0.35249815
N   N32       1.0  0.74952  0.85132  0.29937  1.0000 -0.35249815
N   N33       1.0  0.52892  0.77635  0.20161  1.0000 -0.4394289316
N   N34       1.0  0.47108  0.22365  0.79839  1.0000 -0.4394289316
N   N35       1.0  0.47108  0.22365  0.20161  1.0000 -0.4394289316
N   N36       1.0  0.52892  0.77635  0.79839  1.0000 -0.4394289316
N   N37       1.0  0.22365  0.52892  0.20161  1.0000 -0.4394289316
N   N38       1.0  0.77635  0.47108  0.79839  1.0000 -0.4394289316
N   N39       1.0  0.77635  0.47108  0.20161  1.0000 -0.4394289316
N   N40       1.0  0.22365  0.52892  0.79839  1.0000 -0.4394289316
N   N41       1.0  0.02892  0.27635  0.70161  1.0000 -0.4394289316
N   N42       1.0  0.97108  0.72365  0.29839  1.0000 -0.4394289316
N   N43       1.0  0.97108  0.72365  0.70161  1.0000 -0.4394289316
N   N44       1.0  0.02892  0.27635  0.29839  1.0000 -0.4394289316
N   N45       1.0  0.72365  0.02892  0.70161  1.0000 -0.4394289316
N   N46       1.0  0.27635  0.97108  0.29839  1.0000 -0.4394289316
N   N47       1.0  0.27635  0.97108  0.70161  1.0000 -0.4394289316
N   N48       1.0  0.72365  0.02892  0.29839  1.0000 -0.4394289316
N   N49       1.0  0.44589  0.72768  0.12087  1.0000 -0.6642786325
N   N50       1.0  0.55411  0.27232  0.87913  1.0000 -0.6642786325
N   N51       1.0  0.55411  0.27232  0.12087  1.0000 -0.6642786325
N   N52       1.0  0.44589  0.72768  0.87913  1.0000 -0.6642786325
N   N53       1.0  0.27232  0.44589  0.12087  1.0000 -0.6642786325
N   N54       1.0  0.72768  0.55411  0.87913  1.0000 -0.6642786325
N   N55       1.0  0.72768  0.55411  0.12087  1.0000 -0.6642786325
N   N56       1.0  0.27232  0.44589  0.87913  1.0000 -0.6642786325
N   N57       1.0  0.94589  0.22768  0.62087  1.0000 -0.6642786325
N   N58       1.0  0.05411  0.77232  0.37913  1.0000 -0.6642786325
N   N59       1.0  0.05411  0.77232  0.62087  1.0000 -0.6642786325
N   N60       1.0  0.94589  0.22768  0.37913  1.0000 -0.6642786325
N   N61       1.0  0.77232  0.94589  0.62087  1.0000 -0.6642786325
N   N62       1.0  0.22768  0.05411  0.37913  1.0000 -0.6642786325
N   N63       1.0  0.22768  0.05411  0.62087  1.0000 -0.6642786325
N   N64       1.0  0.77232  0.94589  0.37913  1.0000 -0.6642786325
O   O1        1.0  0.25622  0.83657  0.41086  1.0000 -0.5877876343
O   O2        1.0  0.74378  0.16343  0.58914  1.0000 -0.5877876343
O   O3        1.0  0.74378  0.16343  0.41086  1.0000 -0.5877876343
O   O4        1.0  0.25622  0.83657  0.58914  1.0000 -0.5877876343
O   O5        1.0  0.16343  0.25622  0.41086  1.0000 -0.5877876343
O   O6        1.0  0.83657  0.74378  0.58914  1.0000 -0.5877876343
O   O7        1.0  0.83657  0.74378  0.41086  1.0000 -0.5877876343
O   O8        1.0  0.16343  0.25622  0.58914  1.0000 -0.5877876343
O   O9        1.0  0.75622  0.33657  0.91086  1.0000 -0.5877876343
O   O10       1.0  0.24378  0.66343  0.08914  1.0000 -0.5877876343
O   O11       1.0  0.24378  0.66343  0.91086  1.0000 -0.5877876343
O   O12       1.0  0.75622  0.33657  0.08914  1.0000 -0.5877876343
O   O13       1.0  0.66343  0.75622  0.91086  1.0000 -0.5877876343
O   O14       1.0  0.33657  0.24378  0.08914  1.0000 -0.5877876343
O   O15       1.0  0.33657  0.24378  0.91086  1.0000 -0.5877876343
O   O16       1.0  0.66343  0.75622  0.08914  1.0000 -0.5877876343
O   O17       1.0  0.40260  0.79246  0.36401  1.0000 -0.5175448121
O   O18       1.0  0.59740  0.20754  0.63599  1.0000 -0.5175448121
O   O19       1.0  0.59740  0.20754  0.36401  1.0000 -0.5175448121
O   O20       1.0  0.40260  0.79246  0.63599  1.0000 -0.5175448121
O   O21       1.0  0.20754  0.40260  0.36401  1.0000 -0.5175448121
O   O22       1.0  0.79246  0.59740  0.63599  1.0000 -0.5175448121
O   O23       1.0  0.79246  0.59740  0.36401  1.0000 -0.5175448121
O   O24       1.0  0.20754  0.40260  0.63599  1.0000 -0.5175448121
O   O25       1.0  0.90260  0.29246  0.86401  1.0000 -0.5175448121
O   O26       1.0  0.09740  0.70754  0.13599  1.0000 -0.5175448121
O   O27       1.0  0.09740  0.70754  0.86401  1.0000 -0.5175448121
O   O28       1.0  0.90260  0.29246  0.13599  1.0000 -0.5175448121
O   O29       1.0  0.70754  0.90260  0.86401  1.0000 -0.5175448121
O   O30       1.0  0.29246  0.09740  0.13599  1.0000 -0.5175448121
O   O31       1.0  0.29246  0.09740  0.86401  1.0000 -0.5175448121
O   O32       1.0  0.70754  0.90260  0.13599  1.0000 -0.5175448121
