# DDEC6 charges by PACMAN v1.1 (https://github.com/mtap-research/PACMAN-charge/)
data_2014[Zn][nbo]3[ASR]1
_chemical_formula_sum              "Zn6 H42 C90 O24"
_cell_length_a       16.5215
_cell_length_b       16.5215
_cell_length_c       16.5215
_cell_angle_alpha    109.974
_cell_angle_beta     109.974
_cell_angle_gamma    109.974

_symmetry_space_group_name_H-M    "P 1"
_symmetry_Int_Tables_number       1

loop_
  _symmetry_equiv_pos_as_xyz
  'x, y, z'

loop_
  _atom_site_type_symbol
  _atom_site_label
  _atom_site_symmetry_multiplicity
  _atom_site_fract_x
  _atom_site_fract_y
  _atom_site_fract_z
  _atom_site_occupancy
  _atom_site_charge
Zn  Zn1       1.0  0.47560  0.47560  0.07231  1.0000 0.9416014279
Zn  Zn2       1.0  0.47560  0.07231  0.47560  1.0000 0.9416014279
Zn  Zn3       1.0  0.07231  0.47560  0.47560  1.0000 0.9416014279
Zn  Zn4       1.0  0.52440  0.52440  0.92769  1.0000 0.9416014279
Zn  Zn5       1.0  0.92769  0.52440  0.52440  1.0000 0.9416014279
Zn  Zn6       1.0  0.52440  0.92769  0.52440  1.0000 0.9416014279
H   H1        1.0  0.24505  0.50000  0.75495  1.0000 0.1416559468
H   H2        1.0  0.50000  0.75495  0.24505  1.0000 0.1416559468
H   H3        1.0  0.75495  0.24505  0.50000  1.0000 0.1416559468
H   H4        1.0  0.75495  0.50000  0.24505  1.0000 0.1416559468
H   H5        1.0  0.50000  0.24505  0.75495  1.0000 0.1416559468
H   H6        1.0  0.24505  0.75495  0.50000  1.0000 0.1416559468
H   H7        1.0  0.20360  0.46780  0.97180  1.0000 0.1332792963
H   H8        1.0  0.46780  0.97180  0.20360  1.0000 0.1332792963
H   H9        1.0  0.97180  0.20360  0.46780  1.0000 0.1332792963
H   H10       1.0  0.53220  0.79640  0.02820  1.0000 0.1332792963
H   H11       1.0  0.02820  0.53220  0.79640  1.0000 0.1332792963
H   H12       1.0  0.79640  0.02820  0.53220  1.0000 0.1332792963
H   H13       1.0  0.79640  0.53220  0.02820  1.0000 0.1332792963
H   H14       1.0  0.53220  0.02820  0.79640  1.0000 0.1332792963
H   H15       1.0  0.02820  0.79640  0.53220  1.0000 0.1332792963
H   H16       1.0  0.46780  0.20360  0.97180  1.0000 0.1332792963
H   H17       1.0  0.97180  0.46780  0.20360  1.0000 0.1332792963
H   H18       1.0  0.20360  0.97180  0.46780  1.0000 0.1332792963
H   H19       1.0  0.96470  0.31390  0.79130  1.0000 0.1108727704
H   H20       1.0  0.31390  0.79130  0.96470  1.0000 0.1108727704
H   H21       1.0  0.79130  0.96470  0.31390  1.0000 0.1108727704
H   H22       1.0  0.68610  0.03530  0.20870  1.0000 0.1108727704
H   H23       1.0  0.20870  0.68610  0.03530  1.0000 0.1108727704
H   H24       1.0  0.03530  0.20870  0.68610  1.0000 0.1108727704
H   H25       1.0  0.03530  0.68610  0.20870  1.0000 0.1108727704
H   H26       1.0  0.68610  0.20870  0.03530  1.0000 0.1108727704
H   H27       1.0  0.20870  0.03530  0.68610  1.0000 0.1108727704
H   H28       1.0  0.31390  0.96470  0.79130  1.0000 0.1108727704
H   H29       1.0  0.79130  0.31390  0.96470  1.0000 0.1108727704
H   H30       1.0  0.96470  0.79130  0.31390  1.0000 0.1108727704
H   H31       1.0  0.82610  0.16910  0.73930  1.0000 0.1158317129
H   H32       1.0  0.16910  0.73930  0.82610  1.0000 0.1158317129
H   H33       1.0  0.73930  0.82610  0.16910  1.0000 0.1158317129
H   H34       1.0  0.83090  0.17390  0.26070  1.0000 0.1158317129
H   H35       1.0  0.26070  0.83090  0.17390  1.0000 0.1158317129
H   H36       1.0  0.17390  0.26070  0.83090  1.0000 0.1158317129
H   H37       1.0  0.17390  0.83090  0.26070  1.0000 0.1158317129
H   H38       1.0  0.83090  0.26070  0.17390  1.0000 0.1158317129
H   H39       1.0  0.26070  0.17390  0.83090  1.0000 0.1158317129
H   H40       1.0  0.16910  0.82610  0.73930  1.0000 0.1158317129
H   H41       1.0  0.73930  0.16910  0.82610  1.0000 0.1158317129
H   H42       1.0  0.82610  0.73930  0.16910  1.0000 0.1158317129
C   C1        1.0  0.20995  0.50000  0.79005  1.0000 -0.1189355005
C   C2        1.0  0.50000  0.79005  0.20995  1.0000 -0.1189355005
C   C3        1.0  0.79005  0.20995  0.50000  1.0000 -0.1189355005
C   C4        1.0  0.79005  0.50000  0.20995  1.0000 -0.1189355005
C   C5        1.0  0.50000  0.20995  0.79005  1.0000 -0.1189355005
C   C6        1.0  0.20995  0.79005  0.50000  1.0000 -0.1189355005
C   C7        1.0  0.23719  0.48310  0.86891  1.0000 -0.0212185954
C   C8        1.0  0.48310  0.86891  0.23719  1.0000 -0.0212185954
C   C9        1.0  0.86891  0.23719  0.48310  1.0000 -0.0212185954
C   C10       1.0  0.51690  0.76281  0.13109  1.0000 -0.0212185954
C   C11       1.0  0.13109  0.51690  0.76281  1.0000 -0.0212185954
C   C12       1.0  0.76281  0.13109  0.51690  1.0000 -0.0212185954
C   C13       1.0  0.76281  0.51690  0.13109  1.0000 -0.0212185954
C   C14       1.0  0.51690  0.13109  0.76281  1.0000 -0.0212185954
C   C15       1.0  0.13109  0.76281  0.51690  1.0000 -0.0212185954
C   C16       1.0  0.48310  0.23719  0.86891  1.0000 -0.0212185954
C   C17       1.0  0.86891  0.48310  0.23719  1.0000 -0.0212185954
C   C18       1.0  0.23719  0.86891  0.48310  1.0000 -0.0212185954
C   C19       1.0  0.18544  0.48160  0.91916  1.0000 -0.1490929623
C   C20       1.0  0.48160  0.91916  0.18544  1.0000 -0.1490929623
C   C21       1.0  0.91916  0.18544  0.48160  1.0000 -0.1490929623
C   C22       1.0  0.51840  0.81456  0.08084  1.0000 -0.1490929623
C   C23       1.0  0.08084  0.51840  0.81456  1.0000 -0.1490929623
C   C24       1.0  0.81456  0.08084  0.51840  1.0000 -0.1490929623
C   C25       1.0  0.81456  0.51840  0.08084  1.0000 -0.1490929623
C   C26       1.0  0.51840  0.08084  0.81456  1.0000 -0.1490929623
C   C27       1.0  0.08084  0.81456  0.51840  1.0000 -0.1490929623
C   C28       1.0  0.48160  0.18544  0.91916  1.0000 -0.1490929623
C   C29       1.0  0.91916  0.48160  0.18544  1.0000 -0.1490929623
C   C30       1.0  0.18544  0.91916  0.48160  1.0000 -0.1490929623
C   C31       1.0  0.10664  0.50000  0.89336  1.0000 0.0784240043
C   C32       1.0  0.50000  0.89336  0.10664  1.0000 0.0784240043
C   C33       1.0  0.89336  0.10664  0.50000  1.0000 0.0784240043
C   C34       1.0  0.89336  0.50000  0.10664  1.0000 0.0784240043
C   C35       1.0  0.50000  0.10664  0.89336  1.0000 0.0784240043
C   C36       1.0  0.10664  0.89336  0.50000  1.0000 0.0784240043
C   C37       1.0  0.32715  0.47075  0.90290  1.0000 0.5889718856
C   C38       1.0  0.47075  0.90290  0.32715  1.0000 0.5889718856
C   C39       1.0  0.90290  0.32715  0.47075  1.0000 0.5889718856
C   C40       1.0  0.52925  0.67285  0.09710  1.0000 0.5889718856
C   C41       1.0  0.09710  0.52925  0.67285  1.0000 0.5889718856
C   C42       1.0  0.67285  0.09710  0.52925  1.0000 0.5889718856
C   C43       1.0  0.67285  0.52925  0.09710  1.0000 0.5889718856
C   C44       1.0  0.52925  0.09710  0.67285  1.0000 0.5889718856
C   C45       1.0  0.09710  0.67285  0.52925  1.0000 0.5889718856
C   C46       1.0  0.47075  0.32715  0.90290  1.0000 0.5889718856
C   C47       1.0  0.90290  0.47075  0.32715  1.0000 0.5889718856
C   C48       1.0  0.32715  0.90290  0.47075  1.0000 0.5889718856
C   C49       1.0  0.05180  0.50000  0.94820  1.0000 -0.0402956748
C   C50       1.0  0.50000  0.94820  0.05180  1.0000 -0.0402956748
C   C51       1.0  0.94820  0.05180  0.50000  1.0000 -0.0402956748
C   C52       1.0  0.94820  0.50000  0.05180  1.0000 -0.0402956748
C   C53       1.0  0.50000  0.05180  0.94820  1.0000 -0.0402956748
C   C54       1.0  0.05180  0.94820  0.50000  1.0000 -0.0402956748
C   C55       1.0  0.96777  0.41023  0.91480  1.0000 0.0355255694
C   C56       1.0  0.41023  0.91480  0.96777  1.0000 0.0355255694
C   C57       1.0  0.91480  0.96777  0.41023  1.0000 0.0355255694
C   C58       1.0  0.58977  0.03223  0.08520  1.0000 0.0355255694
C   C59       1.0  0.08520  0.58977  0.03223  1.0000 0.0355255694
C   C60       1.0  0.03223  0.08520  0.58977  1.0000 0.0355255694
C   C61       1.0  0.03223  0.58977  0.08520  1.0000 0.0355255694
C   C62       1.0  0.58977  0.08520  0.03223  1.0000 0.0355255694
C   C63       1.0  0.08520  0.03223  0.58977  1.0000 0.0355255694
C   C64       1.0  0.41023  0.96777  0.91480  1.0000 0.0355255694
C   C65       1.0  0.91480  0.41023  0.96777  1.0000 0.0355255694
C   C66       1.0  0.96777  0.91480  0.41023  1.0000 0.0355255694
C   C67       1.0  0.93079  0.31571  0.82760  1.0000 -0.1490929623
C   C68       1.0  0.31571  0.82760  0.93079  1.0000 -0.1490929623
C   C69       1.0  0.82760  0.93079  0.31571  1.0000 -0.1490929623
C   C70       1.0  0.68429  0.06921  0.17240  1.0000 -0.1490929623
C   C71       1.0  0.17240  0.68429  0.06921  1.0000 -0.1490929623
C   C72       1.0  0.06921  0.17240  0.68429  1.0000 -0.1490929623
C   C73       1.0  0.06921  0.68429  0.17240  1.0000 -0.1490929623
C   C74       1.0  0.68429  0.17240  0.06921  1.0000 -0.1490929623
C   C75       1.0  0.17240  0.06921  0.68429  1.0000 -0.1490929623
C   C76       1.0  0.31571  0.93079  0.82760  1.0000 -0.1490929623
C   C77       1.0  0.82760  0.31571  0.93079  1.0000 -0.1490929623
C   C78       1.0  0.93079  0.82760  0.31571  1.0000 -0.1490929623
C   C79       1.0  0.84890  0.23010  0.79680  1.0000 -0.0840480526
C   C80       1.0  0.23010  0.79680  0.84890  1.0000 -0.0840480526
C   C81       1.0  0.79680  0.84890  0.23010  1.0000 -0.0840480526
C   C82       1.0  0.76990  0.15110  0.20320  1.0000 -0.0840480526
C   C83       1.0  0.20320  0.76990  0.15110  1.0000 -0.0840480526
C   C84       1.0  0.15110  0.20320  0.76990  1.0000 -0.0840480526
C   C85       1.0  0.15110  0.76990  0.20320  1.0000 -0.0840480526
C   C86       1.0  0.76990  0.20320  0.15110  1.0000 -0.0840480526
C   C87       1.0  0.20320  0.15110  0.76990  1.0000 -0.0840480526
C   C88       1.0  0.23010  0.84890  0.79680  1.0000 -0.0840480526
C   C89       1.0  0.79680  0.23010  0.84890  1.0000 -0.0840480526
C   C90       1.0  0.84890  0.79680  0.23010  1.0000 -0.0840480526
O   O1        1.0  0.34451  0.45085  0.97183  1.0000 -0.5534491961
O   O2        1.0  0.45085  0.97183  0.34451  1.0000 -0.5534491961
O   O3        1.0  0.97183  0.34451  0.45085  1.0000 -0.5534491961
O   O4        1.0  0.54915  0.65549  0.02817  1.0000 -0.5534491961
O   O5        1.0  0.02817  0.54915  0.65549  1.0000 -0.5534491961
O   O6        1.0  0.65549  0.02817  0.54915  1.0000 -0.5534491961
O   O7        1.0  0.65549  0.54915  0.02817  1.0000 -0.5534491961
O   O8        1.0  0.54915  0.02817  0.65549  1.0000 -0.5534491961
O   O9        1.0  0.02817  0.65549  0.54915  1.0000 -0.5534491961
O   O10       1.0  0.45085  0.34451  0.97183  1.0000 -0.5534491961
O   O11       1.0  0.97183  0.45085  0.34451  1.0000 -0.5534491961
O   O12       1.0  0.34451  0.97183  0.45085  1.0000 -0.5534491961
O   O13       1.0  0.37868  0.48491  0.86301  1.0000 -0.5288045679
O   O14       1.0  0.48491  0.86301  0.37868  1.0000 -0.5288045679
O   O15       1.0  0.86301  0.37868  0.48491  1.0000 -0.5288045679
O   O16       1.0  0.51509  0.62132  0.13699  1.0000 -0.5288045679
O   O17       1.0  0.13699  0.51509  0.62132  1.0000 -0.5288045679
O   O18       1.0  0.62132  0.13699  0.51509  1.0000 -0.5288045679
O   O19       1.0  0.62132  0.51509  0.13699  1.0000 -0.5288045679
O   O20       1.0  0.51509  0.13699  0.62132  1.0000 -0.5288045679
O   O21       1.0  0.13699  0.62132  0.51509  1.0000 -0.5288045679
O   O22       1.0  0.48491  0.37868  0.86301  1.0000 -0.5288045679
O   O23       1.0  0.86301  0.48491  0.37868  1.0000 -0.5288045679
O   O24       1.0  0.37868  0.86301  0.48491  1.0000 -0.5288045679
