# DDEC6 charges by PACMAN v1.1 (https://github.com/mtap-research/PACMAN-charge/)
data_2014[Cd][dia]3[ASR]6
_chemical_formula_sum              "Cd4 H80 C88 N24 O16"
_cell_length_a       8.0542
_cell_length_b       18.78
_cell_length_c       19.289
_cell_angle_alpha    90
_cell_angle_beta     95.641
_cell_angle_gamma    90

_symmetry_space_group_name_H-M    "P 1"
_symmetry_Int_Tables_number       1

loop_
  _symmetry_equiv_pos_as_xyz
  'x, y, z'

loop_
  _atom_site_type_symbol
  _atom_site_label
  _atom_site_symmetry_multiplicity
  _atom_site_fract_x
  _atom_site_fract_y
  _atom_site_fract_z
  _atom_site_occupancy
  _atom_site_charge
Cd  Cd1       1.0  0.50963  0.63873  0.52551  1.0000 0.8555463482
Cd  Cd2       1.0  0.49037  0.13873  0.47449  1.0000 0.8555463482
Cd  Cd3       1.0  0.51674  0.66147  0.98472  1.0000 0.8541394998
Cd  Cd4       1.0  0.48326  0.16147  0.01528  1.0000 0.8541394998
H   H1        1.0  0.98340  0.66470  0.40640  1.0000 0.1225624648
H   H2        1.0  0.01660  0.16470  0.59360  1.0000 0.1225624648
H   H3        1.0  0.76130  0.66030  0.31940  1.0000 0.1413256406
H   H4        1.0  0.23870  0.16030  0.68060  1.0000 0.1413256406
H   H5        1.0  0.06380  0.57410  0.18940  1.0000 0.1282362595
H   H6        1.0  0.93620  0.07410  0.81060  1.0000 0.1282362595
H   H7        1.0  0.28380  0.57900  0.27600  1.0000 0.1225624648
H   H8        1.0  0.71620  0.07900  0.72400  1.0000 0.1225624648
H   H9        1.0  0.81320  0.75310  0.13880  1.0000 0.1605835864
H   H10       1.0  0.18680  0.25310  0.86120  1.0000 0.1605835864
H   H11       1.0  0.96140  0.69810  0.13550  1.0000 0.1605835864
H   H12       1.0  0.03860  0.19810  0.86450  1.0000 0.1605835864
H   H13       1.0  0.84210  0.71560  0.06740  1.0000 0.1605835864
H   H14       1.0  0.15790  0.21560  0.93260  1.0000 0.1605835864
H   H15       1.0  0.50670  0.48270  0.23250  1.0000 0.1605835864
H   H16       1.0  0.49330  0.98270  0.76750  1.0000 0.1605835864
H   H17       1.0  0.70000  0.48660  0.25710  1.0000 0.1518460963
H   H18       1.0  0.30000  0.98660  0.74290  1.0000 0.1518460963
H   H19       1.0  0.57480  0.53990  0.28860  1.0000 0.1605835864
H   H20       1.0  0.42520  0.03990  0.71140  1.0000 0.1605835864
H   H21       1.0  0.25610  0.35830  0.55980  1.0000 0.1225624648
H   H22       1.0  0.74390  0.85830  0.44020  1.0000 0.1225624648
H   H23       1.0  0.04530  0.43350  0.57960  1.0000 0.1282362595
H   H24       1.0  0.95470  0.93350  0.42040  1.0000 0.1282362595
H   H25       1.0  0.71020  0.30570  0.47800  1.0000 0.1413256406
H   H26       1.0  0.28980  0.80570  0.52200  1.0000 0.1413256406
H   H27       1.0  0.92370  0.22710  0.45740  1.0000 0.1225624648
H   H28       1.0  0.07630  0.72710  0.54260  1.0000 0.1225624648
H   H29       1.0  0.91030  0.54160  0.48360  1.0000 0.1686905221
H   H30       1.0  0.08970  0.04160  0.51640  1.0000 0.1686905221
H   H31       1.0  0.83510  0.48340  0.42990  1.0000 0.1605835864
H   H32       1.0  0.16490  0.98340  0.57010  1.0000 0.1605835864
H   H33       1.0  0.74490  0.55800  0.43470  1.0000 0.1686905221
H   H34       1.0  0.25510  0.05800  0.56530  1.0000 0.1686905221
H   H35       1.0  0.51530  0.36530  0.66720  1.0000 0.1605835864
H   H36       1.0  0.48470  0.86530  0.33280  1.0000 0.1605835864
H   H37       1.0  0.55020  0.31680  0.60300  1.0000 0.1605835864
H   H38       1.0  0.44980  0.81680  0.39700  1.0000 0.1605835864
H   H39       1.0  0.70050  0.34290  0.65610  1.0000 0.1518460963
H   H40       1.0  0.29950  0.84290  0.34390  1.0000 0.1518460963
H   H41       1.0  0.71070  0.70750  0.75450  1.0000 0.1282362595
H   H42       1.0  0.28930  0.20750  0.24550  1.0000 0.1282362595
H   H43       1.0  0.91720  0.71620  0.67710  1.0000 0.1413256406
H   H44       1.0  0.08280  0.21620  0.32290  1.0000 0.1413256406
H   H45       1.0  0.26520  0.67020  0.83630  1.0000 0.1413256406
H   H46       1.0  0.73480  0.17020  0.16370  1.0000 0.1413256406
H   H47       1.0  0.06020  0.66350  0.91070  1.0000 0.1282362595
H   H48       1.0  0.93980  0.16350  0.08930  1.0000 0.1282362595
H   H49       1.0  0.21890  0.56330  0.59770  1.0000 0.1686905221
H   H50       1.0  0.78110  0.06330  0.40230  1.0000 0.1686905221
H   H51       1.0  0.15940  0.56090  0.67350  1.0000 0.1686905221
H   H52       1.0  0.84060  0.06090  0.32650  1.0000 0.1686905221
H   H53       1.0  0.05670  0.60530  0.61400  1.0000 0.1686905221
H   H54       1.0  0.94330  0.10530  0.38600  1.0000 0.1686905221
H   H55       1.0  0.48280  0.83360  0.75210  1.0000 0.1605835864
H   H56       1.0  0.51720  0.33360  0.24790  1.0000 0.1605835864
H   H57       1.0  0.28690  0.84440  0.74110  1.0000 0.1518460963
H   H58       1.0  0.71310  0.34440  0.25890  1.0000 0.1518460963
H   H59       1.0  0.36610  0.79300  0.80060  1.0000 0.1605835864
H   H60       1.0  0.63390  0.29300  0.19940  1.0000 0.1605835864
H   H61       1.0  0.36590  0.92570  0.05280  1.0000 0.1282362595
H   H62       1.0  0.63410  0.42570  0.94720  1.0000 0.1282362595
H   H63       1.0  0.15640  0.00380  0.07710  1.0000 0.1413256406
H   H64       1.0  0.84360  0.50380  0.92290  1.0000 0.1413256406
H   H65       1.0  0.81160  0.85610  0.01260  1.0000 0.1413256406
H   H66       1.0  0.18840  0.35610  0.98740  1.0000 0.1413256406
H   H67       1.0  0.02340  0.77800  0.99460  1.0000 0.1282362595
H   H68       1.0  0.97660  0.27800  0.00540  1.0000 0.1282362595
H   H69       1.0  0.80940  0.11590  0.95030  1.0000 0.1686905221
H   H70       1.0  0.19060  0.61590  0.04970  1.0000 0.1686905221
H   H71       1.0  0.97550  0.07440  0.97590  1.0000 0.1605835864
H   H72       1.0  0.02450  0.57440  0.02410  1.0000 0.1605835864
H   H73       1.0  0.83670  0.03700  0.92450  1.0000 0.1605835864
H   H74       1.0  0.16330  0.53700  0.07550  1.0000 0.1605835864
H   H75       1.0  0.69440  0.87350  0.14160  1.0000 0.1605835864
H   H76       1.0  0.30560  0.37350  0.85840  1.0000 0.1605835864
H   H77       1.0  0.85230  0.91150  0.18080  1.0000 0.1518460963
H   H78       1.0  0.14770  0.41150  0.81920  1.0000 0.1518460963
H   H79       1.0  0.67150  0.92890  0.20190  1.0000 0.1686905221
H   H80       1.0  0.32850  0.42890  0.79810  1.0000 0.1686905221
C   C1        1.0  0.29300  0.62270  0.40750  1.0000 0.5388019313
C   C2        1.0  0.70700  0.12270  0.59250  1.0000 0.5388019313
C   C3        1.0  0.15440  0.62190  0.35090  1.0000 -0.0291540814
C   C4        1.0  0.84560  0.12190  0.64910  1.0000 -0.0291540814
C   C5        1.0  0.00040  0.64590  0.36250  1.0000 -0.0738464366
C   C6        1.0  0.99960  0.14590  0.63750  1.0000 -0.0738464366
C   C7        1.0  0.86720  0.64350  0.31070  1.0000 -0.1594185601
C   C8        1.0  0.13280  0.14350  0.68930  1.0000 -0.1594185601
C   C9        1.0  0.89270  0.61660  0.24780  1.0000 0.1605835864
C   C10       1.0  0.10730  0.11660  0.75220  1.0000 0.1605835864
C   C11       1.0  0.04770  0.59230  0.23360  1.0000 -0.1758399005
C   C12       1.0  0.95230  0.09230  0.76640  1.0000 -0.1758399005
C   C13       1.0  0.17770  0.59520  0.28510  1.0000 -0.0800876822
C   C14       1.0  0.82230  0.09520  0.71490  1.0000 -0.0800876822
C   C15       1.0  0.84780  0.70940  0.11750  1.0000 -0.5316684858
C   C16       1.0  0.15220  0.20940  0.88250  1.0000 -0.5316684858
C   C17       1.0  0.73610  0.65080  0.13400  1.0000 0.3406537813
C   C18       1.0  0.26390  0.15080  0.86600  1.0000 0.3406537813
C   C19       1.0  0.62230  0.56680  0.18960  1.0000 0.3308268119
C   C20       1.0  0.37770  0.06680  0.81040  1.0000 0.3308268119
C   C21       1.0  0.59880  0.51430  0.24710  1.0000 -0.5191130112
C   C22       1.0  0.40120  0.01430  0.75290  1.0000 -0.5191130112
C   C23       1.0  0.24950  0.23550  0.49120  1.0000 0.5327942599
C   C24       1.0  0.75050  0.73550  0.50880  1.0000 0.5327942599
C   C25       1.0  0.11250  0.28440  0.50560  1.0000 -0.0291540814
C   C26       1.0  0.88750  0.78440  0.49440  1.0000 -0.0291540814
C   C27       1.0  0.14590  0.34700  0.54270  1.0000 -0.0738464366
C   C28       1.0  0.85410  0.84700  0.45730  1.0000 -0.0738464366
C   C29       1.0  0.02120  0.39130  0.55440  1.0000 -0.1594185601
C   C30       1.0  0.97880  0.89130  0.44560  1.0000 -0.1594185601
C   C31       1.0  0.86120  0.37660  0.53050  1.0000 0.1605835864
C   C32       1.0  0.13880  0.87660  0.46950  1.0000 0.1605835864
C   C33       1.0  0.82140  0.31590  0.49430  1.0000 -0.1530149947
C   C34       1.0  0.17860  0.81590  0.50570  1.0000 -0.1530149947
C   C35       1.0  0.94900  0.26940  0.48210  1.0000 -0.0800876822
C   C36       1.0  0.05100  0.76940  0.51790  1.0000 -0.0800876822
C   C37       1.0  0.80810  0.52130  0.46110  1.0000 -0.5316684858
C   C38       1.0  0.19190  0.02130  0.53890  1.0000 -0.5316684858
C   C39       1.0  0.70730  0.49210  0.51460  1.0000 0.3500558465
C   C40       1.0  0.29270  0.99210  0.48540  1.0000 0.3500558465
C   C41       1.0  0.60940  0.41930  0.59040  1.0000 0.3500558465
C   C42       1.0  0.39060  0.91930  0.40960  1.0000 0.3500558465
C   C43       1.0  0.59250  0.35570  0.63270  1.0000 -0.5107742916
C   C44       1.0  0.40750  0.85570  0.36730  1.0000 -0.5107742916
C   C45       1.0  0.73410  0.67920  0.88920  1.0000 0.5327942599
C   C46       1.0  0.26590  0.17920  0.11080  1.0000 0.5327942599
C   C47       1.0  0.86710  0.68530  0.83940  1.0000 -0.0187072265
C   C48       1.0  0.13290  0.18530  0.16060  1.0000 -0.0187072265
C   C49       1.0  0.82340  0.70040  0.77060  1.0000 -0.0800876822
C   C50       1.0  0.17660  0.20040  0.22940  1.0000 -0.0800876822
C   C51       1.0  0.94620  0.70530  0.72430  1.0000 -0.1758399005
C   C52       1.0  0.05380  0.20530  0.27570  1.0000 -0.1758399005
C   C53       1.0  0.11060  0.69390  0.74920  1.0000 0.1686905221
C   C54       1.0  0.88940  0.19390  0.25080  1.0000 0.1686905221
C   C55       1.0  0.15320  0.67800  0.81950  1.0000 -0.1594185601
C   C56       1.0  0.84680  0.17800  0.18050  1.0000 -0.1594185601
C   C57       1.0  0.03170  0.67410  0.86340  1.0000 -0.0862378697
C   C58       1.0  0.96830  0.17410  0.13660  1.0000 -0.0862378697
C   C59       1.0  0.16750  0.59030  0.63270  1.0000 -0.5191130112
C   C60       1.0  0.83250  0.09030  0.36730  1.0000 -0.5316684858
C   C61       1.0  0.26910  0.65300  0.65200  1.0000 0.3406537813
C   C62       1.0  0.73090  0.15300  0.34800  1.0000 0.3406537813
C   C63       1.0  0.36150  0.75010  0.70440  1.0000 0.3406537813
C   C64       1.0  0.63850  0.25010  0.29560  1.0000 0.3406537813
C   C65       1.0  0.37550  0.81040  0.75380  1.0000 -0.5107742916
C   C66       1.0  0.62450  0.31040  0.24620  1.0000 -0.5107742916
C   C67       1.0  0.35080  0.79030  0.01040  1.0000 0.5388019313
C   C68       1.0  0.64920  0.29030  0.98960  1.0000 0.5388019313
C   C69       1.0  0.21510  0.84340  0.02380  1.0000 -0.0132338559
C   C70       1.0  0.78490  0.34340  0.97620  1.0000 -0.0132338559
C   C71       1.0  0.25380  0.91120  0.04650  1.0000 -0.0800876822
C   C72       1.0  0.74620  0.41120  0.95350  1.0000 -0.0800876822
C   C73       1.0  0.12950  0.95790  0.06000  1.0000 -0.1724729459
C   C74       1.0  0.87050  0.45790  0.94000  1.0000 -0.1724729459
C   C75       1.0  0.96700  0.93700  0.04850  1.0000 0.1686905221
C   C76       1.0  0.03300  0.43700  0.95150  1.0000 0.1686905221
C   C77       1.0  0.92380  0.86960  0.02230  1.0000 -0.1594185601
C   C78       1.0  0.07620  0.36960  0.97770  1.0000 -0.1594185601
C   C79       1.0  0.04980  0.82400  0.01120  1.0000 -0.0800876822
C   C80       1.0  0.95020  0.32400  0.98880  1.0000 -0.0800876822
C   C81       1.0  0.85640  0.06970  0.96340  1.0000 -0.5316684858
C   C82       1.0  0.14360  0.56970  0.03660  1.0000 -0.5316684858
C   C83       1.0  0.77530  0.04130  0.02450  1.0000 0.3500558465
C   C84       1.0  0.22470  0.54130  0.97550  1.0000 0.3500558465
C   C85       1.0  0.71980  0.97630  0.11120  1.0000 0.3406537813
C   C86       1.0  0.28020  0.47630  0.88880  1.0000 0.3406537813
C   C87       1.0  0.73590  0.91740  0.16340  1.0000 -0.5191130112
C   C88       1.0  0.26410  0.41740  0.83660  1.0000 -0.5191130112
N   N1        1.0  0.60310  0.62900  0.09610  1.0000 -0.279756106
N   N2        1.0  0.39690  0.12900  0.90390  1.0000 -0.279756106
N   N3        1.0  0.53080  0.57500  0.13260  1.0000 -0.2886086077
N   N4        1.0  0.46920  0.07500  0.86740  1.0000 -0.295191295
N   N5        1.0  0.75430  0.61220  0.19340  1.0000 -0.1316093475
N   N6        1.0  0.24570  0.11220  0.80660  1.0000 -0.1316093475
N   N7        1.0  0.58420  0.52310  0.54150  1.0000 -0.272710837
N   N8        1.0  0.41580  0.02310  0.45850  1.0000 -0.272710837
N   N9        1.0  0.52160  0.47710  0.58950  1.0000 -0.3113417696
N   N10       1.0  0.47840  0.97710  0.41050  1.0000 -0.3113417696
N   N11       1.0  0.72920  0.42630  0.54410  1.0000 -0.1316093475
N   N12       1.0  0.27080  0.92630  0.45590  1.0000 -0.1316093475
N   N13       1.0  0.40180  0.67540  0.62360  1.0000 -0.2612277638
N   N14       1.0  0.59820  0.17540  0.37640  1.0000 -0.2612277638
N   N15       1.0  0.46070  0.73680  0.65650  1.0000 -0.279756106
N   N16       1.0  0.53930  0.23680  0.34350  1.0000 -0.279756106
N   N17       1.0  0.24130  0.69940  0.70290  1.0000 -0.1316093475
N   N18       1.0  0.75870  0.19940  0.29710  1.0000 -0.1316093475
N   N19       1.0  0.64250  0.06640  0.04890  1.0000 -0.2612277638
N   N20       1.0  0.35750  0.56640  0.95110  1.0000 -0.2612277638
N   N21       1.0  0.60740  0.02540  0.10440  1.0000 -0.2886086077
N   N22       1.0  0.39260  0.52540  0.89560  1.0000 -0.2886086077
N   N23       1.0  0.83270  0.98460  0.06280  1.0000 -0.1429800759
N   N24       1.0  0.16730  0.48460  0.93720  1.0000 -0.1429800759
O   O1        1.0  0.25540  0.63540  0.46780  1.0000 -0.5191130112
O   O2        1.0  0.74460  0.13540  0.53220  1.0000 -0.5191130112
O   O3        1.0  0.43920  0.60970  0.39540  1.0000 -0.540718781
O   O4        1.0  0.56080  0.10970  0.60460  1.0000 -0.540718781
O   O5        1.0  0.21220  0.17560  0.46280  1.0000 -0.540718781
O   O6        1.0  0.78780  0.67560  0.53720  1.0000 -0.540718781
O   O7        1.0  0.39580  0.25260  0.50830  1.0000 -0.5107742916
O   O8        1.0  0.60420  0.75260  0.49170  1.0000 -0.5107742916
O   O9        1.0  0.30060  0.72750  0.99980  1.0000 -0.5316684858
O   O10       1.0  0.69940  0.22750  0.00020  1.0000 -0.5316684858
O   O11       1.0  0.49840  0.80850  0.01230  1.0000 -0.540718781
O   O12       1.0  0.50160  0.30850  0.98770  1.0000 -0.540718781
O   O13       1.0  0.77840  0.66340  0.95150  1.0000 -0.5316684858
O   O14       1.0  0.22160  0.16340  0.04850  1.0000 -0.5316684858
O   O15       1.0  0.58360  0.68850  0.86850  1.0000 -0.5191130112
O   O16       1.0  0.41640  0.18850  0.13150  1.0000 -0.5191130112
