# DDEC6 charges by PACMAN v1.1 (https://github.com/mtap-research/PACMAN-charge/)
data_2014[Zn][dmc]3[ASR]1
_chemical_formula_sum              "Zn4 H16 C28 N12 O16"
_cell_length_a       9.883
_cell_length_b       9.563
_cell_length_c       13.762
_cell_angle_alpha    90
_cell_angle_beta     101.074
_cell_angle_gamma    90

_symmetry_space_group_name_H-M    "P 1"
_symmetry_Int_Tables_number       1

loop_
  _symmetry_equiv_pos_as_xyz
  'x, y, z'

loop_
  _atom_site_type_symbol
  _atom_site_label
  _atom_site_symmetry_multiplicity
  _atom_site_fract_x
  _atom_site_fract_y
  _atom_site_fract_z
  _atom_site_occupancy
  _atom_site_charge
Zn  Zn1       1.0  0.09915  0.93176  0.40432  1.0000 0.6690725997
Zn  Zn2       1.0  0.40085  0.43176  0.59568  1.0000 0.6690725997
Zn  Zn3       1.0  0.90085  0.06824  0.59568  1.0000 0.6690725997
Zn  Zn4       1.0  0.59915  0.56824  0.40432  1.0000 0.6690725997
H   H1        1.0  0.88430  0.10650  0.11070  1.0000 0.1296767905
H   H2        1.0  0.61570  0.60650  0.88930  1.0000 0.1296767905
H   H3        1.0  0.11570  0.89350  0.88930  1.0000 0.1296767905
H   H4        1.0  0.38430  0.39350  0.11070  1.0000 0.1296767905
H   H5        1.0  0.64700  0.22790  0.83080  1.0000 0.350546205
H   H6        1.0  0.85300  0.72790  0.16920  1.0000 0.350546205
H   H7        1.0  0.35300  0.77210  0.16920  1.0000 0.350546205
H   H8        1.0  0.14700  0.27210  0.83080  1.0000 0.350546205
H   H9        1.0  0.38950  0.82390  0.35590  1.0000 0.1296767905
H   H10       1.0  0.11050  0.32390  0.64410  1.0000 0.1296767905
H   H11       1.0  0.61050  0.17610  0.64410  1.0000 0.1296767905
H   H12       1.0  0.88950  0.67610  0.35590  1.0000 0.1296767905
H   H13       1.0  0.18520  0.67070  0.54480  1.0000 0.1225138321
H   H14       1.0  0.31480  0.17070  0.45520  1.0000 0.1225138321
H   H15       1.0  0.81480  0.32930  0.45520  1.0000 0.1225138321
H   H16       1.0  0.68520  0.82930  0.54480  1.0000 0.1225138321
C   C1        1.0  0.93080  0.06310  0.06630  1.0000 -0.0889648501
C   C2        1.0  0.56920  0.56310  0.93370  1.0000 -0.0889648501
C   C3        1.0  0.06920  0.93690  0.93370  1.0000 -0.0889648501
C   C4        1.0  0.43080  0.43690  0.06630  1.0000 -0.0889648501
C   C5        1.0  0.05290  0.92610  0.20880  1.0000 0.580358149
C   C6        1.0  0.44710  0.42610  0.79120  1.0000 0.580358149
C   C7        1.0  0.94710  0.07390  0.79120  1.0000 0.580358149
C   C8        1.0  0.55290  0.57390  0.20880  1.0000 0.580358149
C   C9        1.0  0.89510  0.09520  0.96620  1.0000 -0.0315555157
C   C10       1.0  0.60490  0.59520  0.03380  1.0000 -0.0315555157
C   C11       1.0  0.10490  0.90480  0.03380  1.0000 -0.0315555157
C   C12       1.0  0.39510  0.40480  0.96620  1.0000 -0.0315555157
C   C13       1.0  0.03470  0.96750  0.10150  1.0000 -0.0143899125
C   C14       1.0  0.46530  0.46750  0.89850  1.0000 -0.0143899125
C   C15       1.0  0.96530  0.03250  0.89850  1.0000 -0.0143899125
C   C16       1.0  0.53470  0.53250  0.10150  1.0000 -0.0143899125
C   C17       1.0  0.36190  0.76670  0.40310  1.0000 0.1658023908
C   C18       1.0  0.13810  0.26670  0.59690  1.0000 0.1658023908
C   C19       1.0  0.63810  0.23330  0.59690  1.0000 0.1658023908
C   C20       1.0  0.86190  0.73330  0.40310  1.0000 0.1658023908
C   C21       1.0  0.25130  0.68360  0.50570  1.0000 0.1513727024
C   C22       1.0  0.24870  0.18360  0.49430  1.0000 0.1513727024
C   C23       1.0  0.74870  0.31640  0.49430  1.0000 0.1513727024
C   C24       1.0  0.75130  0.81640  0.50570  1.0000 0.1513727024
C   C25       1.0  0.77560  0.19210  0.93560  1.0000 0.5557099595
C   C26       1.0  0.72440  0.69210  0.06440  1.0000 0.5557099595
C   C27       1.0  0.22440  0.80790  0.06440  1.0000 0.5557099595
C   C28       1.0  0.27560  0.30790  0.93560  1.0000 0.5557099595
N   N1        1.0  0.24860  0.78970  0.44139  1.0000 -0.314543365
N   N2        1.0  0.25140  0.28970  0.55861  1.0000 -0.314543365
N   N3        1.0  0.75140  0.21030  0.55861  1.0000 -0.314543365
N   N4        1.0  0.74860  0.71030  0.44139  1.0000 -0.314543365
N   N5        1.0  0.42950  0.65370  0.44018  1.0000 -0.189706786
N   N6        1.0  0.07050  0.15370  0.55982  1.0000 -0.189706786
N   N7        1.0  0.57050  0.34630  0.55982  1.0000 -0.189706786
N   N8        1.0  0.92950  0.84630  0.44018  1.0000 -0.189706786
N   N9        1.0  0.35660  0.60060  0.50757  1.0000 -0.189706786
N   N10       1.0  0.14340  0.10060  0.49243  1.0000 -0.189706786
N   N11       1.0  0.64340  0.39940  0.49243  1.0000 -0.189706786
N   N12       1.0  0.85660  0.89940  0.50757  1.0000 -0.189706786
O   O1        1.0  0.09830  0.01360  0.27309  1.0000 -0.5085837827
O   O2        1.0  0.40170  0.51360  0.72691  1.0000 -0.5085837827
O   O3        1.0  0.90170  0.98640  0.72691  1.0000 -0.5085837827
O   O4        1.0  0.59830  0.48640  0.27309  1.0000 -0.5085837827
O   O5        1.0  0.01630  0.80620  0.22866  1.0000 -0.5647305236
O   O6        1.0  0.48370  0.30620  0.77134  1.0000 -0.5647305236
O   O7        1.0  0.98370  0.19380  0.77134  1.0000 -0.5647305236
O   O8        1.0  0.51630  0.69380  0.22866  1.0000 -0.5647305236
O   O9        1.0  0.71140  0.17260  0.84400  1.0000 -0.4916309625
O   O10       1.0  0.78860  0.67260  0.15600  1.0000 -0.4916309625
O   O11       1.0  0.28860  0.82740  0.15600  1.0000 -0.4916309625
O   O12       1.0  0.21140  0.32740  0.84400  1.0000 -0.4916309625
O   O13       1.0  0.73890  0.27470  0.99120  1.0000 -0.460916935
O   O14       1.0  0.76110  0.77470  0.00880  1.0000 -0.460916935
O   O15       1.0  0.26110  0.72530  0.00880  1.0000 -0.460916935
O   O16       1.0  0.23890  0.22530  0.99120  1.0000 -0.460916935
