# DDEC6 charges by PACMAN v1.1 (https://github.com/mtap-research/PACMAN-charge/)
data_2014[Tm][nan]3[ASR]1
_chemical_formula_sum              "Tm12 H58 C139 O86"
_cell_length_a       18.131
_cell_length_b       18.131
_cell_length_c       21.0709
_cell_angle_alpha    71.9601
_cell_angle_beta     108.04
_cell_angle_gamma    99.6436

_symmetry_space_group_name_H-M    "P 1"
_symmetry_Int_Tables_number       1

loop_
  _symmetry_equiv_pos_as_xyz
  'x, y, z'

loop_
  _atom_site_type_symbol
  _atom_site_label
  _atom_site_symmetry_multiplicity
  _atom_site_fract_x
  _atom_site_fract_y
  _atom_site_fract_z
  _atom_site_occupancy
  _atom_site_charge
Tm  Tm1       1.0  0.33039  0.19855  0.20622  1.0000 2.0266273826
Tm  Tm2       1.0  0.19855  0.33039  0.79378  1.0000 2.0266273826
Tm  Tm3       1.0  0.66961  0.80145  0.79378  1.0000 2.0266273826
Tm  Tm4       1.0  0.80145  0.66961  0.20622  1.0000 2.0266273826
Tm  Tm5       1.0  0.84680  0.70730  0.71001  1.0000 2.0201577752
Tm  Tm6       1.0  0.70730  0.84680  0.28999  1.0000 2.0201577752
Tm  Tm7       1.0  0.15320  0.29270  0.28999  1.0000 2.0201577752
Tm  Tm8       1.0  0.29270  0.15320  0.71001  1.0000 2.0201577752
Tm  Tm9       1.0  0.63382  0.36618  0.08615  1.0000 1.9683396726
Tm  Tm10      1.0  0.36618  0.63382  0.91385  1.0000 1.9683396726
Tm  Tm11      1.0  0.83882  0.16118  0.39292  1.0000 1.9683396726
Tm  Tm12      1.0  0.16118  0.83882  0.60708  1.0000 1.9683396726
H   H1        1.0  0.47180  0.97860  0.38400  1.0000 0.1240577272
H   H2        1.0  0.97860  0.47180  0.61600  1.0000 0.1240577272
H   H3        1.0  0.52820  0.02140  0.61600  1.0000 0.1240577272
H   H4        1.0  0.02140  0.52820  0.38400  1.0000 0.1240577272
H   H5        1.0  0.88450  0.34610  0.04780  1.0000 0.1279214877
H   H6        1.0  0.34610  0.88450  0.95220  1.0000 0.1279214877
H   H7        1.0  0.11550  0.65390  0.95220  1.0000 0.1279214877
H   H8        1.0  0.65390  0.11550  0.04780  1.0000 0.1279214877
H   H9        1.0  0.01680  0.31900  0.09630  1.0000 0.1279214877
H   H10       1.0  0.31900  0.01680  0.90370  1.0000 0.1279214877
H   H11       1.0  0.98320  0.68100  0.90370  1.0000 0.1279214877
H   H12       1.0  0.68100  0.98320  0.09630  1.0000 0.1279214877
H   H13       1.0  0.76170  0.51990  0.90790  1.0000 0.1392179668
H   H14       1.0  0.51990  0.76170  0.09210  1.0000 0.1392179668
H   H15       1.0  0.23830  0.48010  0.09210  1.0000 0.1392179668
H   H16       1.0  0.48010  0.23830  0.90790  1.0000 0.1392179668
H   H17       1.0  0.00970  0.37430  0.89490  1.0000 0.1279214877
H   H18       1.0  0.37430  0.00970  0.10510  1.0000 0.1279214877
H   H19       1.0  0.99030  0.62570  0.10510  1.0000 0.1279214877
H   H20       1.0  0.62570  0.99030  0.89490  1.0000 0.1279214877
H   H21       1.0  0.69990  0.76810  0.53940  1.0000 0.1392179668
H   H22       1.0  0.76810  0.69990  0.46060  1.0000 0.1392179668
H   H23       1.0  0.30010  0.23190  0.46060  1.0000 0.1392179668
H   H24       1.0  0.23190  0.30010  0.53940  1.0000 0.1392179668
H   H25       1.0  0.52970  0.82630  0.59600  1.0000 0.1279214877
H   H26       1.0  0.82630  0.52970  0.40400  1.0000 0.1279214877
H   H27       1.0  0.47030  0.17370  0.40400  1.0000 0.1279214877
H   H28       1.0  0.17370  0.47030  0.59600  1.0000 0.1279214877
H   H29       1.0  0.96270  0.48310  0.88900  1.0000 0.1279214877
H   H30       1.0  0.48310  0.96270  0.11100  1.0000 0.1279214877
H   H31       1.0  0.03730  0.51690  0.11100  1.0000 0.1279214877
H   H32       1.0  0.51690  0.03730  0.88900  1.0000 0.1279214877
H   H33       1.0  0.18190  0.25350  0.03910  1.0000 0.1392179668
H   H34       1.0  0.25350  0.18190  0.96090  1.0000 0.1392179668
H   H35       1.0  0.81810  0.74650  0.96090  1.0000 0.1392179668
H   H36       1.0  0.74650  0.81810  0.03910  1.0000 0.1392179668
H   H37       1.0  0.52320  0.88180  0.39510  1.0000 0.1279214877
H   H38       1.0  0.88180  0.52320  0.60490  1.0000 0.1279214877
H   H39       1.0  0.47680  0.11820  0.60490  1.0000 0.1279214877
H   H40       1.0  0.11820  0.47680  0.39510  1.0000 0.1279214877
H   H41       1.0  0.26350  0.01050  0.41200  1.0000 0.1392179668
H   H42       1.0  0.01050  0.26350  0.58800  1.0000 0.1392179668
H   H43       1.0  0.73650  0.98950  0.58800  1.0000 0.1392179668
H   H44       1.0  0.98950  0.73650  0.41200  1.0000 0.1392179668
H   H45       1.0  0.40010  0.84610  0.55080  1.0000 0.1279214877
H   H46       1.0  0.84610  0.40010  0.44920  1.0000 0.1279214877
H   H47       1.0  0.59990  0.15390  0.44920  1.0000 0.1279214877
H   H48       1.0  0.15390  0.59990  0.55080  1.0000 0.1279214877
H   H49       1.0  0.76200  0.23800  0.21250  1.0000 0.1598852683
H   H50       1.0  0.23800  0.76200  0.78750  1.0000 0.1598852683
H   H51       1.0  0.44640  0.33260  0.12530  1.0000 0.1598852683
H   H52       1.0  0.33260  0.44640  0.87470  1.0000 0.1598852683
H   H53       1.0  0.55360  0.66740  0.87470  1.0000 0.1598852683
H   H54       1.0  0.66740  0.55360  0.12530  1.0000 0.1598852683
H   H55       1.0  0.98090  0.81690  0.63620  1.0000 0.1392179668
H   H56       1.0  0.81690  0.98090  0.36380  1.0000 0.1392179668
H   H57       1.0  0.01910  0.18310  0.36380  1.0000 0.1392179668
H   H58       1.0  0.18310  0.01910  0.63620  1.0000 0.1392179668
C   C1        1.0  0.50000  0.50000  0.00000  1.0000 0.6447741001
C   C2        1.0  0.13727  0.31653  0.90276  1.0000 0.577192673
C   C3        1.0  0.31653  0.13727  0.09724  1.0000 0.577192673
C   C4        1.0  0.86273  0.68347  0.09724  1.0000 0.577192673
C   C5        1.0  0.68347  0.86273  0.90276  1.0000 0.577192673
C   C6        1.0  0.14123  0.23783  0.15363  1.0000 0.6665975958
C   C7        1.0  0.23783  0.14123  0.84637  1.0000 0.6665975958
C   C8        1.0  0.85877  0.76217  0.84637  1.0000 0.6665975958
C   C9        1.0  0.76217  0.85877  0.15363  1.0000 0.6665975958
C   C10       1.0  0.35131  0.07145  0.32259  1.0000 0.5642615616
C   C11       1.0  0.07145  0.35131  0.67741  1.0000 0.5676316161
C   C12       1.0  0.64869  0.92855  0.67741  1.0000 0.5642615616
C   C13       1.0  0.92855  0.64869  0.32259  1.0000 0.5642615616
C   C14       1.0  0.43044  0.96880  0.41094  1.0000 -0.1481156129
C   C15       1.0  0.96880  0.43044  0.58906  1.0000 -0.1481156129
C   C16       1.0  0.56956  0.03120  0.58906  1.0000 -0.1481156129
C   C17       1.0  0.03120  0.56956  0.41094  1.0000 -0.1481156129
C   C18       1.0  0.75273  0.40845  0.02300  1.0000 0.5676316161
C   C19       1.0  0.40845  0.75273  0.97700  1.0000 0.5676316161
C   C20       1.0  0.24727  0.59155  0.97700  1.0000 0.5676316161
C   C21       1.0  0.59155  0.24727  0.02300  1.0000 0.5676316161
C   C22       1.0  0.85518  0.57918  0.82515  1.0000 0.5676316161
C   C23       1.0  0.57918  0.85518  0.17485  1.0000 0.5676316161
C   C24       1.0  0.14482  0.42082  0.17485  1.0000 0.5642615616
C   C25       1.0  0.42082  0.14482  0.82515  1.0000 0.5676316161
C   C26       1.0  0.87877  0.38709  0.00749  1.0000 -0.1481156129
C   C27       1.0  0.38709  0.87877  0.99251  1.0000 -0.1481156129
C   C28       1.0  0.12123  0.61291  0.99251  1.0000 -0.1481156129
C   C29       1.0  0.61291  0.12123  0.00749  1.0000 -0.1481156129
C   C30       1.0  0.03761  0.31785  0.06145  1.0000 -0.1398352728
C   C31       1.0  0.31785  0.03761  0.93855  1.0000 -0.1398352728
C   C32       1.0  0.96239  0.68215  0.93855  1.0000 -0.1398352728
C   C33       1.0  0.68215  0.96239  0.06145  1.0000 -0.1398352728
C   C34       1.0  0.10284  0.27710  0.07892  1.0000 -0.0269623112
C   C35       1.0  0.27710  0.10284  0.92108  1.0000 -0.0269623112
C   C36       1.0  0.89716  0.72290  0.92108  1.0000 -0.0269623112
C   C37       1.0  0.72290  0.89716  0.07892  1.0000 -0.0269623112
C   C38       1.0  0.36332  0.00694  0.38849  1.0000 -0.0101362632
C   C39       1.0  0.00694  0.36332  0.61151  1.0000 -0.0101362632
C   C40       1.0  0.63668  0.99306  0.61151  1.0000 -0.0101362632
C   C41       1.0  0.99306  0.63668  0.38849  1.0000 -0.0101362632
C   C42       1.0  0.26735  0.89849  0.53000  1.0000 0.5676316161
C   C43       1.0  0.89849  0.26735  0.47000  1.0000 0.5676316161
C   C44       1.0  0.73265  0.10151  0.47000  1.0000 0.5676316161
C   C45       1.0  0.10151  0.73265  0.53000  1.0000 0.5676316161
C   C46       1.0  0.80544  0.49170  0.92444  1.0000 -0.0999972002
C   C47       1.0  0.49170  0.80544  0.07556  1.0000 -0.0999972002
C   C48       1.0  0.19456  0.50830  0.07556  1.0000 -0.0999972002
C   C49       1.0  0.50830  0.19456  0.92444  1.0000 -0.0999972002
C   C50       1.0  0.93524  0.40410  0.97179  1.0000 0.0611259754
C   C51       1.0  0.40410  0.93524  0.02821  1.0000 0.0611259754
C   C52       1.0  0.06476  0.59590  0.02821  1.0000 0.0611259754
C   C53       1.0  0.59590  0.06476  0.97179  1.0000 0.0611259754
C   C54       1.0  0.03418  0.35218  0.94141  1.0000 -0.1481156129
C   C55       1.0  0.35218  0.03418  0.05859  1.0000 -0.1481156129
C   C56       1.0  0.96582  0.64782  0.05859  1.0000 -0.1481156129
C   C57       1.0  0.64782  0.96582  0.94141  1.0000 -0.1481156129
C   C58       1.0  0.10158  0.31466  0.95847  1.0000 0.0030516858
C   C59       1.0  0.31466  0.10158  0.04153  1.0000 0.0030516858
C   C60       1.0  0.89842  0.68534  0.04153  1.0000 0.0030516858
C   C61       1.0  0.68534  0.89842  0.95847  1.0000 0.0030516858
C   C62       1.0  0.44507  0.90609  0.47122  1.0000 0.0611259754
C   C63       1.0  0.90609  0.44507  0.52878  1.0000 0.0611259754
C   C64       1.0  0.55493  0.09391  0.52878  1.0000 0.0611259754
C   C65       1.0  0.09391  0.55493  0.47122  1.0000 0.0611259754
C   C66       1.0  0.51559  0.86369  0.49190  1.0000 0.0611259754
C   C67       1.0  0.86369  0.51559  0.50810  1.0000 0.0611259754
C   C68       1.0  0.48441  0.13631  0.50810  1.0000 0.0611259754
C   C69       1.0  0.13631  0.48441  0.49190  1.0000 0.0611259754
C   C70       1.0  0.65233  0.82987  0.40250  1.0000 0.5676316161
C   C71       1.0  0.82987  0.65233  0.59750  1.0000 0.5676316161
C   C72       1.0  0.34767  0.17013  0.59750  1.0000 0.5676316161
C   C73       1.0  0.17013  0.34767  0.40250  1.0000 0.5676316161
C   C74       1.0  0.65326  0.79066  0.52745  1.0000 -0.0999972002
C   C75       1.0  0.79066  0.65326  0.47255  1.0000 -0.0999972002
C   C76       1.0  0.34674  0.20934  0.47255  1.0000 -0.0999972002
C   C77       1.0  0.20934  0.34674  0.52745  1.0000 -0.0999972002
C   C78       1.0  0.55151  0.82633  0.56140  1.0000 -0.1398352728
C   C79       1.0  0.82633  0.55151  0.43860  1.0000 -0.1398352728
C   C80       1.0  0.44849  0.17367  0.43860  1.0000 -0.1398352728
C   C81       1.0  0.17367  0.44849  0.56140  1.0000 -0.1398352728
C   C82       1.0  0.00242  0.35740  0.99234  1.0000 0.0611259754
C   C83       1.0  0.35740  0.00242  0.00766  1.0000 0.0611259754
C   C84       1.0  0.99758  0.64260  0.00766  1.0000 0.0611259754
C   C85       1.0  0.64260  0.99758  0.99234  1.0000 0.0611259754
C   C86       1.0  0.81345  0.43029  0.98419  1.0000 0.0030516858
C   C87       1.0  0.43029  0.81345  0.01581  1.0000 0.0030516858
C   C88       1.0  0.18655  0.56971  0.01581  1.0000 0.0030516858
C   C89       1.0  0.56971  0.18655  0.98419  1.0000 0.0030516858
C   C90       1.0  0.61693  0.82581  0.45824  1.0000 -0.0045962774
C   C91       1.0  0.82581  0.61693  0.54176  1.0000 -0.0045962774
C   C92       1.0  0.38307  0.17419  0.54176  1.0000 -0.0045962774
C   C93       1.0  0.17419  0.38307  0.45824  1.0000 -0.0045962774
C   C94       1.0  0.92488  0.46882  0.91283  1.0000 -0.1398352728
C   C95       1.0  0.46882  0.92488  0.08717  1.0000 -0.1398352728
C   C96       1.0  0.07512  0.53118  0.08717  1.0000 -0.1398352728
C   C97       1.0  0.53118  0.07512  0.91283  1.0000 -0.1398352728
C   C98       1.0  0.13638  0.27774  0.02734  1.0000 -0.0999972002
C   C99       1.0  0.27774  0.13638  0.97266  1.0000 -0.0999972002
C   C100      1.0  0.86362  0.72226  0.97266  1.0000 -0.0999972002
C   C101      1.0  0.72226  0.86362  0.02734  1.0000 -0.0999972002
C   C102      1.0  0.61878  0.78952  0.57919  1.0000 -0.0216319725
C   C103      1.0  0.78952  0.61878  0.42081  1.0000 -0.0216319725
C   C104      1.0  0.38122  0.21048  0.42081  1.0000 -0.0216319725
C   C105      1.0  0.21048  0.38122  0.57919  1.0000 -0.0216319725
C   C106      1.0  0.54828  0.86032  0.44157  1.0000 -0.1398352728
C   C107      1.0  0.86032  0.54828  0.55843  1.0000 -0.1398352728
C   C108      1.0  0.45172  0.13968  0.55843  1.0000 -0.1398352728
C   C109      1.0  0.13968  0.45172  0.44157  1.0000 -0.1398352728
C   C110      1.0  0.30889  0.98503  0.42700  1.0000 -0.0999972002
C   C111      1.0  0.98503  0.30889  0.57300  1.0000 -0.0999972002
C   C112      1.0  0.69111  0.01497  0.57300  1.0000 -0.0999972002
C   C113      1.0  0.01497  0.69111  0.42700  1.0000 -0.0999972002
C   C114      1.0  0.32323  0.92511  0.48765  1.0000 -0.0101362632
C   C115      1.0  0.92511  0.32323  0.51235  1.0000 -0.0101362632
C   C116      1.0  0.67677  0.07489  0.51235  1.0000 -0.0101362632
C   C117      1.0  0.07489  0.67677  0.48765  1.0000 -0.0101362632
C   C118      1.0  0.39097  0.88607  0.50973  1.0000 -0.1398352728
C   C119      1.0  0.88607  0.39097  0.49027  1.0000 -0.1398352728
C   C120      1.0  0.60903  0.11393  0.49027  1.0000 -0.1398352728
C   C121      1.0  0.11393  0.60903  0.50973  1.0000 -0.1398352728
C   C122      1.0  0.65822  0.75144  0.65460  1.0000 0.6665975958
C   C123      1.0  0.75144  0.65822  0.34540  1.0000 0.6665975958
C   C124      1.0  0.34178  0.24856  0.34540  1.0000 0.6665975958
C   C125      1.0  0.24856  0.34178  0.65460  1.0000 0.6665975958
C   C126      1.0  0.73940  0.26060  0.23540  1.0000 0.5676316161
C   C127      1.0  0.26060  0.73940  0.76460  1.0000 0.577192673
C   C128      1.0  0.47980  0.29320  0.15020  1.0000 0.5467406272
C   C129      1.0  0.29320  0.47980  0.84980  1.0000 0.5467406272
C   C130      1.0  0.52020  0.70680  0.84980  1.0000 0.5467406272
C   C131      1.0  0.70680  0.52020  0.15020  1.0000 0.5467406272
C   C132      1.0  0.00930  0.77690  0.66910  1.0000 0.5435346126
C   C133      1.0  0.77690  0.00930  0.33090  1.0000 0.5435346126
C   C134      1.0  0.99070  0.22310  0.33090  1.0000 0.5435346126
C   C135      1.0  0.22310  0.99070  0.66910  1.0000 0.5435346126
C   C136      1.0  0.86194  0.51142  0.88919  1.0000 -0.0045962774
C   C137      1.0  0.51142  0.86194  0.11081  1.0000 -0.0045962774
C   C138      1.0  0.13806  0.48858  0.11081  1.0000 -0.0045962774
C   C139      1.0  0.48858  0.13806  0.88919  1.0000 -0.0045962774
O   O1        1.0  0.54323  0.45677  0.02910  1.0000 -0.4460157693
O   O2        1.0  0.45677  0.54323  0.97090  1.0000 -0.4460157693
O   O3        1.0  0.69409  0.30591  0.19780  1.0000 -0.4971092285
O   O4        1.0  0.30591  0.69409  0.80220  1.0000 -0.4971092285
O   O5        1.0  0.20068  0.20270  0.16809  1.0000 -0.6655952245
O   O6        1.0  0.20270  0.20068  0.83191  1.0000 -0.6655952245
O   O7        1.0  0.79932  0.79730  0.83191  1.0000 -0.6655952245
O   O8        1.0  0.79730  0.79932  0.16809  1.0000 -0.6655952245
O   O9        1.0  0.20946  0.31170  0.91694  1.0000 -0.646078387
O   O10       1.0  0.31170  0.20946  0.08306  1.0000 -0.646078387
O   O11       1.0  0.79054  0.68830  0.08306  1.0000 -0.646078387
O   O12       1.0  0.68830  0.79054  0.91694  1.0000 -0.646078387
O   O13       1.0  0.91116  0.60048  0.79959  1.0000 -0.5890770347
O   O14       1.0  0.60048  0.91116  0.20041  1.0000 -0.5890770347
O   O15       1.0  0.08884  0.39952  0.20041  1.0000 -0.5890770347
O   O16       1.0  0.39952  0.08884  0.79959  1.0000 -0.5890770347
O   O17       1.0  0.72446  0.83254  0.41407  1.0000 -0.620664971
O   O18       1.0  0.83254  0.72446  0.58593  1.0000 -0.620664971
O   O19       1.0  0.27554  0.16746  0.58593  1.0000 -0.620664971
O   O20       1.0  0.16746  0.27554  0.41407  1.0000 -0.620664971
O   O21       1.0  0.40637  0.09971  0.29638  1.0000 -0.5890770347
O   O22       1.0  0.09971  0.40637  0.70362  1.0000 -0.5890770347
O   O23       1.0  0.59363  0.90029  0.70362  1.0000 -0.5890770347
O   O24       1.0  0.90029  0.59363  0.29638  1.0000 -0.5890770347
O   O25       1.0  0.45021  0.23845  0.18948  1.0000 -0.568473974
O   O26       1.0  0.23845  0.45021  0.81052  1.0000 -0.568473974
O   O27       1.0  0.54979  0.76155  0.81052  1.0000 -0.568473974
O   O28       1.0  0.76155  0.54979  0.18948  1.0000 -0.568473974
O   O29       1.0  0.79202  0.61298  0.79774  1.0000 -0.620664971
O   O30       1.0  0.61298  0.79202  0.20226  1.0000 -0.626457922
O   O31       1.0  0.20798  0.38702  0.20226  1.0000 -0.620664971
O   O32       1.0  0.38702  0.20798  0.79774  1.0000 -0.620664971
O   O33       1.0  0.62772  0.75316  0.69985  1.0000 -0.6641320703
O   O34       1.0  0.75316  0.62772  0.30015  1.0000 -0.6641320703
O   O35       1.0  0.37228  0.24684  0.30015  1.0000 -0.6641320703
O   O36       1.0  0.24684  0.37228  0.69985  1.0000 -0.6641320703
O   O37       1.0  0.11136  0.24210  0.19836  1.0000 -0.6641320703
O   O38       1.0  0.24210  0.11136  0.80164  1.0000 -0.6641320703
O   O39       1.0  0.88864  0.75790  0.80164  1.0000 -0.6655952245
O   O40       1.0  0.75790  0.88864  0.19836  1.0000 -0.6641320703
O   O41       1.0  0.60734  0.83156  0.34225  1.0000 -0.620664971
O   O42       1.0  0.83156  0.60734  0.65775  1.0000 -0.620664971
O   O43       1.0  0.39266  0.16844  0.65775  1.0000 -0.620664971
O   O44       1.0  0.16844  0.39266  0.34225  1.0000 -0.620664971
O   O45       1.0  0.09473  0.32479  0.84075  1.0000 -0.620664971
O   O46       1.0  0.32479  0.09473  0.15925  1.0000 -0.620664971
O   O47       1.0  0.90527  0.67521  0.15925  1.0000 -0.620664971
O   O48       1.0  0.67521  0.90527  0.84075  1.0000 -0.620664971
O   O49       1.0  0.69042  0.44236  0.99724  1.0000 -0.626457922
O   O50       1.0  0.44236  0.69042  0.00276  1.0000 -0.626457922
O   O51       1.0  0.30958  0.55764  0.00276  1.0000 -0.626457922
O   O52       1.0  0.55764  0.30958  0.99724  1.0000 -0.626457922
O   O53       1.0  0.76325  0.35793  0.07914  1.0000 -0.583399871
O   O54       1.0  0.35793  0.76325  0.92086  1.0000 -0.583399871
O   O55       1.0  0.23675  0.64207  0.92086  1.0000 -0.583399871
O   O56       1.0  0.64207  0.23675  0.07914  1.0000 -0.583399871
O   O57       1.0  0.28453  0.09871  0.29383  1.0000 -0.626457922
O   O58       1.0  0.09871  0.28453  0.70617  1.0000 -0.626457922
O   O59       1.0  0.71547  0.90129  0.70617  1.0000 -0.626457922
O   O60       1.0  0.90129  0.71547  0.29383  1.0000 -0.626457922
O   O61       1.0  0.71973  0.72095  0.66773  1.0000 -0.6641320703
O   O62       1.0  0.72095  0.71973  0.33227  1.0000 -0.6641320703
O   O63       1.0  0.28027  0.27905  0.33227  1.0000 -0.6641320703
O   O64       1.0  0.27905  0.28027  0.66773  1.0000 -0.6641320703
O   O65       1.0  0.97261  0.72799  0.70535  1.0000 -0.5510759742
O   O66       1.0  0.72799  0.97261  0.29465  1.0000 -0.5510759742
O   O67       1.0  0.02739  0.27201  0.29465  1.0000 -0.5510759742
O   O68       1.0  0.27201  0.02739  0.70535  1.0000 -0.5510759742
O   O69       1.0  0.20467  0.93089  0.51275  1.0000 -0.620664971
O   O70       1.0  0.93089  0.20467  0.48725  1.0000 -0.620664971
O   O71       1.0  0.79533  0.06911  0.48725  1.0000 -0.620664971
O   O72       1.0  0.06911  0.79533  0.51275  1.0000 -0.620664971
O   O73       1.0  0.07665  0.78085  0.66986  1.0000 -0.5616315693
O   O74       1.0  0.78085  0.07665  0.33014  1.0000 -0.5616315693
O   O75       1.0  0.92335  0.21915  0.33014  1.0000 -0.5616315693
O   O76       1.0  0.21915  0.92335  0.66986  1.0000 -0.5616315693
O   O77       1.0  0.53912  0.30686  0.13741  1.0000 -0.491693908
O   O78       1.0  0.30686  0.53912  0.86259  1.0000 -0.491693908
O   O79       1.0  0.46088  0.69314  0.86259  1.0000 -0.491693908
O   O80       1.0  0.69314  0.46088  0.13741  1.0000 -0.491693908
O   O81       1.0  0.76167  0.23833  0.29720  1.0000 -0.491693908
O   O82       1.0  0.23833  0.76167  0.70280  1.0000 -0.491693908
O   O83       1.0  0.28080  0.84310  0.58312  1.0000 -0.568473974
O   O84       1.0  0.84310  0.28080  0.41688  1.0000 -0.568473974
O   O85       1.0  0.71920  0.15690  0.41688  1.0000 -0.568473974
O   O86       1.0  0.15690  0.71920  0.58312  1.0000 -0.568473974
