# DDEC6 charges by PACMAN v1.1 (https://github.com/mtap-research/PACMAN-charge/)
data_2014[Cu][tbo]3[ASR]12
_chemical_formula_sum              "Cu12 H24 C72 O48"
_cell_length_a       18.6296
_cell_length_b       18.6296
_cell_length_c       18.6296
_cell_angle_alpha    60
_cell_angle_beta     60
_cell_angle_gamma    60

_symmetry_space_group_name_H-M    "P 1"
_symmetry_Int_Tables_number       1

loop_
  _symmetry_equiv_pos_as_xyz
  'x, y, z'

loop_
  _atom_site_type_symbol
  _atom_site_label
  _atom_site_symmetry_multiplicity
  _atom_site_fract_x
  _atom_site_fract_y
  _atom_site_fract_z
  _atom_site_occupancy
  _atom_site_charge
Cu  Cu1       1.0  0.00000  0.00000  0.57056  1.0000 0.8533120628
Cu  Cu2       1.0  0.57056  0.42944  0.00000  1.0000 0.8533120628
Cu  Cu3       1.0  0.00000  0.00000  0.42944  1.0000 0.8533120628
Cu  Cu4       1.0  0.42944  0.57056  0.00000  1.0000 0.8533120628
Cu  Cu5       1.0  0.00000  0.57056  0.00000  1.0000 0.8533120628
Cu  Cu6       1.0  0.42944  0.00000  0.57056  1.0000 0.8533120628
Cu  Cu7       1.0  0.00000  0.42944  0.57056  1.0000 0.8533120628
Cu  Cu8       1.0  0.57056  0.00000  0.00000  1.0000 0.8533120628
Cu  Cu9       1.0  0.57056  0.00000  0.42944  1.0000 0.8533120628
Cu  Cu10      1.0  0.42944  0.00000  0.00000  1.0000 0.8533120628
Cu  Cu11      1.0  0.00000  0.42944  0.00000  1.0000 0.8533120628
Cu  Cu12      1.0  0.00000  0.57056  0.42944  1.0000 0.8533120628
H   H1        1.0  0.27210  0.96850  0.27210  1.0000 0.1375839214
H   H2        1.0  0.51270  0.72790  0.72790  1.0000 0.1375839214
H   H3        1.0  0.96850  0.27210  0.48730  1.0000 0.1375839214
H   H4        1.0  0.72790  0.51270  0.03150  1.0000 0.1375839214
H   H5        1.0  0.03150  0.51270  0.72790  1.0000 0.1375839214
H   H6        1.0  0.48730  0.27210  0.96850  1.0000 0.1375839214
H   H7        1.0  0.72790  0.72790  0.51270  1.0000 0.1375839214
H   H8        1.0  0.03150  0.72790  0.51270  1.0000 0.1375839214
H   H9        1.0  0.27210  0.48730  0.27210  1.0000 0.1375839214
H   H10       1.0  0.51270  0.72790  0.03150  1.0000 0.1375839214
H   H11       1.0  0.27210  0.27210  0.96850  1.0000 0.1375839214
H   H12       1.0  0.96850  0.27210  0.27210  1.0000 0.1375839214
H   H13       1.0  0.27210  0.96850  0.48730  1.0000 0.1375839214
H   H14       1.0  0.48730  0.96850  0.27210  1.0000 0.1375839214
H   H15       1.0  0.27210  0.48730  0.96850  1.0000 0.1375839214
H   H16       1.0  0.27210  0.27210  0.48730  1.0000 0.1375839214
H   H17       1.0  0.96850  0.48730  0.27210  1.0000 0.1375839214
H   H18       1.0  0.48730  0.27210  0.27210  1.0000 0.1375839214
H   H19       1.0  0.72790  0.03150  0.51270  1.0000 0.1375839214
H   H20       1.0  0.03150  0.72790  0.72790  1.0000 0.1375839214
H   H21       1.0  0.51270  0.03150  0.72790  1.0000 0.1375839214
H   H22       1.0  0.72790  0.72790  0.03150  1.0000 0.1375839214
H   H23       1.0  0.72790  0.51270  0.72790  1.0000 0.1375839214
H   H24       1.0  0.72790  0.03150  0.72790  1.0000 0.1375839214
C   C1        1.0  0.25723  0.96915  0.38681  1.0000 -0.0319420749
C   C2        1.0  0.61319  0.61319  0.74277  1.0000 -0.0319420749
C   C3        1.0  0.96915  0.25723  0.38681  1.0000 -0.0319420749
C   C4        1.0  0.61319  0.61319  0.03085  1.0000 -0.0319420749
C   C5        1.0  0.03085  0.61319  0.74277  1.0000 -0.0319420749
C   C6        1.0  0.38681  0.38681  0.96915  1.0000 -0.0319420749
C   C7        1.0  0.61319  0.74277  0.61319  1.0000 -0.0319420749
C   C8        1.0  0.03085  0.61319  0.61319  1.0000 -0.0319420749
C   C9        1.0  0.38681  0.38681  0.25723  1.0000 -0.0319420749
C   C10       1.0  0.61319  0.74277  0.03085  1.0000 -0.0319420749
C   C11       1.0  0.38681  0.25723  0.96915  1.0000 -0.0319420749
C   C12       1.0  0.96915  0.38681  0.25723  1.0000 -0.0319420749
C   C13       1.0  0.38681  0.96915  0.38681  1.0000 -0.0319420749
C   C14       1.0  0.38681  0.96915  0.25723  1.0000 -0.0319420749
C   C15       1.0  0.25723  0.38681  0.96915  1.0000 -0.0319420749
C   C16       1.0  0.25723  0.38681  0.38681  1.0000 -0.0319420749
C   C17       1.0  0.96915  0.38681  0.38681  1.0000 -0.0319420749
C   C18       1.0  0.38681  0.25723  0.38681  1.0000 -0.0319420749
C   C19       1.0  0.74277  0.03085  0.61319  1.0000 -0.0319420749
C   C20       1.0  0.03085  0.74277  0.61319  1.0000 -0.0319420749
C   C21       1.0  0.61319  0.03085  0.61319  1.0000 -0.0319420749
C   C22       1.0  0.74277  0.61319  0.03085  1.0000 -0.0319420749
C   C23       1.0  0.74277  0.61319  0.61319  1.0000 -0.0319420749
C   C24       1.0  0.61319  0.03085  0.74277  1.0000 -0.0319420749
C   C25       1.0  0.16244  0.97552  0.43102  1.0000 0.58241834
C   C26       1.0  0.56898  0.56898  0.83756  1.0000 0.58241834
C   C27       1.0  0.97552  0.16244  0.43102  1.0000 0.58241834
C   C28       1.0  0.56898  0.56898  0.02448  1.0000 0.58241834
C   C29       1.0  0.02448  0.56898  0.83756  1.0000 0.58241834
C   C30       1.0  0.43102  0.43102  0.97552  1.0000 0.58241834
C   C31       1.0  0.56898  0.83756  0.56898  1.0000 0.58241834
C   C32       1.0  0.02448  0.56898  0.56898  1.0000 0.58241834
C   C33       1.0  0.43102  0.43102  0.16244  1.0000 0.58241834
C   C34       1.0  0.56898  0.83756  0.02448  1.0000 0.58241834
C   C35       1.0  0.43102  0.16244  0.97552  1.0000 0.58241834
C   C36       1.0  0.97552  0.43102  0.16244  1.0000 0.58241834
C   C37       1.0  0.43102  0.97552  0.43102  1.0000 0.58241834
C   C38       1.0  0.43102  0.97552  0.16244  1.0000 0.58241834
C   C39       1.0  0.16244  0.43102  0.97552  1.0000 0.58241834
C   C40       1.0  0.16244  0.43102  0.43102  1.0000 0.58241834
C   C41       1.0  0.97552  0.43102  0.43102  1.0000 0.58241834
C   C42       1.0  0.43102  0.16244  0.43102  1.0000 0.58241834
C   C43       1.0  0.83756  0.02448  0.56898  1.0000 0.58241834
C   C44       1.0  0.02448  0.83756  0.56898  1.0000 0.58241834
C   C45       1.0  0.56898  0.02448  0.56898  1.0000 0.58241834
C   C46       1.0  0.83756  0.56898  0.02448  1.0000 0.58241834
C   C47       1.0  0.83756  0.56898  0.56898  1.0000 0.58241834
C   C48       1.0  0.56898  0.02448  0.83756  1.0000 0.58241834
C   C49       1.0  0.30076  0.96888  0.30076  1.0000 -0.0807819552
C   C50       1.0  0.57040  0.69924  0.69924  1.0000 -0.0807819552
C   C51       1.0  0.96888  0.30076  0.42960  1.0000 -0.0807819552
C   C52       1.0  0.69924  0.57040  0.03112  1.0000 -0.0807819552
C   C53       1.0  0.03112  0.57040  0.69924  1.0000 -0.0807819552
C   C54       1.0  0.42960  0.30076  0.96888  1.0000 -0.0807819552
C   C55       1.0  0.69924  0.69924  0.57040  1.0000 -0.0807819552
C   C56       1.0  0.03112  0.69924  0.57040  1.0000 -0.0807819552
C   C57       1.0  0.30076  0.42960  0.30076  1.0000 -0.0807819552
C   C58       1.0  0.57040  0.69924  0.03112  1.0000 -0.0807819552
C   C59       1.0  0.30076  0.30076  0.96888  1.0000 -0.0807819552
C   C60       1.0  0.96888  0.30076  0.30076  1.0000 -0.0807819552
C   C61       1.0  0.30076  0.96888  0.42960  1.0000 -0.0807819552
C   C62       1.0  0.42960  0.96888  0.30076  1.0000 -0.0807819552
C   C63       1.0  0.30076  0.42960  0.96888  1.0000 -0.0807819552
C   C64       1.0  0.30076  0.30076  0.42960  1.0000 -0.0807819552
C   C65       1.0  0.96888  0.42960  0.30076  1.0000 -0.0807819552
C   C66       1.0  0.42960  0.30076  0.30076  1.0000 -0.0807819552
C   C67       1.0  0.69924  0.03112  0.57040  1.0000 -0.0807819552
C   C68       1.0  0.03112  0.69924  0.69924  1.0000 -0.0807819552
C   C69       1.0  0.57040  0.03112  0.69924  1.0000 -0.0807819552
C   C70       1.0  0.69924  0.69924  0.03112  1.0000 -0.0807819552
C   C71       1.0  0.69924  0.57040  0.69924  1.0000 -0.0807819552
C   C72       1.0  0.69924  0.03112  0.69924  1.0000 -0.0807819552
O   O1        1.0  0.12625  0.97913  0.50729  1.0000 -0.5169671314
O   O2        1.0  0.61267  0.49271  0.87375  1.0000 -0.5169671314
O   O3        1.0  0.97913  0.12625  0.38733  1.0000 -0.5169671314
O   O4        1.0  0.49271  0.61267  0.02087  1.0000 -0.5169671314
O   O5        1.0  0.02087  0.61267  0.87375  1.0000 -0.5169671314
O   O6        1.0  0.38733  0.50729  0.97913  1.0000 -0.5169671314
O   O7        1.0  0.49271  0.87375  0.61267  1.0000 -0.5169671314
O   O8        1.0  0.02087  0.49271  0.61267  1.0000 -0.5169671314
O   O9        1.0  0.50729  0.38733  0.12625  1.0000 -0.5169671314
O   O10       1.0  0.61267  0.87375  0.02087  1.0000 -0.5169671314
O   O11       1.0  0.50729  0.12625  0.97913  1.0000 -0.5169671314
O   O12       1.0  0.97913  0.50729  0.12625  1.0000 -0.5169671314
O   O13       1.0  0.50729  0.97913  0.38733  1.0000 -0.5169671314
O   O14       1.0  0.38733  0.97913  0.12625  1.0000 -0.5169671314
O   O15       1.0  0.12625  0.38733  0.97913  1.0000 -0.5169671314
O   O16       1.0  0.12625  0.50729  0.38733  1.0000 -0.5169671314
O   O17       1.0  0.97913  0.38733  0.50729  1.0000 -0.5169671314
O   O18       1.0  0.38733  0.12625  0.50729  1.0000 -0.5169671314
O   O19       1.0  0.87375  0.02087  0.61267  1.0000 -0.5169671314
O   O20       1.0  0.02087  0.87375  0.49271  1.0000 -0.5169671314
O   O21       1.0  0.61267  0.02087  0.49271  1.0000 -0.5169671314
O   O22       1.0  0.87375  0.49271  0.02087  1.0000 -0.5169671314
O   O23       1.0  0.87375  0.61267  0.49271  1.0000 -0.5169671314
O   O24       1.0  0.49271  0.02087  0.87375  1.0000 -0.5169671314
O   O25       1.0  0.87375  0.02087  0.49271  1.0000 -0.5169671314
O   O26       1.0  0.38733  0.50729  0.12625  1.0000 -0.5169671314
O   O27       1.0  0.02087  0.87375  0.61267  1.0000 -0.5169671314
O   O28       1.0  0.50729  0.38733  0.97913  1.0000 -0.5169671314
O   O29       1.0  0.97913  0.38733  0.12625  1.0000 -0.5169671314
O   O30       1.0  0.61267  0.49271  0.02087  1.0000 -0.5169671314
O   O31       1.0  0.50729  0.12625  0.38733  1.0000 -0.5169671314
O   O32       1.0  0.97913  0.50729  0.38733  1.0000 -0.5169671314
O   O33       1.0  0.49271  0.61267  0.87375  1.0000 -0.5169671314
O   O34       1.0  0.38733  0.12625  0.97913  1.0000 -0.5169671314
O   O35       1.0  0.49271  0.87375  0.02087  1.0000 -0.5169671314
O   O36       1.0  0.02087  0.49271  0.87375  1.0000 -0.5169671314
O   O37       1.0  0.49271  0.02087  0.61267  1.0000 -0.5169671314
O   O38       1.0  0.61267  0.02087  0.87375  1.0000 -0.5169671314
O   O39       1.0  0.87375  0.61267  0.02087  1.0000 -0.5169671314
O   O40       1.0  0.87375  0.49271  0.61267  1.0000 -0.5169671314
O   O41       1.0  0.02087  0.61267  0.49271  1.0000 -0.5169671314
O   O42       1.0  0.61267  0.87375  0.49271  1.0000 -0.5169671314
O   O43       1.0  0.12625  0.97913  0.38733  1.0000 -0.5169671314
O   O44       1.0  0.97913  0.12625  0.50729  1.0000 -0.5169671314
O   O45       1.0  0.38733  0.97913  0.50729  1.0000 -0.5169671314
O   O46       1.0  0.12625  0.50729  0.97913  1.0000 -0.5169671314
O   O47       1.0  0.12625  0.38733  0.50729  1.0000 -0.5169671314
O   O48       1.0  0.50729  0.97913  0.12625  1.0000 -0.5169671314
