# DDEC6 charges by PACMAN v1.1 (https://github.com/mtap-research/PACMAN-charge/)
data_2014[Mn][ant]3[ASR]1
_chemical_formula_sum              "Mn12 H56 C120 O56"
_cell_length_a       14.3185
_cell_length_b       18.1181
_cell_length_c       19.702
_cell_angle_alpha    90
_cell_angle_beta     97.583
_cell_angle_gamma    90

_symmetry_space_group_name_H-M    "P 1"
_symmetry_Int_Tables_number       1

loop_
  _symmetry_equiv_pos_as_xyz
  'x, y, z'

loop_
  _atom_site_type_symbol
  _atom_site_label
  _atom_site_symmetry_multiplicity
  _atom_site_fract_x
  _atom_site_fract_y
  _atom_site_fract_z
  _atom_site_occupancy
  _atom_site_charge
Mn  Mn1       1.0  0.94219  0.14446  0.75220  1.0000 1.0703379807
Mn  Mn2       1.0  0.55781  0.64446  0.24780  1.0000 1.0703379807
Mn  Mn3       1.0  0.05781  0.85554  0.24780  1.0000 1.0703379807
Mn  Mn4       1.0  0.44219  0.35554  0.75220  1.0000 1.0703379807
Mn  Mn5       1.0  0.60688  0.14341  0.70716  1.0000 1.0460410313
Mn  Mn6       1.0  0.89312  0.64341  0.29284  1.0000 1.0460410313
Mn  Mn7       1.0  0.39312  0.85659  0.29284  1.0000 1.0460410313
Mn  Mn8       1.0  0.10688  0.35659  0.70716  1.0000 1.0448754426
Mn  Mn9       1.0  0.77204  0.00975  0.72675  1.0000 1.0034400221
Mn  Mn10      1.0  0.72796  0.50975  0.27325  1.0000 1.0034400221
Mn  Mn11      1.0  0.22796  0.99025  0.27325  1.0000 1.0034400221
Mn  Mn12      1.0  0.27204  0.49025  0.72675  1.0000 1.0034400221
H   H1        1.0  0.94490  0.94130  0.11420  1.0000 0.129027141
H   H2        1.0  0.55510  0.44130  0.88580  1.0000 0.129027141
H   H3        1.0  0.05510  0.05870  0.88580  1.0000 0.129027141
H   H4        1.0  0.44490  0.55870  0.11420  1.0000 0.129027141
H   H5        1.0  0.06190  0.14040  0.09820  1.0000 0.119981381
H   H6        1.0  0.43810  0.64040  0.90180  1.0000 0.119981381
H   H7        1.0  0.93810  0.85960  0.90180  1.0000 0.119981381
H   H8        1.0  0.56190  0.35960  0.09820  1.0000 0.119981381
H   H9        1.0  0.83440  0.96940  0.02020  1.0000 0.1399058219
H   H10       1.0  0.66560  0.46940  0.97980  1.0000 0.129027141
H   H11       1.0  0.16560  0.03060  0.97980  1.0000 0.129027141
H   H12       1.0  0.33440  0.53060  0.02020  1.0000 0.129027141
H   H13       1.0  0.94500  0.16830  0.00900  1.0000 0.129027141
H   H14       1.0  0.55500  0.66830  0.99100  1.0000 0.129027141
H   H15       1.0  0.05500  0.83170  0.99100  1.0000 0.129027141
H   H16       1.0  0.44500  0.33170  0.00900  1.0000 0.129027141
H   H17       1.0  0.73980  0.13510  0.05250  1.0000 0.129027141
H   H18       1.0  0.76020  0.63510  0.94750  1.0000 0.129027141
H   H19       1.0  0.26020  0.86490  0.94750  1.0000 0.129027141
H   H20       1.0  0.23980  0.36490  0.05250  1.0000 0.129027141
H   H21       1.0  0.62740  0.22880  0.04940  1.0000 0.119981381
H   H22       1.0  0.87260  0.72880  0.95060  1.0000 0.119981381
H   H23       1.0  0.37260  0.77120  0.95060  1.0000 0.119981381
H   H24       1.0  0.12740  0.27120  0.04940  1.0000 0.119981381
H   H25       1.0  0.56970  0.28230  0.94770  1.0000 0.119981381
H   H26       1.0  0.93030  0.78230  0.05230  1.0000 0.119981381
H   H27       1.0  0.43030  0.71770  0.05230  1.0000 0.119981381
H   H28       1.0  0.06970  0.21770  0.94770  1.0000 0.119981381
H   H29       1.0  0.51170  0.94370  0.41820  1.0000 0.119981381
H   H30       1.0  0.98830  0.44370  0.58180  1.0000 0.129027141
H   H31       1.0  0.48830  0.05630  0.58180  1.0000 0.129027141
H   H32       1.0  0.01170  0.55630  0.41820  1.0000 0.119981381
H   H33       1.0  0.49600  0.15340  0.35230  1.0000 0.1131066397
H   H34       1.0  0.00400  0.65340  0.64770  1.0000 0.1131066397
H   H35       1.0  0.50400  0.84660  0.64770  1.0000 0.1131066397
H   H36       1.0  0.99600  0.34660  0.35230  1.0000 0.1131066397
H   H37       1.0  0.64650  0.97160  0.48940  1.0000 0.1399058219
H   H38       1.0  0.85350  0.47160  0.51060  1.0000 0.1399058219
H   H39       1.0  0.35350  0.02840  0.51060  1.0000 0.1399058219
H   H40       1.0  0.14650  0.52840  0.48940  1.0000 0.1399058219
H   H41       1.0  0.62820  0.18170  0.43030  1.0000 0.129027141
H   H42       1.0  0.87180  0.68170  0.56970  1.0000 0.129027141
H   H43       1.0  0.37180  0.81830  0.56970  1.0000 0.129027141
H   H44       1.0  0.12820  0.31830  0.43030  1.0000 0.129027141
H   H45       1.0  0.79760  0.14580  0.40690  1.0000 0.129027141
H   H46       1.0  0.70240  0.64580  0.59310  1.0000 0.129027141
H   H47       1.0  0.20240  0.85420  0.59310  1.0000 0.129027141
H   H48       1.0  0.29760  0.35420  0.40690  1.0000 0.129027141
H   H49       1.0  0.91140  0.23630  0.40950  1.0000 0.119981381
H   H50       1.0  0.58860  0.73630  0.59050  1.0000 0.119981381
H   H51       1.0  0.08860  0.76370  0.59050  1.0000 0.119981381
H   H52       1.0  0.41140  0.26370  0.40950  1.0000 0.119981381
H   H53       1.0  0.97130  0.29120  0.51040  1.0000 0.119981381
H   H54       1.0  0.52870  0.79120  0.48960  1.0000 0.119981381
H   H55       1.0  0.02870  0.70880  0.48960  1.0000 0.119981381
H   H56       1.0  0.47130  0.20880  0.51040  1.0000 0.119981381
C   C1        1.0  0.08890  0.01940  0.17400  1.0000 0.581690013
C   C2        1.0  0.41110  0.51940  0.82600  1.0000 0.581690013
C   C3        1.0  0.91110  0.98060  0.82600  1.0000 0.581690013
C   C4        1.0  0.58890  0.48060  0.17400  1.0000 0.581690013
C   C5        1.0  0.01420  0.03800  0.11600  1.0000 -0.0345220793
C   C6        1.0  0.48580  0.53800  0.88400  1.0000 -0.0382110757
C   C7        1.0  0.98580  0.96200  0.88400  1.0000 -0.0382110757
C   C8        1.0  0.51420  0.46200  0.11600  1.0000 -0.0382110757
C   C9        1.0  0.94630  0.98690  0.09280  1.0000 -0.0797206763
C   C10       1.0  0.55370  0.48690  0.90720  1.0000 -0.0797206763
C   C11       1.0  0.05370  0.01310  0.90720  1.0000 -0.0797206763
C   C12       1.0  0.44630  0.51310  0.09280  1.0000 -0.0797206763
C   C13       1.0  0.01530  0.10610  0.08370  1.0000 -0.0797206763
C   C14       1.0  0.48470  0.60610  0.91630  1.0000 -0.0797206763
C   C15       1.0  0.98470  0.89390  0.91630  1.0000 -0.0797206763
C   C16       1.0  0.51530  0.39390  0.08370  1.0000 -0.0797206763
C   C17       1.0  0.87960  0.00400  0.03680  1.0000 -0.1907689488
C   C18       1.0  0.62040  0.50400  0.96320  1.0000 -0.1907689488
C   C19       1.0  0.12040  0.99600  0.96320  1.0000 -0.1907689488
C   C20       1.0  0.37960  0.49600  0.03680  1.0000 -0.1907689488
C   C21       1.0  0.94640  0.12210  0.02970  1.0000 -0.2012073768
C   C22       1.0  0.55360  0.62210  0.97030  1.0000 -0.2012073768
C   C23       1.0  0.05360  0.87790  0.97030  1.0000 -0.2012073768
C   C24       1.0  0.44640  0.37790  0.02970  1.0000 -0.2012073768
C   C25       1.0  0.88080  0.07050  0.00700  1.0000 0.2202758767
C   C26       1.0  0.61920  0.57050  0.99300  1.0000 0.2202758767
C   C27       1.0  0.11920  0.92950  0.99300  1.0000 0.2202758767
C   C28       1.0  0.38080  0.42950  0.00700  1.0000 0.2202758767
C   C29       1.0  0.75210  0.13990  0.95130  1.0000 0.2332591634
C   C30       1.0  0.74790  0.63990  0.04870  1.0000 0.2332591634
C   C31       1.0  0.24790  0.86010  0.04870  1.0000 0.2332591634
C   C32       1.0  0.25210  0.36010  0.95130  1.0000 0.2332591634
C   C33       1.0  0.71790  0.15870  0.01160  1.0000 -0.2012073768
C   C34       1.0  0.78210  0.65870  0.98840  1.0000 -0.2012073768
C   C35       1.0  0.28210  0.84130  0.98840  1.0000 -0.2012073768
C   C36       1.0  0.21790  0.34130  0.01160  1.0000 -0.2012073768
C   C37       1.0  0.71820  0.17280  0.88890  1.0000 -0.1244722087
C   C38       1.0  0.78180  0.67280  0.11110  1.0000 -0.1291703027
C   C39       1.0  0.28180  0.82720  0.11110  1.0000 -0.1291703027
C   C40       1.0  0.21820  0.32720  0.88890  1.0000 -0.1244722087
C   C41       1.0  0.76310  0.14830  0.82670  1.0000 0.6249679323
C   C42       1.0  0.73690  0.64830  0.17330  1.0000 0.6273537672
C   C43       1.0  0.23690  0.85170  0.17330  1.0000 0.6273537672
C   C44       1.0  0.26310  0.35170  0.82670  1.0000 0.6249679323
C   C45       1.0  0.64970  0.21390  0.00930  1.0000 -0.0853355754
C   C46       1.0  0.85030  0.71390  0.99070  1.0000 -0.0853355754
C   C47       1.0  0.35030  0.78610  0.99070  1.0000 -0.0853355754
C   C48       1.0  0.14970  0.28610  0.00930  1.0000 -0.0853355754
C   C49       1.0  0.64790  0.22570  0.88820  1.0000 -0.0382110757
C   C50       1.0  0.85210  0.72570  0.11180  1.0000 -0.0382110757
C   C51       1.0  0.35210  0.77430  0.11180  1.0000 -0.0382110757
C   C52       1.0  0.14790  0.27430  0.88820  1.0000 -0.0382110757
C   C53       1.0  0.60650  0.26330  0.82280  1.0000 0.5973566171
C   C54       1.0  0.89350  0.76330  0.17720  1.0000 0.5973566171
C   C55       1.0  0.39350  0.73670  0.17720  1.0000 0.5973566171
C   C56       1.0  0.10650  0.23670  0.82280  1.0000 0.5973566171
C   C57       1.0  0.61570  0.24590  0.94850  1.0000 -0.1291703027
C   C58       1.0  0.88430  0.74590  0.05150  1.0000 -0.1291703027
C   C59       1.0  0.38430  0.75410  0.05150  1.0000 -0.1291703027
C   C60       1.0  0.11570  0.25410  0.94850  1.0000 -0.1291703027
C   C61       1.0  0.40000  0.02740  0.33430  1.0000 0.5574731972
C   C62       1.0  0.10000  0.52740  0.66570  1.0000 0.5574731972
C   C63       1.0  0.60000  0.97260  0.66570  1.0000 0.5574731972
C   C64       1.0  0.90000  0.47260  0.33430  1.0000 0.5574731972
C   C65       1.0  0.48790  0.04450  0.37830  1.0000 -0.0713803045
C   C66       1.0  0.01210  0.54450  0.62170  1.0000 -0.0713803045
C   C67       1.0  0.51210  0.95550  0.62170  1.0000 -0.0713803045
C   C68       1.0  0.98790  0.45550  0.37830  1.0000 -0.0713803045
C   C69       1.0  0.53490  0.99170  0.41940  1.0000 -0.0797206763
C   C70       1.0  0.96510  0.49170  0.58060  1.0000 -0.0797206763
C   C71       1.0  0.46510  0.00830  0.58060  1.0000 -0.0797206763
C   C72       1.0  0.03490  0.50830  0.41940  1.0000 -0.0797206763
C   C73       1.0  0.52500  0.11690  0.38090  1.0000 -0.0713803045
C   C74       1.0  0.97500  0.61690  0.61910  1.0000 -0.0713803045
C   C75       1.0  0.47500  0.88310  0.61910  1.0000 -0.0713803045
C   C76       1.0  0.02500  0.38310  0.38090  1.0000 -0.0713803045
C   C77       1.0  0.61550  0.00830  0.46220  1.0000 -0.1907689488
C   C78       1.0  0.88450  0.50830  0.53780  1.0000 -0.1907689488
C   C79       1.0  0.38450  0.99170  0.53780  1.0000 -0.1907689488
C   C80       1.0  0.11550  0.49170  0.46220  1.0000 -0.1907689488
C   C81       1.0  0.60560  0.13350  0.42650  1.0000 -0.2277321484
C   C82       1.0  0.89440  0.63350  0.57350  1.0000 -0.2277321484
C   C83       1.0  0.39440  0.86650  0.57350  1.0000 -0.2277321484
C   C84       1.0  0.10560  0.36650  0.42650  1.0000 -0.2277321484
C   C85       1.0  0.65080  0.07880  0.46520  1.0000 0.2481875192
C   C86       1.0  0.84920  0.57880  0.53480  1.0000 0.2481875192
C   C87       1.0  0.34920  0.92120  0.53480  1.0000 0.2481875192
C   C88       1.0  0.15080  0.42120  0.46520  1.0000 0.2481875192
C   C89       1.0  0.79010  0.14750  0.50840  1.0000 0.2202758767
C   C90       1.0  0.70990  0.64750  0.49160  1.0000 0.2202758767
C   C91       1.0  0.20990  0.85250  0.49160  1.0000 0.2202758767
C   C92       1.0  0.29010  0.35250  0.50840  1.0000 0.2202758767
C   C93       1.0  0.82180  0.16790  0.44810  1.0000 -0.1907689488
C   C94       1.0  0.67820  0.66790  0.55190  1.0000 -0.1907689488
C   C95       1.0  0.17820  0.83210  0.55190  1.0000 -0.1907689488
C   C96       1.0  0.32180  0.33210  0.44810  1.0000 -0.1907689488
C   C97       1.0  0.82680  0.17800  0.57100  1.0000 -0.1291703027
C   C98       1.0  0.67320  0.67800  0.42900  1.0000 -0.1291703027
C   C99       1.0  0.17320  0.82200  0.42900  1.0000 -0.1291703027
C   C100      1.0  0.32680  0.32200  0.57100  1.0000 -0.1291703027
C   C101      1.0  0.78520  0.15290  0.63330  1.0000 0.6273537672
C   C102      1.0  0.71480  0.65290  0.36670  1.0000 0.6273537672
C   C103      1.0  0.21480  0.84710  0.36670  1.0000 0.6273537672
C   C104      1.0  0.28520  0.34710  0.63330  1.0000 0.6273537672
C   C105      1.0  0.89000  0.22160  0.44990  1.0000 -0.0797206763
C   C106      1.0  0.61000  0.72160  0.55010  1.0000 -0.0797206763
C   C107      1.0  0.11000  0.77840  0.55010  1.0000 -0.0797206763
C   C108      1.0  0.39000  0.27840  0.44990  1.0000 -0.0797206763
C   C109      1.0  0.89810  0.23140  0.57110  1.0000 -0.0345220793
C   C110      1.0  0.60190  0.73140  0.42890  1.0000 -0.0345220793
C   C111      1.0  0.10190  0.76860  0.42890  1.0000 -0.0345220793
C   C112      1.0  0.39810  0.26860  0.57110  1.0000 -0.0345220793
C   C113      1.0  0.94270  0.26620  0.63720  1.0000 0.5924414989
C   C114      1.0  0.55730  0.76620  0.36280  1.0000 0.5924414989
C   C115      1.0  0.05730  0.73380  0.36280  1.0000 0.5924414989
C   C116      1.0  0.44270  0.23380  0.63720  1.0000 0.5924414989
C   C117      1.0  0.92670  0.25390  0.51030  1.0000 -0.1291703027
C   C118      1.0  0.57330  0.75390  0.48970  1.0000 -0.1291703027
C   C119      1.0  0.07330  0.74610  0.48970  1.0000 -0.1291703027
C   C120      1.0  0.42670  0.24610  0.51030  1.0000 -0.1291703027
O   O1        1.0  0.07610  0.96490  0.21100  1.0000 -0.5839519504
O   O2        1.0  0.42390  0.46490  0.78900  1.0000 -0.5839519504
O   O3        1.0  0.92390  0.03510  0.78900  1.0000 -0.5839519504
O   O4        1.0  0.57610  0.53510  0.21100  1.0000 -0.5839519504
O   O5        1.0  0.16170  0.05810  0.18620  1.0000 -0.51468581
O   O6        1.0  0.33830  0.55810  0.81380  1.0000 -0.5160467827
O   O7        1.0  0.83830  0.94190  0.81380  1.0000 -0.5160467827
O   O8        1.0  0.66170  0.44190  0.18620  1.0000 -0.5160467827
O   O9        1.0  0.81670  0.08340  0.94870  1.0000 -0.2012073768
O   O10       1.0  0.68330  0.58340  0.05130  1.0000 -0.2057588501
O   O11       1.0  0.18330  0.91660  0.05130  1.0000 -0.2057588501
O   O12       1.0  0.31670  0.41660  0.94870  1.0000 -0.2057588501
O   O13       1.0  0.83820  0.17760  0.81770  1.0000 -0.4985697459
O   O14       1.0  0.66180  0.67760  0.18230  1.0000 -0.4985697459
O   O15       1.0  0.16180  0.82240  0.18230  1.0000 -0.4985697459
O   O16       1.0  0.33820  0.32240  0.81770  1.0000 -0.4985697459
O   O17       1.0  0.72030  0.09700  0.79082  1.0000 -0.601693273
O   O18       1.0  0.77970  0.59700  0.20918  1.0000 -0.601693273
O   O19       1.0  0.27970  0.90300  0.20918  1.0000 -0.601693273
O   O20       1.0  0.22030  0.40300  0.79082  1.0000 -0.601693273
O   O21       1.0  0.63060  0.24000  0.76645  1.0000 -0.5690509233
O   O22       1.0  0.86940  0.74000  0.23355  1.0000 -0.5690509233
O   O23       1.0  0.36940  0.76000  0.23355  1.0000 -0.5690509233
O   O24       1.0  0.13060  0.26000  0.76645  1.0000 -0.5690509233
O   O25       1.0  0.54790  0.31440  0.82820  1.0000 -0.5606549386
O   O26       1.0  0.95210  0.81440  0.17180  1.0000 -0.5606549386
O   O27       1.0  0.45210  0.68560  0.17180  1.0000 -0.5606549386
O   O28       1.0  0.04790  0.18560  0.82820  1.0000 -0.5606549386
O   O29       1.0  0.35550  0.07350  0.29680  1.0000 -0.4985697459
O   O30       1.0  0.14450  0.57350  0.70320  1.0000 -0.4985697459
O   O31       1.0  0.64450  0.92650  0.70320  1.0000 -0.4985697459
O   O32       1.0  0.85550  0.42650  0.29680  1.0000 -0.4985697459
O   O33       1.0  0.36680  0.96250  0.33530  1.0000 -0.5690509233
O   O34       1.0  0.13320  0.46250  0.66470  1.0000 -0.5690509233
O   O35       1.0  0.63320  0.03750  0.66470  1.0000 -0.5690509233
O   O36       1.0  0.86680  0.53750  0.33530  1.0000 -0.5690509233
O   O37       1.0  0.72910  0.08840  0.51280  1.0000 -0.2012073768
O   O38       1.0  0.77090  0.58840  0.48720  1.0000 -0.2012073768
O   O39       1.0  0.27090  0.91160  0.48720  1.0000 -0.2012073768
O   O40       1.0  0.22910  0.41160  0.51280  1.0000 -0.2012073768
O   O41       1.0  0.71070  0.18080  0.64344  1.0000 -0.4711178173
O   O42       1.0  0.78930  0.68080  0.35656  1.0000 -0.4711178173
O   O43       1.0  0.28930  0.81920  0.35656  1.0000 -0.4711178173
O   O44       1.0  0.21070  0.31920  0.64344  1.0000 -0.4711178173
O   O45       1.0  0.82860  0.10120  0.66849  1.0000 -0.6084340367
O   O46       1.0  0.67140  0.60120  0.33151  1.0000 -0.6084340367
O   O47       1.0  0.17140  0.89880  0.33151  1.0000 -0.6084340367
O   O48       1.0  0.32860  0.39880  0.66849  1.0000 -0.6084340367
O   O49       1.0  0.91980  0.24220  0.69297  1.0000 -0.5690509233
O   O50       1.0  0.58020  0.74220  0.30703  1.0000 -0.5690509233
O   O51       1.0  0.08020  0.75780  0.30703  1.0000 -0.5690509233
O   O52       1.0  0.41980  0.25780  0.69297  1.0000 -0.5690509233
O   O53       1.0  0.00150  0.31590  0.63190  1.0000 -0.5528422001
O   O54       1.0  0.49850  0.81590  0.36810  1.0000 -0.5528422001
O   O55       1.0  0.99850  0.68410  0.36810  1.0000 -0.5528422001
O   O56       1.0  0.50150  0.18410  0.63190  1.0000 -0.5528422001
