# DDEC6 charges by PACMAN v1.1 (https://github.com/mtap-research/PACMAN-charge/)
data_2014[ZnMo][pcu]3[ASR]2
_chemical_formula_sum              "Zn1 Mo1 H18 C14 N4 O2"
_cell_length_a       9.48789
_cell_length_b       9.48789
_cell_length_c       7.137
_cell_angle_alpha    89.4552
_cell_angle_beta     90.5448
_cell_angle_gamma    94.8266

_symmetry_space_group_name_H-M    "P 1"
_symmetry_Int_Tables_number       1

loop_
  _symmetry_equiv_pos_as_xyz
  'x, y, z'

loop_
  _atom_site_type_symbol
  _atom_site_label
  _atom_site_symmetry_multiplicity
  _atom_site_fract_x
  _atom_site_fract_y
  _atom_site_fract_z
  _atom_site_occupancy
  _atom_site_charge
Zn  Zn1       1.0  0.57168  0.57168  0.00000  1.0000 0.6386802522
Mo  Mo1       1.0  0.49132  0.49132  0.50000  1.0000 0.3505401639
H   H1        1.0  0.58880  0.81640  0.28740  1.0000 0.1179307699
H   H2        1.0  0.81640  0.58880  0.71260  1.0000 0.1179307699
H   H3        1.0  0.57210  0.83850  0.75600  1.0000 0.1085770332
H   H4        1.0  0.83850  0.57210  0.24400  1.0000 0.1085770332
H   H5        1.0  0.64080  0.08760  0.77830  1.0000 0.1344499169
H   H6        1.0  0.08760  0.64080  0.22170  1.0000 0.1344499169
H   H7        1.0  0.63500  0.05000  0.32750  1.0000 0.139709699
H   H8        1.0  0.05000  0.63500  0.67250  1.0000 0.139709699
H   H9        1.0  0.74370  0.28750  0.01350  1.0000 0.1179307699
H   H10       1.0  0.28750  0.74370  0.98650  1.0000 0.1179307699
H   H11       1.0  0.66370  0.28410  0.20500  1.0000 0.1085770332
H   H12       1.0  0.28410  0.66370  0.79500  1.0000 0.1085770332
H   H13       1.0  0.37030  0.20910  0.96650  1.0000 0.1179307699
H   H14       1.0  0.20910  0.37030  0.03350  1.0000 0.1179307699
H   H15       1.0  0.39080  0.28260  0.16120  1.0000 0.1085770332
H   H16       1.0  0.28260  0.39080  0.83880  1.0000 0.1085770332
H   H17       1.0  0.56060  0.40580  0.90790  1.0000 0.1544617889
H   H18       1.0  0.40580  0.56060  0.09210  1.0000 0.1544617889
C   C1        1.0  0.59780  0.87120  0.17900  1.0000 0.0318294493
C   C2        1.0  0.87120  0.59780  0.82100  1.0000 0.0318294493
C   C3        1.0  0.58980  0.87900  0.87300  1.0000 0.0964812664
C   C4        1.0  0.87900  0.58980  0.12700  1.0000 0.0964812664
C   C5        1.0  0.62190  0.03290  0.88500  1.0000 -0.2277804361
C   C6        1.0  0.03290  0.62190  0.11500  1.0000 -0.2277804361
C   C7        1.0  0.62130  0.01270  0.20800  1.0000 -0.2050305577
C   C8        1.0  0.01270  0.62130  0.79200  1.0000 -0.2050305577
C   C9        1.0  0.62320  0.09340  0.05800  1.0000 0.1179307699
C   C10       1.0  0.09340  0.62320  0.94200  1.0000 0.1179307699
C   C11       1.0  0.65450  0.25890  0.07400  1.0000 -0.1346026035
C   C12       1.0  0.25890  0.65450  0.92600  1.0000 -0.1346026035
C   C13       1.0  0.39790  0.29850  0.02700  1.0000 -0.098531005
C   C14       1.0  0.29850  0.39790  0.97300  1.0000 -0.098531005
N   N1        1.0  0.58570  0.79830  0.02060  1.0000 -0.2024876894
N   N2        1.0  0.79830  0.58570  0.97940  1.0000 -0.2024876894
N   N3        1.0  0.53940  0.33720  0.98480  1.0000 -0.2700029732
N   N4        1.0  0.33720  0.53940  0.01520  1.0000 -0.2700029732
O   O1        1.0  0.55240  0.58680  0.70080  1.0000 -0.7105612429
O   O2        1.0  0.58680  0.55240  0.29920  1.0000 -0.7105612429
