# DDEC6 charges by PACMAN v1.1 (https://github.com/mtap-research/PACMAN-charge/)
data_2014[Cu][ssb]3[ASR]1
_chemical_formula_sum              "Cu8 H48 C104 N24 O32"
_cell_length_a       24.0146
_cell_length_b       23.1074
_cell_length_c       18.8437
_cell_angle_alpha    68.9827
_cell_angle_beta     63.9231
_cell_angle_gamma    47.0942

_symmetry_space_group_name_H-M    "P 1"
_symmetry_Int_Tables_number       1

loop_
  _symmetry_equiv_pos_as_xyz
  'x, y, z'

loop_
  _atom_site_type_symbol
  _atom_site_label
  _atom_site_symmetry_multiplicity
  _atom_site_fract_x
  _atom_site_fract_y
  _atom_site_fract_z
  _atom_site_occupancy
  _atom_site_charge
Cu  Cu1       1.0  0.50372  0.94410  0.05590  1.0000 0.8394623084
Cu  Cu2       1.0  0.94410  0.50372  0.49628  1.0000 0.8394623084
Cu  Cu3       1.0  0.05590  0.49628  0.50372  1.0000 0.8394623084
Cu  Cu4       1.0  0.49628  0.05590  0.94410  1.0000 0.8394623084
Cu  Cu5       1.0  0.93874  0.51188  0.06126  1.0000 0.8394623084
Cu  Cu6       1.0  0.51188  0.93874  0.48812  1.0000 0.8394623084
Cu  Cu7       1.0  0.06126  0.48812  0.93874  1.0000 0.8394623084
Cu  Cu8       1.0  0.48812  0.06126  0.51188  1.0000 0.8394623084
H   H1        1.0  0.25590  0.05790  0.15470  1.0000 0.1383311169
H   H2        1.0  0.05790  0.25590  0.53150  1.0000 0.1383311169
H   H3        1.0  0.15470  0.53150  0.25590  1.0000 0.1383311169
H   H4        1.0  0.53150  0.15470  0.05790  1.0000 0.1383311169
H   H5        1.0  0.74410  0.94210  0.84530  1.0000 0.1383311169
H   H6        1.0  0.94210  0.74410  0.46850  1.0000 0.1383311169
H   H7        1.0  0.84530  0.46850  0.74410  1.0000 0.1383311169
H   H8        1.0  0.46850  0.84530  0.94210  1.0000 0.1383311169
H   H9        1.0  0.24080  0.24120  0.00940  1.0000 0.1474743117
H   H10       1.0  0.24120  0.24080  0.50860  1.0000 0.1474743117
H   H11       1.0  0.00940  0.50860  0.24080  1.0000 0.1474743117
H   H12       1.0  0.50860  0.00940  0.24120  1.0000 0.1474743117
H   H13       1.0  0.75920  0.75880  0.99060  1.0000 0.1474743117
H   H14       1.0  0.75880  0.75920  0.49140  1.0000 0.1474743117
H   H15       1.0  0.99060  0.49140  0.75920  1.0000 0.1474743117
H   H16       1.0  0.49140  0.99060  0.75880  1.0000 0.1474743117
H   H17       1.0  0.04270  0.26910  0.14870  1.0000 0.1383311169
H   H18       1.0  0.26910  0.04270  0.53950  1.0000 0.1383311169
H   H19       1.0  0.14870  0.53950  0.04270  1.0000 0.1383311169
H   H20       1.0  0.53950  0.14870  0.26910  1.0000 0.1383311169
H   H21       1.0  0.95730  0.73090  0.85130  1.0000 0.1383311169
H   H22       1.0  0.73090  0.95730  0.46050  1.0000 0.1383311169
H   H23       1.0  0.85130  0.46050  0.95730  1.0000 0.1383311169
H   H24       1.0  0.46050  0.85130  0.73090  1.0000 0.1383311169
H   H25       1.0  0.18380  0.02200  0.26800  1.0000 0.1328638899
H   H26       1.0  0.02200  0.18380  0.52620  1.0000 0.1328638899
H   H27       1.0  0.26800  0.52620  0.18380  1.0000 0.1328638899
H   H28       1.0  0.52620  0.26800  0.02200  1.0000 0.1328638899
H   H29       1.0  0.81620  0.97800  0.73200  1.0000 0.1328638899
H   H30       1.0  0.97800  0.81620  0.47380  1.0000 0.1328638899
H   H31       1.0  0.73200  0.47380  0.81620  1.0000 0.1328638899
H   H32       1.0  0.47380  0.73200  0.97800  1.0000 0.1328638899
H   H33       1.0  0.97010  0.02990  0.33990  1.0000 0.1193922126
H   H34       1.0  0.02990  0.97010  0.66010  1.0000 0.1193922126
H   H35       1.0  0.33990  0.66010  0.97010  1.0000 0.1193922126
H   H36       1.0  0.66010  0.33990  0.02990  1.0000 0.1193922126
H   H37       1.0  0.16180  0.94260  0.39260  1.0000 0.1193922126
H   H38       1.0  0.94260  0.16180  0.50300  1.0000 0.1193922126
H   H39       1.0  0.39260  0.50300  0.16180  1.0000 0.1193922126
H   H40       1.0  0.50300  0.39260  0.94260  1.0000 0.1193922126
H   H41       1.0  0.83820  0.05740  0.60740  1.0000 0.1193922126
H   H42       1.0  0.05740  0.83820  0.49700  1.0000 0.1193922126
H   H43       1.0  0.60740  0.49700  0.83820  1.0000 0.1193922126
H   H44       1.0  0.49700  0.60740  0.05740  1.0000 0.1193922126
H   H45       1.0  0.15960  0.84040  0.47780  1.0000 0.1140829904
H   H46       1.0  0.84040  0.15960  0.52220  1.0000 0.1140829904
H   H47       1.0  0.47780  0.52220  0.15960  1.0000 0.1140829904
H   H48       1.0  0.52220  0.47780  0.84040  1.0000 0.1140829904
C   C1        1.0  0.08287  0.35579  0.04495  1.0000 0.5787461644
C   C2        1.0  0.35579  0.08287  0.51639  1.0000 0.5787461644
C   C3        1.0  0.04495  0.51639  0.08287  1.0000 0.5787461644
C   C4        1.0  0.51639  0.04495  0.35579  1.0000 0.5787461644
C   C5        1.0  0.91713  0.64421  0.95505  1.0000 0.5787461644
C   C6        1.0  0.64421  0.91713  0.48361  1.0000 0.5787461644
C   C7        1.0  0.95505  0.48361  0.91713  1.0000 0.5787461644
C   C8        1.0  0.48361  0.95505  0.64421  1.0000 0.5787461644
C   C9        1.0  0.35127  0.09003  0.05111  1.0000 0.5787461644
C   C10       1.0  0.09003  0.35127  0.50759  1.0000 0.5787461644
C   C11       1.0  0.05111  0.50759  0.35127  1.0000 0.5787461644
C   C12       1.0  0.50759  0.05111  0.09003  1.0000 0.5787461644
C   C13       1.0  0.64873  0.90997  0.94889  1.0000 0.5787461644
C   C14       1.0  0.90997  0.64873  0.49241  1.0000 0.5787461644
C   C15       1.0  0.94889  0.49241  0.64873  1.0000 0.5787461644
C   C16       1.0  0.49241  0.94889  0.90997  1.0000 0.5787461644
C   C17       1.0  0.26173  0.14247  0.07823  1.0000 -0.0058194293
C   C18       1.0  0.14247  0.26173  0.51757  1.0000 -0.0029526733
C   C19       1.0  0.07823  0.51757  0.26173  1.0000 -0.0029526733
C   C20       1.0  0.51757  0.07823  0.14247  1.0000 -0.0029526733
C   C21       1.0  0.73827  0.85753  0.92177  1.0000 -0.0029526733
C   C22       1.0  0.85753  0.73827  0.48243  1.0000 -0.0029526733
C   C23       1.0  0.92177  0.48243  0.73827  1.0000 -0.0029526733
C   C24       1.0  0.48243  0.92177  0.85753  1.0000 -0.0029526733
C   C25       1.0  0.22568  0.11058  0.13422  1.0000 -0.1805476992
C   C26       1.0  0.11058  0.22568  0.52952  1.0000 -0.1805476992
C   C27       1.0  0.13422  0.52952  0.22568  1.0000 -0.1805476992
C   C28       1.0  0.52952  0.13422  0.11058  1.0000 -0.1805476992
C   C29       1.0  0.77432  0.88942  0.86578  1.0000 -0.1805476992
C   C30       1.0  0.88942  0.77432  0.47048  1.0000 -0.1805476992
C   C31       1.0  0.86578  0.47048  0.77432  1.0000 -0.1805476992
C   C32       1.0  0.47048  0.86578  0.88942  1.0000 -0.1805476992
C   C33       1.0  0.14371  0.15873  0.15911  1.0000 0.1328638899
C   C34       1.0  0.15873  0.14371  0.53845  1.0000 0.1328638899
C   C35       1.0  0.15911  0.53845  0.14371  1.0000 0.1328638899
C   C36       1.0  0.53845  0.15911  0.15873  1.0000 0.1328638899
C   C37       1.0  0.85629  0.84127  0.84089  1.0000 0.1328638899
C   C38       1.0  0.84127  0.85629  0.46155  1.0000 0.1328638899
C   C39       1.0  0.84089  0.46155  0.85629  1.0000 0.1328638899
C   C40       1.0  0.46155  0.84089  0.84127  1.0000 0.1328638899
C   C41       1.0  0.21630  0.22046  0.04798  1.0000 -0.1022889892
C   C42       1.0  0.22046  0.21630  0.51526  1.0000 -0.1022889892
C   C43       1.0  0.04798  0.51526  0.21630  1.0000 -0.1022889892
C   C44       1.0  0.51526  0.04798  0.22046  1.0000 -0.1022889892
C   C45       1.0  0.78370  0.77954  0.95202  1.0000 -0.1022889892
C   C46       1.0  0.77954  0.78370  0.48474  1.0000 -0.1022889892
C   C47       1.0  0.95202  0.48474  0.78370  1.0000 -0.1022889892
C   C48       1.0  0.48474  0.95202  0.77954  1.0000 -0.1022889892
C   C49       1.0  0.13489  0.26771  0.07447  1.0000 -0.0029526733
C   C50       1.0  0.26771  0.13489  0.52293  1.0000 -0.0029526733
C   C51       1.0  0.07447  0.52293  0.13489  1.0000 -0.0029526733
C   C52       1.0  0.52293  0.07447  0.26771  1.0000 -0.0029526733
C   C53       1.0  0.86511  0.73229  0.92553  1.0000 -0.0029526733
C   C54       1.0  0.73229  0.86511  0.47707  1.0000 -0.0029526733
C   C55       1.0  0.92553  0.47707  0.86511  1.0000 -0.0029526733
C   C56       1.0  0.47707  0.92553  0.73229  1.0000 -0.0029526733
C   C57       1.0  0.09777  0.23721  0.13055  1.0000 -0.1595564606
C   C58       1.0  0.23721  0.09777  0.53447  1.0000 -0.153982723
C   C59       1.0  0.13055  0.53447  0.09777  1.0000 -0.1595564606
C   C60       1.0  0.53447  0.13055  0.23721  1.0000 -0.1595564606
C   C61       1.0  0.90223  0.76279  0.86945  1.0000 -0.1595564606
C   C62       1.0  0.76279  0.90223  0.46553  1.0000 -0.153982723
C   C63       1.0  0.86945  0.46553  0.90223  1.0000 -0.1595564606
C   C64       1.0  0.46553  0.86945  0.76279  1.0000 -0.1595564606
C   C65       1.0  0.13297  0.05877  0.26203  1.0000 -0.1677468604
C   C66       1.0  0.05877  0.13297  0.54623  1.0000 -0.1677468604
C   C67       1.0  0.26203  0.54623  0.13297  1.0000 -0.1677468604
C   C68       1.0  0.54623  0.26203  0.05877  1.0000 -0.1677468604
C   C69       1.0  0.86703  0.94123  0.73797  1.0000 -0.1677468604
C   C70       1.0  0.94123  0.86703  0.45377  1.0000 -0.1677468604
C   C71       1.0  0.73797  0.45377  0.86703  1.0000 -0.1677468604
C   C72       1.0  0.45377  0.73797  0.94123  1.0000 -0.1677468604
C   C73       1.0  0.07305  0.05397  0.29903  1.0000 0.1328638899
C   C74       1.0  0.05397  0.07305  0.57395  1.0000 0.1328638899
C   C75       1.0  0.29903  0.57395  0.07305  1.0000 0.1328638899
C   C76       1.0  0.57395  0.29903  0.05397  1.0000 0.1328638899
C   C77       1.0  0.92695  0.94603  0.70097  1.0000 0.1328638899
C   C78       1.0  0.94603  0.92695  0.42605  1.0000 0.1328638899
C   C79       1.0  0.70097  0.42605  0.92695  1.0000 0.1328638899
C   C80       1.0  0.42605  0.70097  0.94603  1.0000 0.1328638899
C   C81       1.0  0.00710  0.99290  0.36830  1.0000 -0.1595564606
C   C82       1.0  0.99290  0.00710  0.63170  1.0000 -0.1595564606
C   C83       1.0  0.36830  0.63170  0.00710  1.0000 -0.1595564606
C   C84       1.0  0.63170  0.36830  0.99290  1.0000 -0.1595564606
C   C85       1.0  0.06757  0.99497  0.35943  1.0000 0.0626103898
C   C86       1.0  0.99497  0.06757  0.57803  1.0000 0.0626103898
C   C87       1.0  0.35943  0.57803  0.06757  1.0000 0.0626103898
C   C88       1.0  0.57803  0.35943  0.99497  1.0000 0.0626103898
C   C89       1.0  0.93243  0.00503  0.64057  1.0000 0.0626103898
C   C90       1.0  0.00503  0.93243  0.42197  1.0000 0.0626103898
C   C91       1.0  0.64057  0.42197  0.93243  1.0000 0.0626103898
C   C92       1.0  0.42197  0.64057  0.00503  1.0000 0.0626103898
C   C93       1.0  0.12271  0.94011  0.39929  1.0000 -0.1677468604
C   C94       1.0  0.94011  0.12271  0.53789  1.0000 -0.1677468604
C   C95       1.0  0.39929  0.53789  0.12271  1.0000 -0.1677468604
C   C96       1.0  0.53789  0.39929  0.94011  1.0000 -0.1677468604
C   C97       1.0  0.87729  0.05989  0.60071  1.0000 -0.1677468604
C   C98       1.0  0.05989  0.87729  0.46211  1.0000 -0.1677468604
C   C99       1.0  0.60071  0.46211  0.87729  1.0000 -0.1677468604
C   C100      1.0  0.46211  0.60071  0.05989  1.0000 -0.1677468604
C   C101      1.0  0.12110  0.87890  0.45130  1.0000 -0.0772322061
C   C102      1.0  0.87890  0.12110  0.54870  1.0000 -0.0772322061
C   C103      1.0  0.45130  0.54870  0.12110  1.0000 -0.0772322061
C   C104      1.0  0.54870  0.45130  0.87890  1.0000 -0.0772322061
N   N1        1.0  0.10466  0.12638  0.21554  1.0000 0.1474743117
N   N2        1.0  0.12638  0.10466  0.55342  1.0000 0.1474743117
N   N3        1.0  0.21554  0.55342  0.10466  1.0000 0.1383311169
N   N4        1.0  0.55342  0.21554  0.12638  1.0000 0.1474743117
N   N5        1.0  0.89534  0.87362  0.78446  1.0000 0.1383311169
N   N6        1.0  0.87362  0.89534  0.44658  1.0000 0.1474743117
N   N7        1.0  0.78446  0.44658  0.89534  1.0000 0.1474743117
N   N8        1.0  0.44658  0.78446  0.87362  1.0000 0.1474743117
N   N9        1.0  0.02897  0.16429  0.22631  1.0000 -0.11746704
N   N10       1.0  0.16429  0.02897  0.58043  1.0000 -0.11746704
N   N11       1.0  0.22631  0.58043  0.02897  1.0000 -0.11746704
N   N12       1.0  0.58043  0.22631  0.16429  1.0000 -0.11746704
N   N13       1.0  0.97103  0.83571  0.77369  1.0000 -0.11746704
N   N14       1.0  0.83571  0.97103  0.41957  1.0000 -0.11746704
N   N15       1.0  0.77369  0.41957  0.97103  1.0000 -0.11746704
N   N16       1.0  0.41957  0.77369  0.83571  1.0000 -0.11746704
N   N17       1.0  0.01154  0.11774  0.27546  1.0000 -0.200564144
N   N18       1.0  0.11774  0.01154  0.59526  1.0000 -0.200564144
N   N19       1.0  0.27546  0.59526  0.01154  1.0000 -0.200564144
N   N20       1.0  0.59526  0.27546  0.11774  1.0000 -0.200564144
N   N21       1.0  0.98846  0.88226  0.72454  1.0000 -0.200564144
N   N22       1.0  0.88226  0.98846  0.40474  1.0000 -0.200564144
N   N23       1.0  0.72454  0.40474  0.98846  1.0000 -0.200564144
N   N24       1.0  0.40474  0.72454  0.88226  1.0000 -0.200564144
O   O1        1.0  0.01349  0.39679  0.08427  1.0000 -0.4998767728
O   O2        1.0  0.39679  0.01349  0.50545  1.0000 -0.4998767728
O   O3        1.0  0.08427  0.50545  0.01349  1.0000 -0.4998767728
O   O4        1.0  0.50545  0.08427  0.39679  1.0000 -0.4998767728
O   O5        1.0  0.98651  0.60321  0.91573  1.0000 -0.4998767728
O   O6        1.0  0.60321  0.98651  0.49455  1.0000 -0.4998767728
O   O7        1.0  0.91573  0.49455  0.98651  1.0000 -0.4998767728
O   O8        1.0  0.49455  0.91573  0.60321  1.0000 -0.4998767728
O   O9        1.0  0.38784  0.02268  0.08656  1.0000 -0.5180754828
O   O10       1.0  0.02268  0.38784  0.50292  1.0000 -0.5110396313
O   O11       1.0  0.08656  0.50292  0.38784  1.0000 -0.5180754828
O   O12       1.0  0.50292  0.08656  0.02268  1.0000 -0.5110396313
O   O13       1.0  0.61216  0.97732  0.91344  1.0000 -0.5180754828
O   O14       1.0  0.97732  0.61216  0.49708  1.0000 -0.5110396313
O   O15       1.0  0.91344  0.49708  0.61216  1.0000 -0.5180754828
O   O16       1.0  0.49708  0.91344  0.97732  1.0000 -0.5180754828
O   O17       1.0  0.11735  0.37627  0.98205  1.0000 -0.5180754828
O   O18       1.0  0.37627  0.11735  0.52433  1.0000 -0.5180754828
O   O19       1.0  0.98205  0.52433  0.11735  1.0000 -0.5180754828
O   O20       1.0  0.52433  0.98205  0.37627  1.0000 -0.5180754828
O   O21       1.0  0.88265  0.62373  0.01795  1.0000 -0.5180754828
O   O22       1.0  0.62373  0.88265  0.47567  1.0000 -0.5180754828
O   O23       1.0  0.01795  0.47567  0.88265  1.0000 -0.5180754828
O   O24       1.0  0.47567  0.01795  0.62373  1.0000 -0.5180754828
O   O25       1.0  0.38088  0.11786  0.99252  1.0000 -0.5110396313
O   O26       1.0  0.11786  0.38088  0.50874  1.0000 -0.5110396313
O   O27       1.0  0.99252  0.50874  0.38088  1.0000 -0.5110396313
O   O28       1.0  0.50874  0.99252  0.11786  1.0000 -0.5110396313
O   O29       1.0  0.61912  0.88214  0.00748  1.0000 -0.5110396313
O   O30       1.0  0.88214  0.61912  0.49126  1.0000 -0.5110396313
O   O31       1.0  0.00748  0.49126  0.61912  1.0000 -0.5110396313
O   O32       1.0  0.49126  0.00748  0.88214  1.0000 -0.5110396313
