# DDEC6 charges by PACMAN v1.1 (https://github.com/mtap-research/PACMAN-charge/)
data_2014[Cu][nan]3[ASR]27
_chemical_formula_sum              "Cu12 H120 C216 O48"
_cell_length_a       23.3333
_cell_length_b       23.3333
_cell_length_c       23.3333
_cell_angle_alpha    109.471
_cell_angle_beta     109.471
_cell_angle_gamma    109.471

_symmetry_space_group_name_H-M    "P 1"
_symmetry_Int_Tables_number       1

loop_
  _symmetry_equiv_pos_as_xyz
  'x, y, z'

loop_
  _atom_site_type_symbol
  _atom_site_label
  _atom_site_symmetry_multiplicity
  _atom_site_fract_x
  _atom_site_fract_y
  _atom_site_fract_z
  _atom_site_occupancy
  _atom_site_charge
Cu  Cu1       1.0  0.14409  0.64409  0.50000  1.0000 0.837696063
Cu  Cu2       1.0  0.50000  0.14409  0.64409  1.0000 0.837696063
Cu  Cu3       1.0  0.64409  0.50000  0.14409  1.0000 0.837696063
Cu  Cu4       1.0  0.35591  0.50000  0.85591  1.0000 0.837696063
Cu  Cu5       1.0  0.50000  0.85591  0.35591  1.0000 0.837696063
Cu  Cu6       1.0  0.85591  0.35591  0.50000  1.0000 0.837696063
Cu  Cu7       1.0  0.24049  0.74049  0.50000  1.0000 0.8664390221
Cu  Cu8       1.0  0.50000  0.24049  0.74049  1.0000 0.8664390221
Cu  Cu9       1.0  0.74049  0.50000  0.24049  1.0000 0.8664390221
Cu  Cu10      1.0  0.25951  0.50000  0.75951  1.0000 0.8664390221
Cu  Cu11      1.0  0.50000  0.75951  0.25951  1.0000 0.8664390221
Cu  Cu12      1.0  0.75951  0.25951  0.50000  1.0000 0.8664390221
H   H1        1.0  0.21650  0.49160  0.47130  1.0000 0.1252151091
H   H2        1.0  0.47130  0.21650  0.49160  1.0000 0.1252151091
H   H3        1.0  0.49160  0.47130  0.21650  1.0000 0.1252151091
H   H4        1.0  0.25480  0.27510  0.78350  1.0000 0.1252151091
H   H5        1.0  0.52870  0.02030  0.74520  1.0000 0.1252151091
H   H6        1.0  0.74520  0.52870  0.02030  1.0000 0.1252151091
H   H7        1.0  0.72490  0.97970  0.50840  1.0000 0.1252151091
H   H8        1.0  0.27510  0.78350  0.25480  1.0000 0.1252151091
H   H9        1.0  0.50840  0.72490  0.97970  1.0000 0.1252151091
H   H10       1.0  0.02030  0.74520  0.52870  1.0000 0.1252151091
H   H11       1.0  0.78350  0.25480  0.27510  1.0000 0.1252151091
H   H12       1.0  0.97970  0.50840  0.72490  1.0000 0.1252151091
H   H13       1.0  0.78350  0.50840  0.52870  1.0000 0.1252151091
H   H14       1.0  0.52870  0.78350  0.50840  1.0000 0.1252151091
H   H15       1.0  0.50840  0.52870  0.78350  1.0000 0.1252151091
H   H16       1.0  0.74520  0.72490  0.21650  1.0000 0.1252151091
H   H17       1.0  0.47130  0.97970  0.25480  1.0000 0.1252151091
H   H18       1.0  0.25480  0.47130  0.97970  1.0000 0.1252151091
H   H19       1.0  0.27510  0.02030  0.49160  1.0000 0.1252151091
H   H20       1.0  0.72490  0.21650  0.74520  1.0000 0.1252151091
H   H21       1.0  0.49160  0.27510  0.02030  1.0000 0.1252151091
H   H22       1.0  0.97970  0.25480  0.47130  1.0000 0.1252151091
H   H23       1.0  0.21650  0.74520  0.72490  1.0000 0.1252151091
H   H24       1.0  0.02030  0.49160  0.27510  1.0000 0.1252151091
H   H25       1.0  0.40870  0.57840  0.44250  1.0000 0.1130347016
H   H26       1.0  0.44250  0.40870  0.57840  1.0000 0.1130347016
H   H27       1.0  0.57840  0.44250  0.40870  1.0000 0.1130347016
H   H28       1.0  0.03380  0.16970  0.59130  1.0000 0.1130347016
H   H29       1.0  0.55750  0.13590  0.96620  1.0000 0.1130347016
H   H30       1.0  0.96620  0.55750  0.13590  1.0000 0.1130347016
H   H31       1.0  0.83030  0.86410  0.42160  1.0000 0.1130347016
H   H32       1.0  0.16970  0.59130  0.03380  1.0000 0.1130347016
H   H33       1.0  0.42160  0.83030  0.86410  1.0000 0.1130347016
H   H34       1.0  0.13590  0.96620  0.55750  1.0000 0.1130347016
H   H35       1.0  0.59130  0.03380  0.16970  1.0000 0.1130347016
H   H36       1.0  0.86410  0.42160  0.83030  1.0000 0.1130347016
H   H37       1.0  0.59130  0.42160  0.55750  1.0000 0.1130347016
H   H38       1.0  0.55750  0.59130  0.42160  1.0000 0.1130347016
H   H39       1.0  0.42160  0.55750  0.59130  1.0000 0.1130347016
H   H40       1.0  0.96620  0.83030  0.40870  1.0000 0.1130347016
H   H41       1.0  0.44250  0.86410  0.03380  1.0000 0.1130347016
H   H42       1.0  0.03380  0.44250  0.86410  1.0000 0.1130347016
H   H43       1.0  0.16970  0.13590  0.57840  1.0000 0.1130347016
H   H44       1.0  0.83030  0.40870  0.96620  1.0000 0.1130347016
H   H45       1.0  0.57840  0.16970  0.13590  1.0000 0.1130347016
H   H46       1.0  0.86410  0.03380  0.44250  1.0000 0.1130347016
H   H47       1.0  0.40870  0.96620  0.83030  1.0000 0.1130347016
H   H48       1.0  0.13590  0.57840  0.16970  1.0000 0.1130347016
H   H49       1.0  0.26610  0.42150  0.44340  1.0000 0.1171578566
H   H50       1.0  0.44340  0.26610  0.42150  1.0000 0.1171578566
H   H51       1.0  0.42150  0.44340  0.26610  1.0000 0.1171578566
H   H52       1.0  0.17730  0.15540  0.73390  1.0000 0.1171578566
H   H53       1.0  0.55660  0.97810  0.82270  1.0000 0.1171578566
H   H54       1.0  0.82270  0.55660  0.97810  1.0000 0.1171578566
H   H55       1.0  0.84460  0.02190  0.57850  1.0000 0.1171578566
H   H56       1.0  0.15540  0.73390  0.17730  1.0000 0.1171578566
H   H57       1.0  0.57850  0.84460  0.02190  1.0000 0.1171578566
H   H58       1.0  0.97810  0.82270  0.55660  1.0000 0.1171578566
H   H59       1.0  0.73390  0.17730  0.15540  1.0000 0.1171578566
H   H60       1.0  0.02190  0.57850  0.84460  1.0000 0.1171578566
H   H61       1.0  0.73390  0.57850  0.55660  1.0000 0.1171578566
H   H62       1.0  0.55660  0.73390  0.57850  1.0000 0.1171578566
H   H63       1.0  0.57850  0.55660  0.73390  1.0000 0.1171578566
H   H64       1.0  0.82270  0.84460  0.26610  1.0000 0.1171578566
H   H65       1.0  0.44340  0.02190  0.17730  1.0000 0.1171578566
H   H66       1.0  0.17730  0.44340  0.02190  1.0000 0.1171578566
H   H67       1.0  0.15540  0.97810  0.42150  1.0000 0.1171578566
H   H68       1.0  0.84460  0.26610  0.82270  1.0000 0.1171578566
H   H69       1.0  0.42150  0.15540  0.97810  1.0000 0.1171578566
H   H70       1.0  0.02190  0.17730  0.44340  1.0000 0.1171578566
H   H71       1.0  0.26610  0.82270  0.84460  1.0000 0.1171578566
H   H72       1.0  0.97810  0.42150  0.15540  1.0000 0.1171578566
H   H73       1.0  0.36100  0.64680  0.47480  1.0000 0.1252151091
H   H74       1.0  0.47480  0.36100  0.64680  1.0000 0.1252151091
H   H75       1.0  0.64680  0.47480  0.36100  1.0000 0.1252151091
H   H76       1.0  0.11380  0.28580  0.63900  1.0000 0.1252151091
H   H77       1.0  0.52520  0.17200  0.88620  1.0000 0.1252151091
H   H78       1.0  0.88620  0.52520  0.17200  1.0000 0.1252151091
H   H79       1.0  0.71420  0.82800  0.35320  1.0000 0.1252151091
H   H80       1.0  0.28580  0.63900  0.11380  1.0000 0.1252151091
H   H81       1.0  0.35320  0.71420  0.82800  1.0000 0.1252151091
H   H82       1.0  0.17200  0.88620  0.52520  1.0000 0.1252151091
H   H83       1.0  0.63900  0.11380  0.28580  1.0000 0.1252151091
H   H84       1.0  0.82800  0.35320  0.71420  1.0000 0.1252151091
H   H85       1.0  0.63900  0.35320  0.52520  1.0000 0.1252151091
H   H86       1.0  0.52520  0.63900  0.35320  1.0000 0.1252151091
H   H87       1.0  0.35320  0.52520  0.63900  1.0000 0.1252151091
H   H88       1.0  0.88620  0.71420  0.36100  1.0000 0.1252151091
H   H89       1.0  0.47480  0.82800  0.11380  1.0000 0.1252151091
H   H90       1.0  0.11380  0.47480  0.82800  1.0000 0.1252151091
H   H91       1.0  0.28580  0.17200  0.64680  1.0000 0.1252151091
H   H92       1.0  0.71420  0.36100  0.88620  1.0000 0.1252151091
H   H93       1.0  0.64680  0.28580  0.17200  1.0000 0.1252151091
H   H94       1.0  0.82800  0.11380  0.47480  1.0000 0.1252151091
H   H95       1.0  0.36100  0.88620  0.71420  1.0000 0.1252151091
H   H96       1.0  0.17200  0.64680  0.28580  1.0000 0.1252151091
H   H97       1.0  0.40500  0.48320  0.36320  1.0000 0.1130347016
H   H98       1.0  0.36320  0.40500  0.48320  1.0000 0.1130347016
H   H99       1.0  0.48320  0.36320  0.40500  1.0000 0.1130347016
H   H100      1.0  0.95820  0.07820  0.59500  1.0000 0.1130347016
H   H101      1.0  0.63680  0.12000  0.04180  1.0000 0.1130347016
H   H102      1.0  0.04180  0.63680  0.12000  1.0000 0.1130347016
H   H103      1.0  0.92180  0.88000  0.51680  1.0000 0.1130347016
H   H104      1.0  0.07820  0.59500  0.95820  1.0000 0.1130347016
H   H105      1.0  0.51680  0.92180  0.88000  1.0000 0.1130347016
H   H106      1.0  0.12000  0.04180  0.63680  1.0000 0.1130347016
H   H107      1.0  0.59500  0.95820  0.07820  1.0000 0.1130347016
H   H108      1.0  0.88000  0.51680  0.92180  1.0000 0.1130347016
H   H109      1.0  0.59500  0.51680  0.63680  1.0000 0.1130347016
H   H110      1.0  0.63680  0.59500  0.51680  1.0000 0.1130347016
H   H111      1.0  0.51680  0.63680  0.59500  1.0000 0.1130347016
H   H112      1.0  0.04180  0.92180  0.40500  1.0000 0.1130347016
H   H113      1.0  0.36320  0.88000  0.95820  1.0000 0.1130347016
H   H114      1.0  0.95820  0.36320  0.88000  1.0000 0.1130347016
H   H115      1.0  0.07820  0.12000  0.48320  1.0000 0.1130347016
H   H116      1.0  0.92180  0.40500  0.04180  1.0000 0.1130347016
H   H117      1.0  0.48320  0.07820  0.12000  1.0000 0.1130347016
H   H118      1.0  0.88000  0.95820  0.36320  1.0000 0.1130347016
H   H119      1.0  0.40500  0.04180  0.92180  1.0000 0.1130347016
H   H120      1.0  0.12000  0.48320  0.07820  1.0000 0.1130347016
C   C1        1.0  0.34230  0.49130  0.43920  1.0000 0.078088054
C   C2        1.0  0.43920  0.34230  0.49130  1.0000 0.078088054
C   C3        1.0  0.49130  0.43920  0.34230  1.0000 0.078088054
C   C4        1.0  0.09690  0.14900  0.65770  1.0000 0.078088054
C   C5        1.0  0.56080  0.05210  0.90310  1.0000 0.078088054
C   C6        1.0  0.90310  0.56080  0.05210  1.0000 0.078088054
C   C7        1.0  0.85100  0.94790  0.50870  1.0000 0.078088054
C   C8        1.0  0.14900  0.65770  0.09690  1.0000 0.078088054
C   C9        1.0  0.50870  0.85100  0.94790  1.0000 0.078088054
C   C10       1.0  0.05210  0.90310  0.56080  1.0000 0.078088054
C   C11       1.0  0.65770  0.09690  0.14900  1.0000 0.078088054
C   C12       1.0  0.94790  0.50870  0.85100  1.0000 0.078088054
C   C13       1.0  0.65770  0.50870  0.56080  1.0000 0.078088054
C   C14       1.0  0.56080  0.65770  0.50870  1.0000 0.078088054
C   C15       1.0  0.50870  0.56080  0.65770  1.0000 0.078088054
C   C16       1.0  0.90310  0.85100  0.34230  1.0000 0.078088054
C   C17       1.0  0.43920  0.94790  0.09690  1.0000 0.078088054
C   C18       1.0  0.09690  0.43920  0.94790  1.0000 0.078088054
C   C19       1.0  0.14900  0.05210  0.49130  1.0000 0.078088054
C   C20       1.0  0.85100  0.34230  0.90310  1.0000 0.078088054
C   C21       1.0  0.49130  0.14900  0.05210  1.0000 0.078088054
C   C22       1.0  0.94790  0.09690  0.43920  1.0000 0.078088054
C   C23       1.0  0.34230  0.90310  0.85100  1.0000 0.078088054
C   C24       1.0  0.05210  0.49130  0.14900  1.0000 0.078088054
C   C25       1.0  0.25220  0.62080  0.49260  1.0000 0.5850799133
C   C26       1.0  0.49260  0.25220  0.62080  1.0000 0.5850799133
C   C27       1.0  0.62080  0.49260  0.25220  1.0000 0.5850799133
C   C28       1.0  0.24040  0.36860  0.74780  1.0000 0.5850799133
C   C29       1.0  0.50740  0.12820  0.75960  1.0000 0.5850799133
C   C30       1.0  0.75960  0.50740  0.12820  1.0000 0.5850799133
C   C31       1.0  0.63140  0.87180  0.37920  1.0000 0.5850799133
C   C32       1.0  0.36860  0.74780  0.24040  1.0000 0.5850799133
C   C33       1.0  0.37920  0.63140  0.87180  1.0000 0.5850799133
C   C34       1.0  0.12820  0.75960  0.50740  1.0000 0.5850799133
C   C35       1.0  0.74780  0.24040  0.36860  1.0000 0.5850799133
C   C36       1.0  0.87180  0.37920  0.63140  1.0000 0.5850799133
C   C37       1.0  0.74780  0.37920  0.50740  1.0000 0.5850799133
C   C38       1.0  0.50740  0.74780  0.37920  1.0000 0.5850799133
C   C39       1.0  0.37920  0.50740  0.74780  1.0000 0.5850799133
C   C40       1.0  0.75960  0.63140  0.25220  1.0000 0.5850799133
C   C41       1.0  0.49260  0.87180  0.24040  1.0000 0.5850799133
C   C42       1.0  0.24040  0.49260  0.87180  1.0000 0.5850799133
C   C43       1.0  0.36860  0.12820  0.62080  1.0000 0.5850799133
C   C44       1.0  0.63140  0.25220  0.75960  1.0000 0.5850799133
C   C45       1.0  0.62080  0.36860  0.12820  1.0000 0.5850799133
C   C46       1.0  0.87180  0.24040  0.49260  1.0000 0.5850799133
C   C47       1.0  0.25220  0.75960  0.63140  1.0000 0.5850799133
C   C48       1.0  0.12820  0.62080  0.36860  1.0000 0.5850799133
C   C49       1.0  0.25560  0.50890  0.46630  1.0000 -0.0875430746
C   C50       1.0  0.46630  0.25560  0.50890  1.0000 -0.0875430746
C   C51       1.0  0.50890  0.46630  0.25560  1.0000 -0.0875430746
C   C52       1.0  0.21070  0.25330  0.74440  1.0000 -0.0875430746
C   C53       1.0  0.53370  0.04260  0.78930  1.0000 -0.0875430746
C   C54       1.0  0.78930  0.53370  0.04260  1.0000 -0.0875430746
C   C55       1.0  0.74670  0.95740  0.49110  1.0000 -0.0875430746
C   C56       1.0  0.25330  0.74440  0.21070  1.0000 -0.0875430746
C   C57       1.0  0.49110  0.74670  0.95740  1.0000 -0.0875430746
C   C58       1.0  0.04260  0.78930  0.53370  1.0000 -0.0875430746
C   C59       1.0  0.74440  0.21070  0.25330  1.0000 -0.0875430746
C   C60       1.0  0.95740  0.49110  0.74670  1.0000 -0.0875430746
C   C61       1.0  0.74440  0.49110  0.53370  1.0000 -0.0875430746
C   C62       1.0  0.53370  0.74440  0.49110  1.0000 -0.0875430746
C   C63       1.0  0.49110  0.53370  0.74440  1.0000 -0.0875430746
C   C64       1.0  0.78930  0.74670  0.25560  1.0000 -0.0875430746
C   C65       1.0  0.46630  0.95740  0.21070  1.0000 -0.0875430746
C   C66       1.0  0.21070  0.46630  0.95740  1.0000 -0.0875430746
C   C67       1.0  0.25330  0.04260  0.50890  1.0000 -0.0875430746
C   C68       1.0  0.74670  0.25560  0.78930  1.0000 -0.0875430746
C   C69       1.0  0.50890  0.25330  0.04260  1.0000 -0.0875430746
C   C70       1.0  0.95740  0.21070  0.46630  1.0000 -0.0875430746
C   C71       1.0  0.25560  0.78930  0.74670  1.0000 -0.0875430746
C   C72       1.0  0.04260  0.50890  0.25330  1.0000 -0.0875430746
C   C73       1.0  0.37070  0.56080  0.44890  1.0000 -0.1614236882
C   C74       1.0  0.44890  0.37070  0.56080  1.0000 -0.1614236882
C   C75       1.0  0.56080  0.44890  0.37070  1.0000 -0.1614236882
C   C76       1.0  0.07820  0.19010  0.62930  1.0000 -0.1614236882
C   C77       1.0  0.55110  0.11190  0.92180  1.0000 -0.1614236882
C   C78       1.0  0.92180  0.55110  0.11190  1.0000 -0.1614236882
C   C79       1.0  0.80990  0.88810  0.43920  1.0000 -0.1614236882
C   C80       1.0  0.19010  0.62930  0.07820  1.0000 -0.1614236882
C   C81       1.0  0.43920  0.80990  0.88810  1.0000 -0.1614236882
C   C82       1.0  0.11190  0.92180  0.55110  1.0000 -0.1614236882
C   C83       1.0  0.62930  0.07820  0.19010  1.0000 -0.1614236882
C   C84       1.0  0.88810  0.43920  0.80990  1.0000 -0.1614236882
C   C85       1.0  0.62930  0.43920  0.55110  1.0000 -0.1614236882
C   C86       1.0  0.55110  0.62930  0.43920  1.0000 -0.1614236882
C   C87       1.0  0.43920  0.55110  0.62930  1.0000 -0.1614236882
C   C88       1.0  0.92180  0.80990  0.37070  1.0000 -0.1614236882
C   C89       1.0  0.44890  0.88810  0.07820  1.0000 -0.1614236882
C   C90       1.0  0.07820  0.44890  0.88810  1.0000 -0.1614236882
C   C91       1.0  0.19010  0.11190  0.56080  1.0000 -0.1614236882
C   C92       1.0  0.80990  0.37070  0.92180  1.0000 -0.1614236882
C   C93       1.0  0.56080  0.19010  0.11190  1.0000 -0.1614236882
C   C94       1.0  0.88810  0.07820  0.44890  1.0000 -0.1614236882
C   C95       1.0  0.37070  0.92180  0.80990  1.0000 -0.1614236882
C   C96       1.0  0.11190  0.56080  0.19010  1.0000 -0.1614236882
C   C97       1.0  0.28490  0.46610  0.44860  1.0000 -0.1695132343
C   C98       1.0  0.44860  0.28490  0.46610  1.0000 -0.1695132343
C   C99       1.0  0.46610  0.44860  0.28490  1.0000 -0.1695132343
C   C100      1.0  0.16370  0.18120  0.71510  1.0000 -0.1695132343
C   C101      1.0  0.55140  0.01750  0.83630  1.0000 -0.1695132343
C   C102      1.0  0.83630  0.55140  0.01750  1.0000 -0.1695132343
C   C103      1.0  0.81880  0.98250  0.53390  1.0000 -0.1695132343
C   C104      1.0  0.18120  0.71510  0.16370  1.0000 -0.1695132343
C   C105      1.0  0.53390  0.81880  0.98250  1.0000 -0.1695132343
C   C106      1.0  0.01750  0.83630  0.55140  1.0000 -0.1695132343
C   C107      1.0  0.71510  0.16370  0.18120  1.0000 -0.1695132343
C   C108      1.0  0.98250  0.53390  0.81880  1.0000 -0.1695132343
C   C109      1.0  0.71510  0.53390  0.55140  1.0000 -0.1695132343
C   C110      1.0  0.55140  0.71510  0.53390  1.0000 -0.1695132343
C   C111      1.0  0.53390  0.55140  0.71510  1.0000 -0.1695132343
C   C112      1.0  0.83630  0.81880  0.28490  1.0000 -0.1695132343
C   C113      1.0  0.44860  0.98250  0.16370  1.0000 -0.1695132343
C   C114      1.0  0.16370  0.44860  0.98250  1.0000 -0.1695132343
C   C115      1.0  0.18120  0.01750  0.46610  1.0000 -0.1695132343
C   C116      1.0  0.81880  0.28490  0.83630  1.0000 -0.1695132343
C   C117      1.0  0.46610  0.18120  0.01750  1.0000 -0.1695132343
C   C118      1.0  0.98250  0.16370  0.44860  1.0000 -0.1695132343
C   C119      1.0  0.28490  0.83630  0.81880  1.0000 -0.1695132343
C   C120      1.0  0.01750  0.46610  0.18120  1.0000 -0.1695132343
C   C121      1.0  0.34170  0.60150  0.46780  1.0000 -0.0875430746
C   C122      1.0  0.46780  0.34170  0.60150  1.0000 -0.0875430746
C   C123      1.0  0.60150  0.46780  0.34170  1.0000 -0.0875430746
C   C124      1.0  0.12610  0.25980  0.65830  1.0000 -0.0875430746
C   C125      1.0  0.53220  0.13370  0.87390  1.0000 -0.0875430746
C   C126      1.0  0.87390  0.53220  0.13370  1.0000 -0.0875430746
C   C127      1.0  0.74020  0.86630  0.39850  1.0000 -0.0875430746
C   C128      1.0  0.25980  0.65830  0.12610  1.0000 -0.0875430746
C   C129      1.0  0.39850  0.74020  0.86630  1.0000 -0.0875430746
C   C130      1.0  0.13370  0.87390  0.53220  1.0000 -0.0875430746
C   C131      1.0  0.65830  0.12610  0.25980  1.0000 -0.0875430746
C   C132      1.0  0.86630  0.39850  0.74020  1.0000 -0.0875430746
C   C133      1.0  0.65830  0.39850  0.53220  1.0000 -0.0875430746
C   C134      1.0  0.53220  0.65830  0.39850  1.0000 -0.0875430746
C   C135      1.0  0.39850  0.53220  0.65830  1.0000 -0.0875430746
C   C136      1.0  0.87390  0.74020  0.34170  1.0000 -0.0875430746
C   C137      1.0  0.46780  0.86630  0.12610  1.0000 -0.0875430746
C   C138      1.0  0.12610  0.46780  0.86630  1.0000 -0.0875430746
C   C139      1.0  0.25980  0.13370  0.60150  1.0000 -0.0875430746
C   C140      1.0  0.74020  0.34170  0.87390  1.0000 -0.0875430746
C   C141      1.0  0.60150  0.25980  0.13370  1.0000 -0.0875430746
C   C142      1.0  0.86630  0.12610  0.46780  1.0000 -0.0875430746
C   C143      1.0  0.34170  0.87390  0.74020  1.0000 -0.0875430746
C   C144      1.0  0.13370  0.60150  0.25980  1.0000 -0.0875430746
C   C145      1.0  0.41090  0.45780  0.38590  1.0000 -0.1941342168
C   C146      1.0  0.38590  0.41090  0.45780  1.0000 -0.1941342168
C   C147      1.0  0.45780  0.38590  0.41090  1.0000 -0.1941342168
C   C148      1.0  0.97500  0.04690  0.58910  1.0000 -0.1941342168
C   C149      1.0  0.61410  0.07190  0.02500  1.0000 -0.1941342168
C   C150      1.0  0.02500  0.61410  0.07190  1.0000 -0.1941342168
C   C151      1.0  0.95310  0.92810  0.54220  1.0000 -0.1941342168
C   C152      1.0  0.04690  0.58910  0.97500  1.0000 -0.1941342168
C   C153      1.0  0.54220  0.95310  0.92810  1.0000 -0.1941342168
C   C154      1.0  0.07190  0.02500  0.61410  1.0000 -0.1941342168
C   C155      1.0  0.58910  0.97500  0.04690  1.0000 -0.1941342168
C   C156      1.0  0.92810  0.54220  0.95310  1.0000 -0.1941342168
C   C157      1.0  0.58910  0.54220  0.61410  1.0000 -0.1941342168
C   C158      1.0  0.61410  0.58910  0.54220  1.0000 -0.1941342168
C   C159      1.0  0.54220  0.61410  0.58910  1.0000 -0.1941342168
C   C160      1.0  0.02500  0.95310  0.41090  1.0000 -0.1941342168
C   C161      1.0  0.38590  0.92810  0.97500  1.0000 -0.1941342168
C   C162      1.0  0.97500  0.38590  0.92810  1.0000 -0.1941342168
C   C163      1.0  0.04690  0.07190  0.45780  1.0000 -0.1941342168
C   C164      1.0  0.95310  0.41090  0.02500  1.0000 -0.1941342168
C   C165      1.0  0.45780  0.04690  0.07190  1.0000 -0.1941342168
C   C166      1.0  0.92810  0.97500  0.38590  1.0000 -0.1941342168
C   C167      1.0  0.41090  0.02500  0.95310  1.0000 -0.1941342168
C   C168      1.0  0.07190  0.45780  0.04690  1.0000 -0.1941342168
C   C169      1.0  0.28450  0.57640  0.47630  1.0000 -0.0390211618
C   C170      1.0  0.47630  0.28450  0.57640  1.0000 -0.0390211618
C   C171      1.0  0.57640  0.47630  0.28450  1.0000 -0.0390211618
C   C172      1.0  0.19180  0.29190  0.71550  1.0000 -0.0390211618
C   C173      1.0  0.52370  0.10010  0.80820  1.0000 -0.0390211618
C   C174      1.0  0.80820  0.52370  0.10010  1.0000 -0.0390211618
C   C175      1.0  0.70810  0.89990  0.42360  1.0000 -0.0390211618
C   C176      1.0  0.29190  0.71550  0.19180  1.0000 -0.0390211618
C   C177      1.0  0.42360  0.70810  0.89990  1.0000 -0.0390211618
C   C178      1.0  0.10010  0.80820  0.52370  1.0000 -0.0390211618
C   C179      1.0  0.71550  0.19180  0.29190  1.0000 -0.0390211618
C   C180      1.0  0.89990  0.42360  0.70810  1.0000 -0.0390211618
C   C181      1.0  0.71550  0.42360  0.52370  1.0000 -0.0390211618
C   C182      1.0  0.52370  0.71550  0.42360  1.0000 -0.0390211618
C   C183      1.0  0.42360  0.52370  0.71550  1.0000 -0.0390211618
C   C184      1.0  0.80820  0.70810  0.28450  1.0000 -0.0390211618
C   C185      1.0  0.47630  0.89990  0.19180  1.0000 -0.0390211618
C   C186      1.0  0.19180  0.47630  0.89990  1.0000 -0.0390211618
C   C187      1.0  0.29190  0.10010  0.57640  1.0000 -0.0390211618
C   C188      1.0  0.70810  0.28450  0.80820  1.0000 -0.0390211618
C   C189      1.0  0.57640  0.29190  0.10010  1.0000 -0.0390211618
C   C190      1.0  0.89990  0.19180  0.47630  1.0000 -0.0390211618
C   C191      1.0  0.28450  0.80820  0.70810  1.0000 -0.0390211618
C   C192      1.0  0.10010  0.57640  0.29190  1.0000 -0.0390211618
C   C193      1.0  0.37910  0.45170  0.42620  1.0000 0.0742878873
C   C194      1.0  0.42620  0.37910  0.45170  1.0000 0.0742878873
C   C195      1.0  0.45170  0.42620  0.37910  1.0000 0.0742878873
C   C196      1.0  0.04710  0.07260  0.62090  1.0000 0.0742878873
C   C197      1.0  0.57380  0.02550  0.95290  1.0000 0.0742878873
C   C198      1.0  0.95290  0.57380  0.02550  1.0000 0.0742878873
C   C199      1.0  0.92740  0.97450  0.54830  1.0000 0.0742878873
C   C200      1.0  0.07260  0.62090  0.04710  1.0000 0.0742878873
C   C201      1.0  0.54830  0.92740  0.97450  1.0000 0.0742878873
C   C202      1.0  0.02550  0.95290  0.57380  1.0000 0.0742878873
C   C203      1.0  0.62090  0.04710  0.07260  1.0000 0.0742878873
C   C204      1.0  0.97450  0.54830  0.92740  1.0000 0.0742878873
C   C205      1.0  0.62090  0.54830  0.57380  1.0000 0.0742878873
C   C206      1.0  0.57380  0.62090  0.54830  1.0000 0.0742878873
C   C207      1.0  0.54830  0.57380  0.62090  1.0000 0.0742878873
C   C208      1.0  0.95290  0.92740  0.37910  1.0000 0.0742878873
C   C209      1.0  0.42620  0.97450  0.04710  1.0000 0.0742878873
C   C210      1.0  0.04710  0.42620  0.97450  1.0000 0.0742878873
C   C211      1.0  0.07260  0.02550  0.45170  1.0000 0.0742878873
C   C212      1.0  0.92740  0.37910  0.95290  1.0000 0.0742878873
C   C213      1.0  0.45170  0.07260  0.02550  1.0000 0.0742878873
C   C214      1.0  0.97450  0.04710  0.42620  1.0000 0.0742878873
C   C215      1.0  0.37910  0.95290  0.92740  1.0000 0.0742878873
C   C216      1.0  0.02550  0.45170  0.07260  1.0000 0.0742878873
O   O1        1.0  0.19925  0.59634  0.49791  1.0000 -0.4955557151
O   O2        1.0  0.49791  0.19925  0.59634  1.0000 -0.4955557151
O   O3        1.0  0.59634  0.49791  0.19925  1.0000 -0.4955557151
O   O4        1.0  0.29866  0.39709  0.80075  1.0000 -0.4955557151
O   O5        1.0  0.50209  0.09843  0.70134  1.0000 -0.4955557151
O   O6        1.0  0.70134  0.50209  0.09843  1.0000 -0.4955557151
O   O7        1.0  0.60291  0.90157  0.40366  1.0000 -0.4955557151
O   O8        1.0  0.39709  0.80075  0.29866  1.0000 -0.4955557151
O   O9        1.0  0.40366  0.60291  0.90157  1.0000 -0.4955557151
O   O10       1.0  0.09843  0.70134  0.50209  1.0000 -0.4955557151
O   O11       1.0  0.80075  0.29866  0.39709  1.0000 -0.4955557151
O   O12       1.0  0.90157  0.40366  0.60291  1.0000 -0.4955557151
O   O13       1.0  0.80075  0.40366  0.50209  1.0000 -0.4955557151
O   O14       1.0  0.50209  0.80075  0.40366  1.0000 -0.4955557151
O   O15       1.0  0.40366  0.50209  0.80075  1.0000 -0.4955557151
O   O16       1.0  0.70134  0.60291  0.19925  1.0000 -0.4955557151
O   O17       1.0  0.49791  0.90157  0.29866  1.0000 -0.4955557151
O   O18       1.0  0.29866  0.49791  0.90157  1.0000 -0.4955557151
O   O19       1.0  0.39709  0.09843  0.59634  1.0000 -0.4955557151
O   O20       1.0  0.60291  0.19925  0.70134  1.0000 -0.4955557151
O   O21       1.0  0.59634  0.39709  0.09843  1.0000 -0.4955557151
O   O22       1.0  0.90157  0.29866  0.49791  1.0000 -0.4955557151
O   O23       1.0  0.19925  0.70134  0.60291  1.0000 -0.4955557151
O   O24       1.0  0.09843  0.59634  0.39709  1.0000 -0.4955557151
O   O25       1.0  0.28000  0.67960  0.49740  1.0000 -0.5224129385
O   O26       1.0  0.49740  0.28000  0.67960  1.0000 -0.5224129385
O   O27       1.0  0.67960  0.49740  0.28000  1.0000 -0.5224129385
O   O28       1.0  0.21740  0.39960  0.72000  1.0000 -0.5224129385
O   O29       1.0  0.50260  0.18220  0.78260  1.0000 -0.5224129385
O   O30       1.0  0.78260  0.50260  0.18220  1.0000 -0.5224129385
O   O31       1.0  0.60040  0.81780  0.32040  1.0000 -0.5224129385
O   O32       1.0  0.39960  0.72000  0.21740  1.0000 -0.5224129385
O   O33       1.0  0.32040  0.60040  0.81780  1.0000 -0.5224129385
O   O34       1.0  0.18220  0.78260  0.50260  1.0000 -0.5224129385
O   O35       1.0  0.72000  0.21740  0.39960  1.0000 -0.5224129385
O   O36       1.0  0.81780  0.32040  0.60040  1.0000 -0.5224129385
O   O37       1.0  0.72000  0.32040  0.50260  1.0000 -0.5224129385
O   O38       1.0  0.50260  0.72000  0.32040  1.0000 -0.5224129385
O   O39       1.0  0.32040  0.50260  0.72000  1.0000 -0.5224129385
O   O40       1.0  0.78260  0.60040  0.28000  1.0000 -0.5224129385
O   O41       1.0  0.49740  0.81780  0.21740  1.0000 -0.5224129385
O   O42       1.0  0.21740  0.49740  0.81780  1.0000 -0.5224129385
O   O43       1.0  0.39960  0.18220  0.67960  1.0000 -0.5224129385
O   O44       1.0  0.60040  0.28000  0.78260  1.0000 -0.5224129385
O   O45       1.0  0.67960  0.39960  0.18220  1.0000 -0.5224129385
O   O46       1.0  0.81780  0.21740  0.49740  1.0000 -0.5224129385
O   O47       1.0  0.28000  0.78260  0.60040  1.0000 -0.5224129385
O   O48       1.0  0.18220  0.67960  0.39960  1.0000 -0.5224129385
