# DDEC6 charges by PACMAN v1.1 (https://github.com/mtap-research/PACMAN-charge/)
data_2014[Co][nan]3[ASR]19
_chemical_formula_sum              "Co12 H96 C120 N8 O40"
_cell_length_a       17.5096
_cell_length_b       17.5096
_cell_length_c       15.1902
_cell_angle_alpha    90
_cell_angle_beta     90
_cell_angle_gamma    90

_symmetry_space_group_name_H-M    "P 1"
_symmetry_Int_Tables_number       1

loop_
  _symmetry_equiv_pos_as_xyz
  'x, y, z'

loop_
  _atom_site_type_symbol
  _atom_site_label
  _atom_site_symmetry_multiplicity
  _atom_site_fract_x
  _atom_site_fract_y
  _atom_site_fract_z
  _atom_site_occupancy
  _atom_site_charge
Co  Co1       1.0  0.13965  0.89767  0.96782  1.0000 0.9032422938
Co  Co2       1.0  0.86035  0.10233  0.96782  1.0000 0.9032422938
Co  Co3       1.0  0.10233  0.13965  0.03218  1.0000 0.9032422938
Co  Co4       1.0  0.89767  0.86035  0.03218  1.0000 0.9032422938
Co  Co5       1.0  0.86035  0.89767  0.46782  1.0000 0.9032422938
Co  Co6       1.0  0.13965  0.10233  0.46782  1.0000 0.9032422938
Co  Co7       1.0  0.89767  0.13965  0.53218  1.0000 0.9032422938
Co  Co8       1.0  0.10233  0.86035  0.53218  1.0000 0.9032422938
Co  Co9       1.0  0.14943  0.85057  0.75000  1.0000 0.9390164502
Co  Co10      1.0  0.85057  0.14943  0.75000  1.0000 0.9390164502
Co  Co11      1.0  0.14943  0.14943  0.25000  1.0000 0.9390164502
Co  Co12      1.0  0.85057  0.85057  0.25000  1.0000 0.9390164502
H   H1        1.0  0.10930  0.01690  0.77370  1.0000 0.0992852971
H   H2        1.0  0.89070  0.98310  0.77370  1.0000 0.0992852971
H   H3        1.0  0.98310  0.10930  0.22630  1.0000 0.0992852971
H   H4        1.0  0.01690  0.89070  0.22630  1.0000 0.0992852971
H   H5        1.0  0.89070  0.01690  0.27370  1.0000 0.0992852971
H   H6        1.0  0.10930  0.98310  0.27370  1.0000 0.0992852971
H   H7        1.0  0.01690  0.10930  0.72630  1.0000 0.0992852971
H   H8        1.0  0.98310  0.89070  0.72630  1.0000 0.0992852971
H   H9        1.0  0.24430  0.99680  0.74090  1.0000 0.1297741816
H   H10       1.0  0.75570  0.00320  0.74090  1.0000 0.1297741816
H   H11       1.0  0.00320  0.24430  0.25910  1.0000 0.1297741816
H   H12       1.0  0.99680  0.75570  0.25910  1.0000 0.1297741816
H   H13       1.0  0.75570  0.99680  0.24090  1.0000 0.1297741816
H   H14       1.0  0.24430  0.00320  0.24090  1.0000 0.1297741816
H   H15       1.0  0.99680  0.24430  0.75910  1.0000 0.1297741816
H   H16       1.0  0.00320  0.75570  0.75910  1.0000 0.1297741816
H   H17       1.0  0.23220  0.08020  0.78140  1.0000 0.1519980877
H   H18       1.0  0.76780  0.91980  0.78140  1.0000 0.1519980877
H   H19       1.0  0.91980  0.23220  0.21860  1.0000 0.1519980877
H   H20       1.0  0.08020  0.76780  0.21860  1.0000 0.1519980877
H   H21       1.0  0.76780  0.08020  0.28140  1.0000 0.1519980877
H   H22       1.0  0.23220  0.91980  0.28140  1.0000 0.1519980877
H   H23       1.0  0.08020  0.23220  0.71860  1.0000 0.1519980877
H   H24       1.0  0.91980  0.76780  0.71860  1.0000 0.1519980877
H   H25       1.0  0.26520  0.01300  0.84170  1.0000 0.1385451741
H   H26       1.0  0.73480  0.98700  0.84170  1.0000 0.1385451741
H   H27       1.0  0.98700  0.26520  0.15830  1.0000 0.1385451741
H   H28       1.0  0.01300  0.73480  0.15830  1.0000 0.1385451741
H   H29       1.0  0.73480  0.01300  0.34170  1.0000 0.1385451741
H   H30       1.0  0.26520  0.98700  0.34170  1.0000 0.1385451741
H   H31       1.0  0.01300  0.26520  0.65830  1.0000 0.1385451741
H   H32       1.0  0.98700  0.73480  0.65830  1.0000 0.1385451741
H   H33       1.0  0.13030  0.66370  0.04500  1.0000 0.1297741816
H   H34       1.0  0.86970  0.33630  0.04500  1.0000 0.1297741816
H   H35       1.0  0.33630  0.13030  0.95500  1.0000 0.1297741816
H   H36       1.0  0.66370  0.86970  0.95500  1.0000 0.1297741816
H   H37       1.0  0.86970  0.66370  0.54500  1.0000 0.1297741816
H   H38       1.0  0.13030  0.33630  0.54500  1.0000 0.1297741816
H   H39       1.0  0.66370  0.13030  0.45500  1.0000 0.1297741816
H   H40       1.0  0.33630  0.86970  0.45500  1.0000 0.1297741816
H   H41       1.0  0.11740  0.53520  0.07800  1.0000 0.11159641
H   H42       1.0  0.88260  0.46480  0.07800  1.0000 0.11159641
H   H43       1.0  0.46480  0.11740  0.92200  1.0000 0.11159641
H   H44       1.0  0.53520  0.88260  0.92200  1.0000 0.11159641
H   H45       1.0  0.88260  0.53520  0.57800  1.0000 0.11159641
H   H46       1.0  0.11740  0.46480  0.57800  1.0000 0.11159641
H   H47       1.0  0.53520  0.11740  0.42200  1.0000 0.11159641
H   H48       1.0  0.46480  0.88260  0.42200  1.0000 0.11159641
H   H49       1.0  0.11630  0.48210  0.82210  1.0000 0.11159641
H   H50       1.0  0.88370  0.51790  0.82210  1.0000 0.11159641
H   H51       1.0  0.51790  0.11630  0.17790  1.0000 0.11159641
H   H52       1.0  0.48210  0.88370  0.17790  1.0000 0.11159641
H   H53       1.0  0.88370  0.48210  0.32210  1.0000 0.11159641
H   H54       1.0  0.11630  0.51790  0.32210  1.0000 0.11159641
H   H55       1.0  0.48210  0.11630  0.67790  1.0000 0.11159641
H   H56       1.0  0.51790  0.88370  0.67790  1.0000 0.11159641
H   H57       1.0  0.13900  0.61040  0.78350  1.0000 0.1207584343
H   H58       1.0  0.86100  0.38960  0.78350  1.0000 0.1207584343
H   H59       1.0  0.38960  0.13900  0.21650  1.0000 0.1207584343
H   H60       1.0  0.61040  0.86100  0.21650  1.0000 0.1207584343
H   H61       1.0  0.86100  0.61040  0.28350  1.0000 0.1207584343
H   H62       1.0  0.13900  0.38960  0.28350  1.0000 0.1207584343
H   H63       1.0  0.61040  0.13900  0.71650  1.0000 0.1207584343
H   H64       1.0  0.38960  0.86100  0.71650  1.0000 0.1207584343
H   H65       1.0  0.04240  0.38390  0.87070  1.0000 0.1207584343
H   H66       1.0  0.95760  0.61610  0.87070  1.0000 0.1207584343
H   H67       1.0  0.61610  0.04240  0.12930  1.0000 0.1207584343
H   H68       1.0  0.38390  0.95760  0.12930  1.0000 0.1207584343
H   H69       1.0  0.95760  0.38390  0.37070  1.0000 0.1207584343
H   H70       1.0  0.04240  0.61610  0.37070  1.0000 0.1207584343
H   H71       1.0  0.38390  0.04240  0.62930  1.0000 0.1207584343
H   H72       1.0  0.61610  0.95760  0.62930  1.0000 0.1207584343
H   H73       1.0  0.03580  0.25450  0.90590  1.0000 0.11159641
H   H74       1.0  0.96420  0.74550  0.90590  1.0000 0.11159641
H   H75       1.0  0.74550  0.03580  0.09410  1.0000 0.11159641
H   H76       1.0  0.25450  0.96420  0.09410  1.0000 0.11159641
H   H77       1.0  0.96420  0.25450  0.40590  1.0000 0.11159641
H   H78       1.0  0.03580  0.74550  0.40590  1.0000 0.11159641
H   H79       1.0  0.25450  0.03580  0.59410  1.0000 0.11159641
H   H80       1.0  0.74550  0.96420  0.59410  1.0000 0.11159641
H   H81       1.0  0.16100  0.28580  0.11710  1.0000 0.11159641
H   H82       1.0  0.83900  0.71420  0.11710  1.0000 0.11159641
H   H83       1.0  0.71420  0.16100  0.88290  1.0000 0.11159641
H   H84       1.0  0.28580  0.83900  0.88290  1.0000 0.11159641
H   H85       1.0  0.83900  0.28580  0.61710  1.0000 0.11159641
H   H86       1.0  0.16100  0.71420  0.61710  1.0000 0.11159641
H   H87       1.0  0.28580  0.16100  0.38290  1.0000 0.11159641
H   H88       1.0  0.71420  0.83900  0.38290  1.0000 0.11159641
H   H89       1.0  0.17260  0.41660  0.08630  1.0000 0.1297741816
H   H90       1.0  0.82740  0.58340  0.08630  1.0000 0.1297741816
H   H91       1.0  0.58340  0.17260  0.91370  1.0000 0.1297741816
H   H92       1.0  0.41660  0.82740  0.91370  1.0000 0.1297741816
H   H93       1.0  0.82740  0.41660  0.58630  1.0000 0.1297741816
H   H94       1.0  0.17260  0.58340  0.58630  1.0000 0.1297741816
H   H95       1.0  0.41660  0.17260  0.41370  1.0000 0.1297741816
H   H96       1.0  0.58340  0.82740  0.41370  1.0000 0.1297741816
C   C1        1.0  0.12780  0.04960  0.90390  1.0000 0.5383804179
C   C2        1.0  0.87220  0.95040  0.90390  1.0000 0.5383804179
C   C3        1.0  0.95040  0.12780  0.09610  1.0000 0.5383804179
C   C4        1.0  0.04960  0.87220  0.09610  1.0000 0.5383804179
C   C5        1.0  0.87220  0.04960  0.40390  1.0000 0.5383804179
C   C6        1.0  0.12780  0.95040  0.40390  1.0000 0.5383804179
C   C7        1.0  0.04960  0.12780  0.59610  1.0000 0.5383804179
C   C8        1.0  0.95040  0.87220  0.59610  1.0000 0.5383804179
C   C9        1.0  0.14560  0.00290  0.82180  1.0000 0.1297741816
C   C10       1.0  0.85440  0.99710  0.82180  1.0000 0.1297741816
C   C11       1.0  0.99710  0.14560  0.17820  1.0000 0.1297741816
C   C12       1.0  0.00290  0.85440  0.17820  1.0000 0.1297741816
C   C13       1.0  0.85440  0.00290  0.32180  1.0000 0.1297741816
C   C14       1.0  0.14560  0.99710  0.32180  1.0000 0.1297741816
C   C15       1.0  0.00290  0.14560  0.67820  1.0000 0.1297741816
C   C16       1.0  0.99710  0.85440  0.67820  1.0000 0.1297741816
C   C17       1.0  0.22990  0.02540  0.79380  1.0000 -0.4677783958
C   C18       1.0  0.77010  0.97460  0.79380  1.0000 -0.4677783958
C   C19       1.0  0.97460  0.22990  0.20620  1.0000 -0.4677783958
C   C20       1.0  0.02540  0.77010  0.20620  1.0000 -0.4677783958
C   C21       1.0  0.77010  0.02540  0.29380  1.0000 -0.4677783958
C   C22       1.0  0.22990  0.97460  0.29380  1.0000 -0.4677783958
C   C23       1.0  0.02540  0.22990  0.70620  1.0000 -0.4677783958
C   C24       1.0  0.97460  0.77010  0.70620  1.0000 -0.4677783958
C   C25       1.0  0.14210  0.73430  0.88420  1.0000 0.5602485128
C   C26       1.0  0.85790  0.26570  0.88420  1.0000 0.5602485128
C   C27       1.0  0.26570  0.14210  0.11580  1.0000 0.5602485128
C   C28       1.0  0.73430  0.85790  0.11580  1.0000 0.5602485128
C   C29       1.0  0.85790  0.73430  0.38420  1.0000 0.5602485128
C   C30       1.0  0.14210  0.26570  0.38420  1.0000 0.5602485128
C   C31       1.0  0.73430  0.14210  0.61580  1.0000 0.5602485128
C   C32       1.0  0.26570  0.85790  0.61580  1.0000 0.5602485128
C   C33       1.0  0.13230  0.65230  0.91160  1.0000 -0.0270104306
C   C34       1.0  0.86770  0.34770  0.91160  1.0000 -0.0270104306
C   C35       1.0  0.34770  0.13230  0.08840  1.0000 -0.0270104306
C   C36       1.0  0.65230  0.86770  0.08840  1.0000 -0.0270104306
C   C37       1.0  0.86770  0.65230  0.41160  1.0000 -0.0270104306
C   C38       1.0  0.13230  0.34770  0.41160  1.0000 -0.0270104306
C   C39       1.0  0.65230  0.13230  0.58840  1.0000 -0.0270104306
C   C40       1.0  0.34770  0.86770  0.58840  1.0000 -0.0270104306
C   C41       1.0  0.12790  0.62740  0.99850  1.0000 -0.0976863699
C   C42       1.0  0.87210  0.37260  0.99850  1.0000 -0.0976863699
C   C43       1.0  0.37260  0.12790  0.00150  1.0000 -0.0976863699
C   C44       1.0  0.62740  0.87210  0.00150  1.0000 -0.0976863699
C   C45       1.0  0.87210  0.62740  0.49850  1.0000 -0.0976863699
C   C46       1.0  0.12790  0.37260  0.49850  1.0000 -0.0976863699
C   C47       1.0  0.62740  0.12790  0.50150  1.0000 -0.0976863699
C   C48       1.0  0.37260  0.87210  0.50150  1.0000 -0.0976863699
C   C49       1.0  0.12000  0.55090  0.01820  1.0000 -0.1553639733
C   C50       1.0  0.88000  0.44910  0.01820  1.0000 -0.1553639733
C   C51       1.0  0.44910  0.12000  0.98180  1.0000 -0.1553639733
C   C52       1.0  0.55090  0.88000  0.98180  1.0000 -0.1553639733
C   C53       1.0  0.88000  0.55090  0.51820  1.0000 -0.1553639733
C   C54       1.0  0.12000  0.44910  0.51820  1.0000 -0.1553639733
C   C55       1.0  0.55090  0.12000  0.48180  1.0000 -0.1553639733
C   C56       1.0  0.44910  0.88000  0.48180  1.0000 -0.1553639733
C   C57       1.0  0.11590  0.49710  0.95290  1.0000 0.0629656501
C   C58       1.0  0.88410  0.50290  0.95290  1.0000 0.0629656501
C   C59       1.0  0.50290  0.11590  0.04710  1.0000 0.0629656501
C   C60       1.0  0.49710  0.88410  0.04710  1.0000 0.0629656501
C   C61       1.0  0.88410  0.49710  0.45290  1.0000 0.0629656501
C   C62       1.0  0.11590  0.50290  0.45290  1.0000 0.0629656501
C   C63       1.0  0.49710  0.11590  0.54710  1.0000 0.0629656501
C   C64       1.0  0.50290  0.88410  0.54710  1.0000 0.0629656501
C   C65       1.0  0.12070  0.51950  0.86710  1.0000 -0.1498374101
C   C66       1.0  0.87930  0.48050  0.86710  1.0000 -0.1498374101
C   C67       1.0  0.48050  0.12070  0.13290  1.0000 -0.1498374101
C   C68       1.0  0.51950  0.87930  0.13290  1.0000 -0.1498374101
C   C69       1.0  0.87930  0.51950  0.36710  1.0000 -0.1498374101
C   C70       1.0  0.12070  0.48050  0.36710  1.0000 -0.1498374101
C   C71       1.0  0.51950  0.12070  0.63290  1.0000 -0.1498374101
C   C72       1.0  0.48050  0.87930  0.63290  1.0000 -0.1498374101
C   C73       1.0  0.13190  0.59620  0.84330  1.0000 -0.1212483515
C   C74       1.0  0.86810  0.40380  0.84330  1.0000 -0.1212483515
C   C75       1.0  0.40380  0.13190  0.15670  1.0000 -0.1212483515
C   C76       1.0  0.59620  0.86810  0.15670  1.0000 -0.1212483515
C   C77       1.0  0.86810  0.59620  0.34330  1.0000 -0.1212483515
C   C78       1.0  0.13190  0.40380  0.34330  1.0000 -0.1212483515
C   C79       1.0  0.59620  0.13190  0.65670  1.0000 -0.1212483515
C   C80       1.0  0.40380  0.86810  0.65670  1.0000 -0.1212483515
C   C81       1.0  0.10890  0.41430  0.97420  1.0000 0.11159641
C   C82       1.0  0.89110  0.58570  0.97420  1.0000 0.11159641
C   C83       1.0  0.58570  0.10890  0.02580  1.0000 0.11159641
C   C84       1.0  0.41430  0.89110  0.02580  1.0000 0.11159641
C   C85       1.0  0.89110  0.41430  0.47420  1.0000 0.11159641
C   C86       1.0  0.10890  0.58570  0.47420  1.0000 0.11159641
C   C87       1.0  0.41430  0.10890  0.52580  1.0000 0.11159641
C   C88       1.0  0.58570  0.89110  0.52580  1.0000 0.11159641
C   C89       1.0  0.06800  0.36520  0.92140  1.0000 -0.1893982105
C   C90       1.0  0.93200  0.63480  0.92140  1.0000 -0.1893982105
C   C91       1.0  0.63480  0.06800  0.07860  1.0000 -0.1893982105
C   C92       1.0  0.36520  0.93200  0.07860  1.0000 -0.1893982105
C   C93       1.0  0.93200  0.36520  0.42140  1.0000 -0.1893982105
C   C94       1.0  0.06800  0.63480  0.42140  1.0000 -0.1893982105
C   C95       1.0  0.36520  0.06800  0.57860  1.0000 -0.1893982105
C   C96       1.0  0.63480  0.93200  0.57860  1.0000 -0.1893982105
C   C97       1.0  0.06440  0.28760  0.94300  1.0000 0.0869074873
C   C98       1.0  0.93560  0.71240  0.94300  1.0000 0.0869074873
C   C99       1.0  0.71240  0.06440  0.05700  1.0000 0.0869074873
C   C100      1.0  0.28760  0.93560  0.05700  1.0000 0.0869074873
C   C101      1.0  0.93560  0.28760  0.44300  1.0000 0.0869074873
C   C102      1.0  0.06440  0.71240  0.44300  1.0000 0.0869074873
C   C103      1.0  0.28760  0.06440  0.55700  1.0000 0.0869074873
C   C104      1.0  0.71240  0.93560  0.55700  1.0000 0.0869074873
C   C105      1.0  0.13730  0.30540  0.06560  1.0000 0.0992852971
C   C106      1.0  0.86270  0.69460  0.06560  1.0000 0.0992852971
C   C107      1.0  0.69460  0.13730  0.93440  1.0000 0.0992852971
C   C108      1.0  0.30540  0.86270  0.93440  1.0000 0.0992852971
C   C109      1.0  0.86270  0.30540  0.56560  1.0000 0.0992852971
C   C110      1.0  0.13730  0.69460  0.56560  1.0000 0.0992852971
C   C111      1.0  0.30540  0.13730  0.43440  1.0000 0.0992852971
C   C112      1.0  0.69460  0.86270  0.43440  1.0000 0.0992852971
C   C113      1.0  0.14420  0.38450  0.04800  1.0000 -0.2016739249
C   C114      1.0  0.85580  0.61550  0.04800  1.0000 -0.2016739249
C   C115      1.0  0.61550  0.14420  0.95200  1.0000 -0.2016739249
C   C116      1.0  0.38450  0.85580  0.95200  1.0000 -0.2016739249
C   C117      1.0  0.85580  0.38450  0.54800  1.0000 -0.2016739249
C   C118      1.0  0.14420  0.61550  0.54800  1.0000 -0.2016739249
C   C119      1.0  0.38450  0.14420  0.45200  1.0000 -0.2016739249
C   C120      1.0  0.61550  0.85580  0.45200  1.0000 -0.2016739249
N   N1        1.0  0.09960  0.25730  0.01400  1.0000 -0.2533887886
N   N2        1.0  0.90040  0.74270  0.01400  1.0000 -0.2533887886
N   N3        1.0  0.74270  0.09960  0.98600  1.0000 -0.2533887886
N   N4        1.0  0.25730  0.90040  0.98600  1.0000 -0.2533887886
N   N5        1.0  0.90040  0.25730  0.51400  1.0000 -0.2533887886
N   N6        1.0  0.09960  0.74270  0.51400  1.0000 -0.2533887886
N   N7        1.0  0.25730  0.09960  0.48600  1.0000 -0.2533887886
N   N8        1.0  0.74270  0.90040  0.48600  1.0000 -0.2533887886
O   O1        1.0  0.11920  0.12050  0.89790  1.0000 -0.5021546967
O   O2        1.0  0.88080  0.87950  0.89790  1.0000 -0.5021546967
O   O3        1.0  0.87950  0.11920  0.10210  1.0000 -0.5021546967
O   O4        1.0  0.12050  0.88080  0.10210  1.0000 -0.5021546967
O   O5        1.0  0.88080  0.12050  0.39790  1.0000 -0.5021546967
O   O6        1.0  0.11920  0.87950  0.39790  1.0000 -0.5021546967
O   O7        1.0  0.12050  0.11920  0.60210  1.0000 -0.5021546967
O   O8        1.0  0.87950  0.88080  0.60210  1.0000 -0.5021546967
O   O9        1.0  0.12230  0.01670  0.97710  1.0000 -0.5269540511
O   O10       1.0  0.87770  0.98330  0.97710  1.0000 -0.5269540511
O   O11       1.0  0.98330  0.12230  0.02290  1.0000 -0.5269540511
O   O12       1.0  0.01670  0.87770  0.02290  1.0000 -0.5269540511
O   O13       1.0  0.87770  0.01670  0.47710  1.0000 -0.5269540511
O   O14       1.0  0.12230  0.98330  0.47710  1.0000 -0.5269540511
O   O15       1.0  0.01670  0.12230  0.52290  1.0000 -0.5269540511
O   O16       1.0  0.98330  0.87770  0.52290  1.0000 -0.5269540511
O   O17       1.0  0.13860  0.92510  0.84100  1.0000 -0.6241013222
O   O18       1.0  0.86140  0.07490  0.84100  1.0000 -0.6241013222
O   O19       1.0  0.07490  0.13860  0.15900  1.0000 -0.6241013222
O   O20       1.0  0.92510  0.86140  0.15900  1.0000 -0.6241013222
O   O21       1.0  0.86140  0.92510  0.34100  1.0000 -0.6241013222
O   O22       1.0  0.13860  0.07490  0.34100  1.0000 -0.6241013222
O   O23       1.0  0.92510  0.13860  0.65900  1.0000 -0.6241013222
O   O24       1.0  0.07490  0.86140  0.65900  1.0000 -0.6241013222
O   O25       1.0  0.14850  0.74980  0.80670  1.0000 -0.541841235
O   O26       1.0  0.85150  0.25020  0.80670  1.0000 -0.541841235
O   O27       1.0  0.25020  0.14850  0.19330  1.0000 -0.541841235
O   O28       1.0  0.74980  0.85150  0.19330  1.0000 -0.541841235
O   O29       1.0  0.85150  0.74980  0.30670  1.0000 -0.541841235
O   O30       1.0  0.14850  0.25020  0.30670  1.0000 -0.541841235
O   O31       1.0  0.74980  0.14850  0.69330  1.0000 -0.541841235
O   O32       1.0  0.25020  0.85150  0.69330  1.0000 -0.541841235
O   O33       1.0  0.14040  0.78130  0.94920  1.0000 -0.5705249273
O   O34       1.0  0.85960  0.21870  0.94920  1.0000 -0.5705249273
O   O35       1.0  0.21870  0.14040  0.05080  1.0000 -0.5705249273
O   O36       1.0  0.78130  0.85960  0.05080  1.0000 -0.5705249273
O   O37       1.0  0.85960  0.78130  0.44920  1.0000 -0.5705249273
O   O38       1.0  0.14040  0.21870  0.44920  1.0000 -0.5705249273
O   O39       1.0  0.78130  0.14040  0.55080  1.0000 -0.5705249273
O   O40       1.0  0.21870  0.85960  0.55080  1.0000 -0.5705249273
