# DDEC6 charges by PACMAN v1.1 (https://github.com/mtap-research/PACMAN-charge/)
data_2014[Zn][unj]3[ASR]1
_chemical_formula_sum              "Zn6 H102 C72 Br6 N12 O12"
_cell_length_a       15.9539
_cell_length_b       15.9539
_cell_length_c       14.7843
_cell_angle_alpha    90
_cell_angle_beta     90
_cell_angle_gamma    120

_symmetry_space_group_name_H-M    "P 1"
_symmetry_Int_Tables_number       1

loop_
  _symmetry_equiv_pos_as_xyz
  'x, y, z'

loop_
  _atom_site_type_symbol
  _atom_site_label
  _atom_site_symmetry_multiplicity
  _atom_site_fract_x
  _atom_site_fract_y
  _atom_site_fract_z
  _atom_site_occupancy
  _atom_site_charge
Zn  Zn1       1.0  0.38554  0.75206  0.51490  1.0000 0.6817143612
Zn  Zn2       1.0  0.63348  0.38554  0.68157  1.0000 0.6817143612
Zn  Zn3       1.0  0.24794  0.63348  0.84823  1.0000 0.6817143612
Zn  Zn4       1.0  0.61446  0.24794  0.01490  1.0000 0.6817143612
Zn  Zn5       1.0  0.36652  0.61446  0.18157  1.0000 0.6817143612
Zn  Zn6       1.0  0.75206  0.36652  0.34823  1.0000 0.6817143612
H   H1        1.0  0.14200  0.52270  0.55800  1.0000 0.1000114781
H   H2        1.0  0.61930  0.14200  0.72467  1.0000 0.1000114781
H   H3        1.0  0.47730  0.61930  0.89133  1.0000 0.1000114781
H   H4        1.0  0.85800  0.47730  0.05800  1.0000 0.1000114781
H   H5        1.0  0.38070  0.85800  0.22467  1.0000 0.1000114781
H   H6        1.0  0.52270  0.38070  0.39133  1.0000 0.1000114781
H   H7        1.0  0.24280  0.45700  0.59340  1.0000 0.1204002512
H   H8        1.0  0.78580  0.24280  0.76007  1.0000 0.1204002512
H   H9        1.0  0.54300  0.78580  0.92673  1.0000 0.1204002512
H   H10       1.0  0.75720  0.54300  0.09340  1.0000 0.1204002512
H   H11       1.0  0.21420  0.75720  0.26007  1.0000 0.1204002512
H   H12       1.0  0.45700  0.21420  0.42673  1.0000 0.1204002512
H   H13       1.0  0.32810  0.54170  0.54080  1.0000 0.1127795009
H   H14       1.0  0.78640  0.32810  0.70747  1.0000 0.1127795009
H   H15       1.0  0.45830  0.78640  0.87413  1.0000 0.1127795009
H   H16       1.0  0.67190  0.45830  0.04080  1.0000 0.1127795009
H   H17       1.0  0.21360  0.67190  0.20747  1.0000 0.1127795009
H   H18       1.0  0.54170  0.21360  0.37413  1.0000 0.1127795009
H   H19       1.0  0.23680  0.48190  0.40480  1.0000 0.0804796408
H   H20       1.0  0.75490  0.23680  0.57147  1.0000 0.0804796408
H   H21       1.0  0.51810  0.75490  0.73813  1.0000 0.0804796408
H   H22       1.0  0.76320  0.51810  0.90480  1.0000 0.0804796408
H   H23       1.0  0.24510  0.76320  0.07147  1.0000 0.0804796408
H   H24       1.0  0.48190  0.24510  0.23813  1.0000 0.0804796408
H   H25       1.0  0.20270  0.72910  0.43560  1.0000 0.130458761
H   H26       1.0  0.47360  0.20270  0.60227  1.0000 0.130458761
H   H27       1.0  0.27090  0.47360  0.76893  1.0000 0.130458761
H   H28       1.0  0.79730  0.27090  0.93560  1.0000 0.130458761
H   H29       1.0  0.52640  0.79730  0.10227  1.0000 0.130458761
H   H30       1.0  0.72910  0.52640  0.26893  1.0000 0.130458761
H   H31       1.0  0.17190  0.70190  0.53670  1.0000 0.1204002512
H   H32       1.0  0.47000  0.17190  0.70337  1.0000 0.1204002512
H   H33       1.0  0.29810  0.47000  0.87003  1.0000 0.1204002512
H   H34       1.0  0.82810  0.29810  0.03670  1.0000 0.1204002512
H   H35       1.0  0.53000  0.82810  0.20337  1.0000 0.1204002512
H   H36       1.0  0.70190  0.53000  0.37003  1.0000 0.1204002512
H   H37       1.0  0.26880  0.35830  0.38300  1.0000 0.130458761
H   H38       1.0  0.91050  0.26880  0.54967  1.0000 0.130458761
H   H39       1.0  0.64170  0.91050  0.71633  1.0000 0.130458761
H   H40       1.0  0.73120  0.64170  0.88300  1.0000 0.130458761
H   H41       1.0  0.08950  0.73120  0.04967  1.0000 0.130458761
H   H42       1.0  0.35830  0.08950  0.21633  1.0000 0.130458761
H   H43       1.0  0.28570  0.35580  0.48720  1.0000 0.130458761
H   H44       1.0  0.92990  0.28570  0.65387  1.0000 0.130458761
H   H45       1.0  0.64420  0.92990  0.82053  1.0000 0.130458761
H   H46       1.0  0.71430  0.64420  0.98720  1.0000 0.130458761
H   H47       1.0  0.07010  0.71430  0.15387  1.0000 0.130458761
H   H48       1.0  0.35580  0.07010  0.32053  1.0000 0.130458761
H   H49       1.0  0.35570  0.44730  0.43030  1.0000 0.1204002512
H   H50       1.0  0.90840  0.35570  0.59697  1.0000 0.1204002512
H   H51       1.0  0.55270  0.90840  0.76363  1.0000 0.1204002512
H   H52       1.0  0.64430  0.55270  0.93030  1.0000 0.1204002512
H   H53       1.0  0.09160  0.64430  0.09697  1.0000 0.1204002512
H   H54       1.0  0.44730  0.09160  0.26363  1.0000 0.1204002512
H   H55       1.0  0.10280  0.32440  0.40290  1.0000 0.130458761
H   H56       1.0  0.77840  0.10280  0.56957  1.0000 0.130458761
H   H57       1.0  0.67560  0.77840  0.73623  1.0000 0.130458761
H   H58       1.0  0.89720  0.67560  0.90290  1.0000 0.130458761
H   H59       1.0  0.22160  0.89720  0.06957  1.0000 0.130458761
H   H60       1.0  0.32440  0.22160  0.23623  1.0000 0.130458761
H   H61       1.0  0.08220  0.39340  0.46250  1.0000 0.1127795009
H   H62       1.0  0.68880  0.08220  0.62917  1.0000 0.1127795009
H   H63       1.0  0.60660  0.68880  0.79583  1.0000 0.1127795009
H   H64       1.0  0.91780  0.60660  0.96250  1.0000 0.1127795009
H   H65       1.0  0.31120  0.91780  0.12917  1.0000 0.1127795009
H   H66       1.0  0.39340  0.31120  0.29583  1.0000 0.1127795009
H   H67       1.0  0.10720  0.32010  0.50860  1.0000 0.130458761
H   H68       1.0  0.78710  0.10720  0.67527  1.0000 0.130458761
H   H69       1.0  0.67990  0.78710  0.84193  1.0000 0.130458761
H   H70       1.0  0.89280  0.67990  0.00860  1.0000 0.130458761
H   H71       1.0  0.21290  0.89280  0.17527  1.0000 0.130458761
H   H72       1.0  0.32010  0.21290  0.34193  1.0000 0.130458761
H   H73       1.0  0.00280  0.61790  0.55120  1.0000 0.1492667598
H   H74       1.0  0.38490  0.00280  0.71787  1.0000 0.1492667598
H   H75       1.0  0.38210  0.38490  0.88453  1.0000 0.1492667598
H   H76       1.0  0.99720  0.38210  0.05120  1.0000 0.1492667598
H   H77       1.0  0.61510  0.99720  0.21787  1.0000 0.1492667598
H   H78       1.0  0.61790  0.61510  0.38453  1.0000 0.1492667598
H   H79       1.0  0.10970  0.55720  0.33400  1.0000 0.1492667598
H   H80       1.0  0.55250  0.10970  0.50067  1.0000 0.1492667598
H   H81       1.0  0.44280  0.55250  0.66733  1.0000 0.1492667598
H   H82       1.0  0.89030  0.44280  0.83400  1.0000 0.1492667598
H   H83       1.0  0.44750  0.89030  0.00067  1.0000 0.1492667598
H   H84       1.0  0.55720  0.44750  0.16733  1.0000 0.1492667598
H   H85       1.0  0.95690  0.45230  0.29110  1.0000 0.1204002512
H   H86       1.0  0.50460  0.95690  0.45777  1.0000 0.1204002512
H   H87       1.0  0.54770  0.50460  0.62443  1.0000 0.1204002512
H   H88       1.0  0.04310  0.54770  0.79110  1.0000 0.1204002512
H   H89       1.0  0.49540  0.04310  0.95777  1.0000 0.1204002512
H   H90       1.0  0.45230  0.49540  0.12443  1.0000 0.1204002512
H   H91       1.0  0.85310  0.50770  0.50470  1.0000 0.1204002512
H   H92       1.0  0.34540  0.85310  0.67137  1.0000 0.1204002512
H   H93       1.0  0.49230  0.34540  0.83803  1.0000 0.1204002512
H   H94       1.0  0.14690  0.49230  0.00470  1.0000 0.1204002512
H   H95       1.0  0.65460  0.14690  0.17137  1.0000 0.1204002512
H   H96       1.0  0.50770  0.65460  0.33803  1.0000 0.1204002512
H   H97       1.0  0.24400  0.61200  0.43500  1.0000 0.2472176058
H   H98       1.0  0.63200  0.24400  0.60167  1.0000 0.2472176058
H   H99       1.0  0.38800  0.63200  0.76833  1.0000 0.2472176058
H   H100      1.0  0.75600  0.38800  0.93500  1.0000 0.2472176058
H   H101      1.0  0.36800  0.75600  0.10167  1.0000 0.2472176058
H   H102      1.0  0.61200  0.36800  0.26833  1.0000 0.2472176058
C   C1        1.0  0.21270  0.56290  0.55720  1.0000 -0.0316746263
C   C2        1.0  0.64980  0.21270  0.72387  1.0000 -0.0316746263
C   C3        1.0  0.43710  0.64980  0.89053  1.0000 -0.0316746263
C   C4        1.0  0.78730  0.43710  0.05720  1.0000 -0.0316746263
C   C5        1.0  0.35020  0.78730  0.22387  1.0000 -0.0316746263
C   C6        1.0  0.56290  0.35020  0.39053  1.0000 -0.0316746263
C   C7        1.0  0.25830  0.50000  0.54200  1.0000 -0.2746214119
C   C8        1.0  0.75830  0.25830  0.70867  1.0000 -0.2746214119
C   C9        1.0  0.50000  0.75830  0.87533  1.0000 -0.2746214119
C   C10       1.0  0.74170  0.50000  0.04200  1.0000 -0.2746214119
C   C11       1.0  0.24170  0.74170  0.20867  1.0000 -0.2746214119
C   C12       1.0  0.50000  0.24170  0.37533  1.0000 -0.2746214119
C   C13       1.0  0.22760  0.43830  0.45520  1.0000 0.1395040579
C   C14       1.0  0.78930  0.22760  0.62187  1.0000 0.1395040579
C   C15       1.0  0.56170  0.78930  0.78853  1.0000 0.1395040579
C   C16       1.0  0.77240  0.56170  0.95520  1.0000 0.1395040579
C   C17       1.0  0.21070  0.77240  0.12187  1.0000 0.1395040579
C   C18       1.0  0.43830  0.21070  0.28853  1.0000 0.1395040579
C   C19       1.0  0.24890  0.61700  0.64780  1.0000 0.5519595695
C   C20       1.0  0.63190  0.24890  0.81447  1.0000 0.5519595695
C   C21       1.0  0.38300  0.63190  0.98113  1.0000 0.5519595695
C   C22       1.0  0.75110  0.38300  0.14780  1.0000 0.5519595695
C   C23       1.0  0.36810  0.75110  0.31447  1.0000 0.5519595695
C   C24       1.0  0.61700  0.36810  0.48113  1.0000 0.5519595695
C   C25       1.0  0.17590  0.67600  0.47850  1.0000 -0.1558036106
C   C26       1.0  0.49990  0.17590  0.64517  1.0000 -0.1558036106
C   C27       1.0  0.32400  0.49990  0.81183  1.0000 -0.1558036106
C   C28       1.0  0.82410  0.32400  0.97850  1.0000 -0.1558036106
C   C29       1.0  0.50010  0.82410  0.14517  1.0000 -0.1558036106
C   C30       1.0  0.67600  0.50010  0.31183  1.0000 -0.1558036106
C   C31       1.0  0.28990  0.39630  0.43740  1.0000 -0.4361460455
C   C32       1.0  0.89360  0.28990  0.60407  1.0000 -0.4361460455
C   C33       1.0  0.60370  0.89360  0.77073  1.0000 -0.4361460455
C   C34       1.0  0.71010  0.60370  0.93740  1.0000 -0.4361460455
C   C35       1.0  0.10640  0.71010  0.10407  1.0000 -0.4361460455
C   C36       1.0  0.39630  0.10640  0.27073  1.0000 -0.4361460455
C   C37       1.0  0.11990  0.36190  0.45750  1.0000 -0.4280280965
C   C38       1.0  0.75800  0.11990  0.62417  1.0000 -0.4280280965
C   C39       1.0  0.63810  0.75800  0.79083  1.0000 -0.4280280965
C   C40       1.0  0.88010  0.63810  0.95750  1.0000 -0.4280280965
C   C41       1.0  0.24200  0.88010  0.12417  1.0000 -0.4280280965
C   C42       1.0  0.36190  0.24200  0.29083  1.0000 -0.4280280965
C   C43       1.0  0.07510  0.60250  0.44870  1.0000 0.1395040579
C   C44       1.0  0.47260  0.07510  0.61537  1.0000 0.1395040579
C   C45       1.0  0.39750  0.47260  0.78203  1.0000 0.1395040579
C   C46       1.0  0.92490  0.39750  0.94870  1.0000 0.1395040579
C   C47       1.0  0.52740  0.92490  0.11537  1.0000 0.1395040579
C   C48       1.0  0.60250  0.52740  0.28203  1.0000 0.1395040579
C   C49       1.0  0.99540  0.58450  0.49750  1.0000 -0.1986546883
C   C50       1.0  0.41090  0.99540  0.66417  1.0000 -0.1949318545
C   C51       1.0  0.41550  0.41090  0.83083  1.0000 -0.1949318545
C   C52       1.0  0.00460  0.41550  0.99750  1.0000 -0.1949318545
C   C53       1.0  0.58910  0.00460  0.16417  1.0000 -0.1949318545
C   C54       1.0  0.58450  0.58910  0.33083  1.0000 -0.1949318545
C   C55       1.0  0.05820  0.54930  0.36960  1.0000 -0.1986546883
C   C56       1.0  0.50890  0.05820  0.53627  1.0000 -0.1986546883
C   C57       1.0  0.45070  0.50890  0.70293  1.0000 -0.1986546883
C   C58       1.0  0.94180  0.45070  0.86960  1.0000 -0.1986546883
C   C59       1.0  0.49110  0.94180  0.03627  1.0000 -0.1986546883
C   C60       1.0  0.54930  0.49110  0.20293  1.0000 -0.1986546883
C   C61       1.0  0.96650  0.48620  0.34480  1.0000 0.0804796408
C   C62       1.0  0.48030  0.96650  0.51147  1.0000 0.0804796408
C   C63       1.0  0.51380  0.48030  0.67813  1.0000 0.0804796408
C   C64       1.0  0.03350  0.51380  0.84480  1.0000 0.0804796408
C   C65       1.0  0.51970  0.03350  0.01147  1.0000 0.0804796408
C   C66       1.0  0.48620  0.51970  0.17813  1.0000 0.0804796408
C   C67       1.0  0.90560  0.51880  0.46890  1.0000 0.0804796408
C   C68       1.0  0.38680  0.90560  0.63557  1.0000 0.0804796408
C   C69       1.0  0.48120  0.38680  0.80223  1.0000 0.0804796408
C   C70       1.0  0.09440  0.48120  0.96890  1.0000 0.0804796408
C   C71       1.0  0.61320  0.09440  0.13557  1.0000 0.0804796408
C   C72       1.0  0.51880  0.61320  0.30223  1.0000 0.0804796408
Br  Br1       1.0  0.52477  0.73356  0.52064  1.0000 -0.546932245
Br  Br2       1.0  0.79121  0.52477  0.68731  1.0000 -0.5440487313
Br  Br3       1.0  0.26644  0.79121  0.85397  1.0000 -0.546932245
Br  Br4       1.0  0.47523  0.26644  0.02064  1.0000 -0.5440487313
Br  Br5       1.0  0.20879  0.47523  0.18731  1.0000 -0.5440487313
Br  Br6       1.0  0.73356  0.20879  0.35397  1.0000 -0.546932245
N   N1        1.0  0.24290  0.63760  0.48660  1.0000 -0.3234716105
N   N2        1.0  0.60530  0.24290  0.65327  1.0000 -0.3234716105
N   N3        1.0  0.36240  0.60530  0.81993  1.0000 -0.3234716105
N   N4        1.0  0.75710  0.36240  0.98660  1.0000 -0.3234716105
N   N5        1.0  0.39470  0.75710  0.15327  1.0000 -0.3234716105
N   N6        1.0  0.63760  0.39470  0.31993  1.0000 -0.3234716105
N   N7        1.0  0.88840  0.46910  0.39250  1.0000 -0.2133004017
N   N8        1.0  0.41930  0.88840  0.55917  1.0000 -0.2133004017
N   N9        1.0  0.53090  0.41930  0.72583  1.0000 -0.2133004017
N   N10       1.0  0.11160  0.53090  0.89250  1.0000 -0.2133004017
N   N11       1.0  0.58070  0.11160  0.05917  1.0000 -0.2133004017
N   N12       1.0  0.46910  0.58070  0.22583  1.0000 -0.2133004017
O   O1        1.0  0.32880  0.69270  0.64750  1.0000 -0.5300620841
O   O2        1.0  0.63610  0.32880  0.81417  1.0000 -0.5300620841
O   O3        1.0  0.30730  0.63610  0.98083  1.0000 -0.5300620841
O   O4        1.0  0.67120  0.30730  0.14750  1.0000 -0.5300620841
O   O5        1.0  0.36390  0.67120  0.31417  1.0000 -0.5300620841
O   O6        1.0  0.69270  0.36390  0.48083  1.0000 -0.5300620841
O   O7        1.0  0.19820  0.57720  0.71670  1.0000 -0.546932245
O   O8        1.0  0.62100  0.19820  0.88337  1.0000 -0.546932245
O   O9        1.0  0.42280  0.62100  0.05003  1.0000 -0.546932245
O   O10       1.0  0.80180  0.42280  0.21670  1.0000 -0.546932245
O   O11       1.0  0.37900  0.80180  0.38337  1.0000 -0.546932245
O   O12       1.0  0.57720  0.37900  0.55003  1.0000 -0.546932245
