# DDEC6 charges by PACMAN v1.1 (https://github.com/mtap-research/PACMAN-charge/)
data_2014[Cu][nan]3[ASR]9
_chemical_formula_sum              "Cu12 H56 C112 N16 O80"
_cell_length_a       10.1122
_cell_length_b       32.866
_cell_length_c       15.348
_cell_angle_alpha    90
_cell_angle_beta     106.642
_cell_angle_gamma    90

_symmetry_space_group_name_H-M    "P 1"
_symmetry_Int_Tables_number       1

loop_
  _symmetry_equiv_pos_as_xyz
  'x, y, z'

loop_
  _atom_site_type_symbol
  _atom_site_label
  _atom_site_symmetry_multiplicity
  _atom_site_fract_x
  _atom_site_fract_y
  _atom_site_fract_z
  _atom_site_occupancy
  _atom_site_charge
Cu  Cu1       1.0  0.53918  0.72533  0.84512  1.0000 0.9097431674
Cu  Cu2       1.0  0.96082  0.22533  0.15488  1.0000 0.9097431674
Cu  Cu3       1.0  0.46082  0.27467  0.15488  1.0000 0.9097431674
Cu  Cu4       1.0  0.03918  0.77467  0.84512  1.0000 0.9097431674
Cu  Cu5       1.0  0.51601  0.78279  0.99177  1.0000 0.9631127639
Cu  Cu6       1.0  0.98399  0.28279  0.00823  1.0000 0.9631127639
Cu  Cu7       1.0  0.48399  0.21721  0.00823  1.0000 0.9631127639
Cu  Cu8       1.0  0.01601  0.71721  0.99177  1.0000 0.9631127639
Cu  Cu9       1.0  0.77436  0.78333  0.91878  1.0000 0.9485967382
Cu  Cu10      1.0  0.72564  0.28333  0.08122  1.0000 0.9485967382
Cu  Cu11      1.0  0.22564  0.21667  0.08122  1.0000 0.9485967382
Cu  Cu12      1.0  0.27436  0.71667  0.91878  1.0000 0.9485967382
H   H1        1.0  0.53550  0.79910  0.84110  1.0000 0.3934581316
H   H2        1.0  0.96450  0.29910  0.15890  1.0000 0.3934581316
H   H3        1.0  0.46450  0.20090  0.15890  1.0000 0.3934581316
H   H4        1.0  0.03550  0.70090  0.84110  1.0000 0.3934581316
H   H5        1.0  0.01410  0.79180  0.99480  1.0000 0.3934581316
H   H6        1.0  0.48590  0.29180  0.00520  1.0000 0.3934581316
H   H7        1.0  0.98590  0.20820  0.00520  1.0000 0.3934581316
H   H8        1.0  0.51410  0.70820  0.99480  1.0000 0.3934581316
H   H9        1.0  0.79550  0.91720  0.94200  1.0000 0.1313140158
H   H10       1.0  0.70450  0.41720  0.05800  1.0000 0.1313140158
H   H11       1.0  0.20450  0.08280  0.05800  1.0000 0.1313140158
H   H12       1.0  0.29550  0.58280  0.94200  1.0000 0.1313140158
H   H13       1.0  0.81900  0.98470  0.97960  1.0000 0.1313140158
H   H14       1.0  0.68100  0.48470  0.02040  1.0000 0.1313140158
H   H15       1.0  0.18100  0.01530  0.02040  1.0000 0.1313140158
H   H16       1.0  0.31900  0.51530  0.97960  1.0000 0.1313140158
H   H17       1.0  0.60890  0.89810  0.13330  1.0000 0.1215756398
H   H18       1.0  0.89110  0.39810  0.86670  1.0000 0.1215756398
H   H19       1.0  0.39110  0.10190  0.86670  1.0000 0.1215756398
H   H20       1.0  0.10890  0.60190  0.13330  1.0000 0.1215756398
H   H21       1.0  0.99950  0.09480  0.18700  1.0000 0.1450449451
H   H22       1.0  0.50050  0.59480  0.81300  1.0000 0.1450449451
H   H23       1.0  0.00050  0.90520  0.81300  1.0000 0.1450449451
H   H24       1.0  0.49950  0.40520  0.18700  1.0000 0.1450449451
H   H25       1.0  0.60340  0.11340  0.05300  1.0000 0.1215756398
H   H26       1.0  0.89660  0.61340  0.94700  1.0000 0.1215756398
H   H27       1.0  0.39660  0.88660  0.94700  1.0000 0.1215756398
H   H28       1.0  0.10340  0.38660  0.05300  1.0000 0.1215756398
H   H29       1.0  0.56770  0.04400  0.03980  1.0000 0.114266578
H   H30       1.0  0.93230  0.54400  0.96020  1.0000 0.114266578
H   H31       1.0  0.43230  0.95600  0.96020  1.0000 0.114266578
H   H32       1.0  0.06770  0.45600  0.03980  1.0000 0.114266578
H   H33       1.0  0.62630  0.69920  0.59940  1.0000 0.1215756398
H   H34       1.0  0.87370  0.19920  0.40060  1.0000 0.1215756398
H   H35       1.0  0.37370  0.30080  0.40060  1.0000 0.1215756398
H   H36       1.0  0.12630  0.80080  0.59940  1.0000 0.1215756398
H   H37       1.0  0.87140  0.80130  0.50870  1.0000 0.114266578
H   H38       1.0  0.62860  0.30130  0.49130  1.0000 0.114266578
H   H39       1.0  0.12860  0.19870  0.49130  1.0000 0.114266578
H   H40       1.0  0.37140  0.69870  0.50870  1.0000 0.114266578
H   H41       1.0  0.83480  0.80380  0.64940  1.0000 0.1411995365
H   H42       1.0  0.66520  0.30380  0.35060  1.0000 0.1411995365
H   H43       1.0  0.16520  0.19620  0.35060  1.0000 0.1411995365
H   H44       1.0  0.33480  0.69620  0.64940  1.0000 0.1411995365
H   H45       1.0  0.70580  0.79800  0.33160  1.0000 0.114266578
H   H46       1.0  0.79420  0.29800  0.66840  1.0000 0.114266578
H   H47       1.0  0.29420  0.20200  0.66840  1.0000 0.114266578
H   H48       1.0  0.20580  0.70200  0.33160  1.0000 0.114266578
H   H49       1.0  0.72240  0.79550  0.18600  1.0000 0.1313140158
H   H50       1.0  0.77760  0.29550  0.81400  1.0000 0.1313140158
H   H51       1.0  0.27760  0.20450  0.81400  1.0000 0.1313140158
H   H52       1.0  0.22240  0.70450  0.18600  1.0000 0.1313140158
H   H53       1.0  0.95620  0.69540  0.25040  1.0000 0.1313140158
H   H54       1.0  0.54380  0.19540  0.74960  1.0000 0.1313140158
H   H55       1.0  0.04380  0.30460  0.74960  1.0000 0.1313140158
H   H56       1.0  0.45620  0.80460  0.25040  1.0000 0.1313140158
C   C1        1.0  0.68300  0.85623  0.00710  1.0000 0.5894246026
C   C2        1.0  0.81700  0.35623  0.99290  1.0000 0.5894246026
C   C3        1.0  0.31700  0.14377  0.99290  1.0000 0.5894246026
C   C4        1.0  0.18300  0.64377  0.00710  1.0000 0.5894246026
C   C5        1.0  0.70000  0.90022  0.03390  1.0000 -0.002111572
C   C6        1.0  0.80000  0.40022  0.96610  1.0000 -0.002111572
C   C7        1.0  0.30000  0.09978  0.96610  1.0000 -0.002111572
C   C8        1.0  0.20000  0.59978  0.03390  1.0000 -0.002111572
C   C9        1.0  0.76310  0.92680  0.98910  1.0000 -0.0880432205
C   C10       1.0  0.73690  0.42680  0.01090  1.0000 -0.0880432205
C   C11       1.0  0.23690  0.07320  0.01090  1.0000 -0.0880432205
C   C12       1.0  0.26310  0.57320  0.98910  1.0000 -0.0880432205
C   C13       1.0  0.77930  0.96730  0.01270  1.0000 -0.1294040476
C   C14       1.0  0.72070  0.46730  0.98730  1.0000 -0.1294040476
C   C15       1.0  0.22070  0.03270  0.98730  1.0000 -0.1294040476
C   C16       1.0  0.27930  0.53270  0.01270  1.0000 -0.1294040476
C   C17       1.0  0.73780  0.98260  0.08450  1.0000 0.0465130917
C   C18       1.0  0.76220  0.48260  0.91550  1.0000 0.0465130917
C   C19       1.0  0.26220  0.01740  0.91550  1.0000 0.0465130917
C   C20       1.0  0.23780  0.51740  0.08450  1.0000 0.0465130917
C   C21       1.0  0.67490  0.95510  0.12930  1.0000 -0.0380353755
C   C22       1.0  0.82510  0.45510  0.87070  1.0000 -0.0380353755
C   C23       1.0  0.32510  0.04490  0.87070  1.0000 -0.0380353755
C   C24       1.0  0.17490  0.54490  0.12930  1.0000 -0.0380353755
C   C25       1.0  0.65450  0.91520  0.10330  1.0000 -0.1652399824
C   C26       1.0  0.84550  0.41520  0.89670  1.0000 -0.1637996511
C   C27       1.0  0.34550  0.08480  0.89670  1.0000 -0.1637996511
C   C28       1.0  0.15450  0.58480  0.10330  1.0000 -0.1637996511
C   C29       1.0  0.76020  0.02700  0.10710  1.0000 0.0231488253
C   C30       1.0  0.73980  0.52700  0.89290  1.0000 0.0231488253
C   C31       1.0  0.23980  0.97300  0.89290  1.0000 0.0231488253
C   C32       1.0  0.26020  0.47300  0.10710  1.0000 0.0231488253
C   C33       1.0  0.88960  0.04360  0.14930  1.0000 0.0231488253
C   C34       1.0  0.61040  0.54360  0.85070  1.0000 0.0231488253
C   C35       1.0  0.11040  0.95640  0.85070  1.0000 0.0231488253
C   C36       1.0  0.38960  0.45640  0.14930  1.0000 0.0231488253
C   C37       1.0  0.91180  0.08490  0.15800  1.0000 -0.1404030846
C   C38       1.0  0.58820  0.58490  0.84200  1.0000 -0.1404030846
C   C39       1.0  0.08820  0.91510  0.84200  1.0000 -0.1404030846
C   C40       1.0  0.41180  0.41510  0.15800  1.0000 -0.1404030846
C   C41       1.0  0.80530  0.11140  0.12390  1.0000 0.0066714847
C   C42       1.0  0.69470  0.61140  0.87610  1.0000 0.0066714847
C   C43       1.0  0.19470  0.88860  0.87610  1.0000 0.0066714847
C   C44       1.0  0.30530  0.38860  0.12390  1.0000 0.0066714847
C   C45       1.0  0.67620  0.09570  0.07840  1.0000 -0.0826945213
C   C46       1.0  0.82380  0.59570  0.92160  1.0000 -0.0826945213
C   C47       1.0  0.32380  0.90430  0.92160  1.0000 -0.0826945213
C   C48       1.0  0.17620  0.40430  0.07840  1.0000 -0.0826945213
C   C49       1.0  0.65480  0.05390  0.07040  1.0000 -0.1404030846
C   C50       1.0  0.84520  0.55390  0.92960  1.0000 -0.1404030846
C   C51       1.0  0.34520  0.94610  0.92960  1.0000 -0.1404030846
C   C52       1.0  0.15480  0.44610  0.07040  1.0000 -0.1404030846
C   C53       1.0  0.82900  0.15670  0.12900  1.0000 0.5611212029
C   C54       1.0  0.67100  0.65670  0.87100  1.0000 0.5611212029
C   C55       1.0  0.17100  0.84330  0.87100  1.0000 0.5611212029
C   C56       1.0  0.32900  0.34330  0.12900  1.0000 0.5611212029
C   C57       1.0  0.70330  0.75233  0.73050  1.0000 0.5894246026
C   C58       1.0  0.79670  0.25233  0.26950  1.0000 0.5894246026
C   C59       1.0  0.29670  0.24767  0.26950  1.0000 0.5894246026
C   C60       1.0  0.20330  0.74767  0.73050  1.0000 0.5894246026
C   C61       1.0  0.72960  0.75170  0.63940  1.0000 -0.002111572
C   C62       1.0  0.77040  0.25170  0.36060  1.0000 -0.002111572
C   C63       1.0  0.27040  0.24830  0.36060  1.0000 -0.002111572
C   C64       1.0  0.22960  0.74830  0.63940  1.0000 -0.002111572
C   C65       1.0  0.67710  0.71950  0.58180  1.0000 -0.1404030846
C   C66       1.0  0.82290  0.21950  0.41820  1.0000 -0.1404030846
C   C67       1.0  0.32290  0.28050  0.41820  1.0000 -0.1404030846
C   C68       1.0  0.17710  0.78050  0.58180  1.0000 -0.1404030846
C   C69       1.0  0.70120  0.71800  0.49770  1.0000 -0.0484777467
C   C70       1.0  0.79880  0.21800  0.50230  1.0000 -0.0484777467
C   C71       1.0  0.29880  0.28200  0.50230  1.0000 -0.0484777467
C   C72       1.0  0.20120  0.78200  0.49770  1.0000 -0.0484777467
C   C73       1.0  0.77820  0.74780  0.46830  1.0000 0.0278657841
C   C74       1.0  0.72180  0.24780  0.53170  1.0000 0.0278657841
C   C75       1.0  0.22180  0.25220  0.53170  1.0000 0.0278657841
C   C76       1.0  0.27820  0.75220  0.46830  1.0000 0.0278657841
C   C77       1.0  0.82400  0.78020  0.52670  1.0000 -0.1404030846
C   C78       1.0  0.67600  0.28020  0.47330  1.0000 -0.1404030846
C   C79       1.0  0.17600  0.21980  0.47330  1.0000 -0.1404030846
C   C80       1.0  0.32400  0.71980  0.52670  1.0000 -0.1404030846
C   C81       1.0  0.80110  0.78190  0.61120  1.0000 -0.0826945213
C   C82       1.0  0.69890  0.28190  0.38880  1.0000 -0.0826945213
C   C83       1.0  0.19890  0.21810  0.38880  1.0000 -0.0826945213
C   C84       1.0  0.30110  0.71810  0.61120  1.0000 -0.0826945213
C   C85       1.0  0.80930  0.74660  0.37850  1.0000 -0.002111572
C   C86       1.0  0.69070  0.24660  0.62150  1.0000 -0.002111572
C   C87       1.0  0.19070  0.25340  0.62150  1.0000 -0.002111572
C   C88       1.0  0.30930  0.75340  0.37850  1.0000 -0.002111572
C   C89       1.0  0.75300  0.77650  0.31480  1.0000 -0.1487353744
C   C90       1.0  0.74700  0.27650  0.68520  1.0000 -0.1487353744
C   C91       1.0  0.24700  0.22350  0.68520  1.0000 -0.1487353744
C   C92       1.0  0.25300  0.72350  0.31480  1.0000 -0.1487353744
C   C93       1.0  0.76460  0.77550  0.22740  1.0000 -0.0826945213
C   C94       1.0  0.73540  0.27550  0.77260  1.0000 -0.0826945213
C   C95       1.0  0.23540  0.22450  0.77260  1.0000 -0.0826945213
C   C96       1.0  0.26460  0.72450  0.22740  1.0000 -0.0826945213
C   C97       1.0  0.83870  0.74480  0.20120  1.0000 -0.002111572
C   C98       1.0  0.66130  0.24480  0.79880  1.0000 -0.002111572
C   C99       1.0  0.16130  0.25520  0.79880  1.0000 -0.002111572
C   C100      1.0  0.33870  0.75520  0.20120  1.0000 -0.002111572
C   C101      1.0  0.90290  0.71560  0.26600  1.0000 -0.1487353744
C   C102      1.0  0.59710  0.21560  0.73400  1.0000 -0.1487353744
C   C103      1.0  0.09710  0.28440  0.73400  1.0000 -0.1487353744
C   C104      1.0  0.40290  0.78440  0.26600  1.0000 -0.1487353744
C   C105      1.0  0.88840  0.71660  0.35180  1.0000 -0.002111572
C   C106      1.0  0.61160  0.21660  0.64820  1.0000 -0.002111572
C   C107      1.0  0.11160  0.28340  0.64820  1.0000 -0.002111572
C   C108      1.0  0.38840  0.78340  0.35180  1.0000 -0.002111572
C   C109      1.0  0.85030  0.74206  0.10620  1.0000 0.5894246026
C   C110      1.0  0.64970  0.24206  0.89380  1.0000 0.5894246026
C   C111      1.0  0.14970  0.25794  0.89380  1.0000 0.5894246026
C   C112      1.0  0.35030  0.75794  0.10620  1.0000 0.5894246026
N   N1        1.0  0.62960  0.96740  0.20830  1.0000 0.4579165726
N   N2        1.0  0.87040  0.46740  0.79170  1.0000 0.4579165726
N   N3        1.0  0.37040  0.03260  0.79170  1.0000 0.4579165726
N   N4        1.0  0.12960  0.53260  0.20830  1.0000 0.4579165726
N   N5        1.0  0.63720  0.68470  0.43630  1.0000 0.4526287018
N   N6        1.0  0.86280  0.18470  0.56370  1.0000 0.4526287018
N   N7        1.0  0.36280  0.31530  0.56370  1.0000 0.4526287018
N   N8        1.0  0.13720  0.81530  0.43630  1.0000 0.4526287018
N   N9        1.0  0.96210  0.68590  0.41570  1.0000 0.4691422655
N   N10       1.0  0.53790  0.18590  0.58430  1.0000 0.4691422655
N   N11       1.0  0.03790  0.31410  0.58430  1.0000 0.4691422655
N   N12       1.0  0.46210  0.81410  0.41570  1.0000 0.4691422655
N   N13       1.0  0.00700  0.01650  0.18770  1.0000 0.5215688272
N   N14       1.0  0.49300  0.51650  0.81230  1.0000 0.5215688272
N   N15       1.0  0.99300  0.98350  0.81230  1.0000 0.5215688272
N   N16       1.0  0.50700  0.48350  0.18770  1.0000 0.5215688272
O   O1        1.0  0.57460  0.78172  0.88130  1.0000 -0.8116152213
O   O2        1.0  0.92540  0.28172  0.11870  1.0000 -0.8116152213
O   O3        1.0  0.42540  0.21828  0.11870  1.0000 -0.8116152213
O   O4        1.0  0.07460  0.71828  0.88130  1.0000 -0.8116152213
O   O5        1.0  0.76470  0.84216  0.96700  1.0000 -0.5489879922
O   O6        1.0  0.73530  0.34216  0.03300  1.0000 -0.5489879922
O   O7        1.0  0.23530  0.15784  0.03300  1.0000 -0.5489879922
O   O8        1.0  0.26470  0.65784  0.96700  1.0000 -0.5489879922
O   O9        1.0  0.58500  0.83752  0.02690  1.0000 -0.5427942948
O   O10       1.0  0.91500  0.33752  0.97310  1.0000 -0.5427942948
O   O11       1.0  0.41500  0.16248  0.97310  1.0000 -0.5427942948
O   O12       1.0  0.08500  0.66248  0.02690  1.0000 -0.5427942948
O   O13       1.0  0.78680  0.77170  0.79330  1.0000 -0.5813418941
O   O14       1.0  0.71320  0.27170  0.20670  1.0000 -0.5813418941
O   O15       1.0  0.21320  0.22830  0.20670  1.0000 -0.5813418941
O   O16       1.0  0.28680  0.72830  0.79330  1.0000 -0.5813418941
O   O17       1.0  0.59880  0.73287  0.73640  1.0000 -0.5216626849
O   O18       1.0  0.90120  0.23287  0.26360  1.0000 -0.5216626849
O   O19       1.0  0.40120  0.26713  0.26360  1.0000 -0.5216626849
O   O20       1.0  0.09880  0.76713  0.73640  1.0000 -0.5216626849
O   O21       1.0  0.97110  0.77491  0.95470  1.0000 -0.795396872
O   O22       1.0  0.52890  0.27491  0.04530  1.0000 -0.795396872
O   O23       1.0  0.02890  0.22509  0.04530  1.0000 -0.794188507
O   O24       1.0  0.47110  0.72509  0.95470  1.0000 -0.795396872
O   O25       1.0  0.57090  0.65960  0.46140  1.0000 -0.1784686019
O   O26       1.0  0.92910  0.15960  0.53860  1.0000 -0.1784686019
O   O27       1.0  0.42910  0.34040  0.53860  1.0000 -0.1784686019
O   O28       1.0  0.07090  0.84040  0.46140  1.0000 -0.1784686019
O   O29       1.0  0.59860  0.69220  0.35430  1.0000 -0.1784686019
O   O30       1.0  0.90140  0.19220  0.64570  1.0000 -0.1784686019
O   O31       1.0  0.40140  0.30780  0.64570  1.0000 -0.1784686019
O   O32       1.0  0.09860  0.80780  0.35430  1.0000 -0.1784686019
O   O33       1.0  0.98100  0.69030  0.49640  1.0000 -0.2892774494
O   O34       1.0  0.51900  0.19030  0.50360  1.0000 -0.2892774494
O   O35       1.0  0.01900  0.30970  0.50360  1.0000 -0.2892774494
O   O36       1.0  0.48100  0.80970  0.49640  1.0000 -0.2892774494
O   O37       1.0  0.02300  0.65920  0.38820  1.0000 -0.2732986586
O   O38       1.0  0.47700  0.15920  0.61180  1.0000 -0.2732986586
O   O39       1.0  0.97700  0.34080  0.61180  1.0000 -0.2732986586
O   O40       1.0  0.52300  0.84080  0.38820  1.0000 -0.2732986586
O   O41       1.0  0.65780  0.00010  0.24210  1.0000 -0.20037624
O   O42       1.0  0.84220  0.50010  0.75790  1.0000 -0.1935435907
O   O43       1.0  0.34220  0.99990  0.75790  1.0000 -0.20037624
O   O44       1.0  0.15780  0.49990  0.24210  1.0000 -0.20037624
O   O45       1.0  0.50920  0.95990  0.19900  1.0000 -0.1029482634
O   O46       1.0  0.99080  0.45990  0.80100  1.0000 -0.1065413382
O   O47       1.0  0.49080  0.04010  0.80100  1.0000 -0.1065413382
O   O48       1.0  0.00920  0.54010  0.19900  1.0000 -0.1065413382
O   O49       1.0  0.98160  0.98460  0.22010  1.0000 -0.3401149662
O   O50       1.0  0.51840  0.48460  0.77990  1.0000 -0.3401149662
O   O51       1.0  0.01840  0.01540  0.77990  1.0000 -0.3401149662
O   O52       1.0  0.48160  0.51540  0.22010  1.0000 -0.3401149662
O   O53       1.0  0.11940  0.02860  0.18570  1.0000 -0.3401149662
O   O54       1.0  0.38060  0.52860  0.81430  1.0000 -0.3401149662
O   O55       1.0  0.88060  0.97140  0.81430  1.0000 -0.3401149662
O   O56       1.0  0.61940  0.47140  0.18570  1.0000 -0.3401149662
O   O57       1.0  0.95120  0.72131  0.09770  1.0000 -0.5216626849
O   O58       1.0  0.54880  0.22131  0.90230  1.0000 -0.5216626849
O   O59       1.0  0.04880  0.27869  0.90230  1.0000 -0.5216626849
O   O60       1.0  0.45120  0.77869  0.09770  1.0000 -0.5216626849
O   O61       1.0  0.76330  0.76026  0.04440  1.0000 -0.6014243738
O   O62       1.0  0.73670  0.26026  0.95560  1.0000 -0.6014243738
O   O63       1.0  0.23670  0.23974  0.95560  1.0000 -0.6014243738
O   O64       1.0  0.26330  0.73974  0.04440  1.0000 -0.6014243738
O   O65       1.0  0.73170  0.18052  0.09950  1.0000 -0.5859403488
O   O66       1.0  0.76830  0.68052  0.90050  1.0000 -0.5859403488
O   O67       1.0  0.26830  0.81948  0.90050  1.0000 -0.5859403488
O   O68       1.0  0.23170  0.31948  0.09950  1.0000 -0.5813418941
O   O69       1.0  0.95350  0.16733  0.16390  1.0000 -0.5216626849
O   O70       1.0  0.54650  0.66733  0.83610  1.0000 -0.5216626849
O   O71       1.0  0.04650  0.83267  0.83610  1.0000 -0.5216626849
O   O72       1.0  0.45350  0.33267  0.16390  1.0000 -0.5216626849
O   O73       1.0  0.70500  0.66270  0.40270  1.0000 0.0765450596
O   O74       1.0  0.79500  0.16270  0.59730  1.0000 0.0683222288
O   O75       1.0  0.29500  0.33730  0.59730  1.0000 0.0683222288
O   O76       1.0  0.20500  0.83730  0.40270  1.0000 0.0683222288
O   O77       1.0  0.61100  0.94170  0.26090  1.0000 -0.0380353755
O   O78       1.0  0.88900  0.44170  0.73910  1.0000 -0.03163879
O   O79       1.0  0.38900  0.05830  0.73910  1.0000 -0.03163879
O   O80       1.0  0.11100  0.55830  0.26090  1.0000 -0.0380353755
