# DDEC6 charges by PACMAN v1.1 (https://github.com/mtap-research/PACMAN-charge/)
data_2014[Co][nan]3[ASR]26
_chemical_formula_sum              "Co6 H6 C24 O18"
_cell_length_a       15.1133
_cell_length_b       15.1133
_cell_length_c       15.1133
_cell_angle_alpha    117.789
_cell_angle_beta     117.789
_cell_angle_gamma    117.789

_symmetry_space_group_name_H-M    "P 1"
_symmetry_Int_Tables_number       1

loop_
  _symmetry_equiv_pos_as_xyz
  'x, y, z'

loop_
  _atom_site_type_symbol
  _atom_site_label
  _atom_site_symmetry_multiplicity
  _atom_site_fract_x
  _atom_site_fract_y
  _atom_site_fract_z
  _atom_site_occupancy
  _atom_site_charge
Co  Co1       1.0  0.88340  0.18590  0.60470  1.0000 1.0235890273
Co  Co2       1.0  0.18590  0.60470  0.88340  1.0000 1.0235890273
Co  Co3       1.0  0.60470  0.88340  0.18590  1.0000 1.0235890273
Co  Co4       1.0  0.18590  0.88340  0.60470  1.0000 1.0235890273
Co  Co5       1.0  0.88340  0.60470  0.18590  1.0000 1.0235890273
Co  Co6       1.0  0.60470  0.18590  0.88340  1.0000 1.0235890273
H   H1        1.0  0.76290  0.28010  0.76300  1.0000 0.1661548489
H   H2        1.0  0.28010  0.76300  0.76290  1.0000 0.1661548489
H   H3        1.0  0.76300  0.76290  0.28010  1.0000 0.1661548489
H   H4        1.0  0.47190  0.89610  0.47200  1.0000 0.1248994717
H   H5        1.0  0.89610  0.47200  0.47190  1.0000 0.1248994717
H   H6        1.0  0.47200  0.47190  0.89610  1.0000 0.1248994717
C   C1        1.0  0.05280  0.49220  0.96000  1.0000 0.3716076338
C   C2        1.0  0.49220  0.96000  0.05280  1.0000 0.3716076338
C   C3        1.0  0.96000  0.05280  0.49220  1.0000 0.3716076338
C   C4        1.0  0.49220  0.05280  0.96000  1.0000 0.3716076338
C   C5        1.0  0.05280  0.96000  0.49220  1.0000 0.3716076338
C   C6        1.0  0.96000  0.49220  0.05280  1.0000 0.3716076338
C   C7        1.0  0.91620  0.41460  0.91620  1.0000 -0.3517364538
C   C8        1.0  0.41460  0.91620  0.91620  1.0000 -0.3517364538
C   C9        1.0  0.91620  0.91620  0.41460  1.0000 -0.3517364538
C   C10       1.0  0.27110  0.68580  0.17630  1.0000 -0.2119725125
C   C11       1.0  0.68580  0.17630  0.27110  1.0000 -0.2119725125
C   C12       1.0  0.17630  0.27110  0.68580  1.0000 -0.2119725125
C   C13       1.0  0.68580  0.27110  0.17630  1.0000 -0.2119725125
C   C14       1.0  0.27110  0.17630  0.68580  1.0000 -0.2119725125
C   C15       1.0  0.17630  0.68580  0.27110  1.0000 -0.2119725125
C   C16       1.0  0.43810  0.79590  0.25230  1.0000 0.6277358655
C   C17       1.0  0.79590  0.25230  0.43810  1.0000 0.6277358655
C   C18       1.0  0.25230  0.43810  0.79590  1.0000 0.6277358655
C   C19       1.0  0.79590  0.43810  0.25230  1.0000 0.6277358655
C   C20       1.0  0.43810  0.25230  0.79590  1.0000 0.6277358655
C   C21       1.0  0.25230  0.79590  0.43810  1.0000 0.6277358655
C   C22       1.0  0.31680  0.75930  0.31690  1.0000 -0.0505924798
C   C23       1.0  0.75930  0.31690  0.31680  1.0000 -0.0505924798
C   C24       1.0  0.31690  0.31680  0.75930  1.0000 -0.0505924798
O   O1        1.0  0.00590  0.42280  0.82430  1.0000 -0.6088820375
O   O2        1.0  0.42280  0.82430  0.00590  1.0000 -0.6088820375
O   O3        1.0  0.82430  0.00590  0.42280  1.0000 -0.6088820375
O   O4        1.0  0.42280  0.00590  0.82430  1.0000 -0.6088820375
O   O5        1.0  0.00590  0.82430  0.42280  1.0000 -0.6088820375
O   O6        1.0  0.82430  0.42280  0.00590  1.0000 -0.6088820375
O   O7        1.0  0.40370  0.74480  0.12900  1.0000 -0.6168364461
O   O8        1.0  0.74480  0.12900  0.40370  1.0000 -0.6168364461
O   O9        1.0  0.12900  0.40370  0.74480  1.0000 -0.6168364461
O   O10       1.0  0.74480  0.40370  0.12900  1.0000 -0.6168364461
O   O11       1.0  0.40370  0.12900  0.74480  1.0000 -0.6168364461
O   O12       1.0  0.12900  0.74480  0.40370  1.0000 -0.6168364461
O   O13       1.0  0.61440  0.94190  0.43730  1.0000 -0.529604224
O   O14       1.0  0.94190  0.43730  0.61440  1.0000 -0.529604224
O   O15       1.0  0.43730  0.61440  0.94190  1.0000 -0.529604224
O   O16       1.0  0.94190  0.61440  0.43730  1.0000 -0.529604224
O   O17       1.0  0.61440  0.43730  0.94190  1.0000 -0.529604224
O   O18       1.0  0.43730  0.94190  0.61440  1.0000 -0.529604224
