# DDEC6 charges by PACMAN v1.1 (https://github.com/mtap-research/PACMAN-charge/)
data_2014[Zn][dia]3[ASR]12
_chemical_formula_sum              "Zn2 H12 C8 N16"
_cell_length_a       9.48362
_cell_length_b       9.48362
_cell_length_c       9.2766
_cell_angle_alpha    67.2201
_cell_angle_beta     112.78
_cell_angle_gamma    86.4417

_symmetry_space_group_name_H-M    "P 1"
_symmetry_Int_Tables_number       1

loop_
  _symmetry_equiv_pos_as_xyz
  'x, y, z'

loop_
  _atom_site_type_symbol
  _atom_site_label
  _atom_site_symmetry_multiplicity
  _atom_site_fract_x
  _atom_site_fract_y
  _atom_site_fract_z
  _atom_site_occupancy
  _atom_site_charge
Zn  Zn1       1.0  0.42976  0.87068  0.61682  1.0000 0.6702422769
Zn  Zn2       1.0  0.12932  0.57024  0.11682  1.0000 0.6702422769
H   H1        1.0  0.94370  0.91350  0.87180  1.0000 0.1595146887
H   H2        1.0  0.08650  0.05630  0.37180  1.0000 0.1595146887
H   H3        1.0  0.81120  0.97800  0.67950  1.0000 0.1687267822
H   H4        1.0  0.02200  0.18880  0.17950  1.0000 0.1687267822
H   H5        1.0  0.77020  0.98940  0.82370  1.0000 0.1687267822
H   H6        1.0  0.01060  0.22980  0.32370  1.0000 0.1687267822
H   H7        1.0  0.40490  0.52370  0.67110  1.0000 0.1595146887
H   H8        1.0  0.47630  0.59510  0.17110  1.0000 0.1595146887
H   H9        1.0  0.25330  0.48210  0.56590  1.0000 0.1687267822
H   H10       1.0  0.51790  0.74670  0.06590  1.0000 0.1687267822
H   H11       1.0  0.41280  0.43340  0.56320  1.0000 0.1687267822
H   H12       1.0  0.56660  0.58720  0.06320  1.0000 0.1687267822
C   C1        1.0  0.79820  0.76840  0.84280  1.0000 0.3743113548
C   C2        1.0  0.23160  0.20180  0.34280  1.0000 0.3743113548
C   C3        1.0  0.30570  0.66870  0.40850  1.0000 0.3509829313
C   C4        1.0  0.33130  0.69430  0.90850  1.0000 0.3509829313
C   C5        1.0  0.83400  0.92640  0.80070  1.0000 -0.4842545121
C   C6        1.0  0.07360  0.16600  0.30070  1.0000 -0.4842545121
C   C7        1.0  0.34810  0.51270  0.56660  1.0000 -0.4901717185
C   C8        1.0  0.48730  0.65190  0.06660  1.0000 -0.4901717185
N   N1        1.0  0.89900  0.63380  0.95610  1.0000 -0.2728116442
N   N2        1.0  0.36620  0.10100  0.45610  1.0000 -0.2728116442
N   N3        1.0  0.65380  0.74500  0.76760  1.0000 -0.2728116442
N   N4        1.0  0.25500  0.34620  0.26760  1.0000 -0.2728116442
N   N5        1.0  0.21810  0.84890  0.14650  1.0000 -0.0919207699
N   N6        1.0  0.15110  0.78190  0.64650  1.0000 -0.0919207699
N   N7        1.0  0.34620  0.79740  0.41980  1.0000 -0.2611314982
N   N8        1.0  0.20260  0.65380  0.91980  1.0000 -0.2611314982
N   N9        1.0  0.28610  0.90930  0.25120  1.0000 -0.0800669223
N   N10       1.0  0.09070  0.71390  0.75120  1.0000 -0.0800669223
N   N11       1.0  0.81790  0.51750  0.95310  1.0000 -0.0919207699
N   N12       1.0  0.48250  0.18210  0.45310  1.0000 -0.0919207699
N   N13       1.0  0.22550  0.69550  0.24330  1.0000 -0.2728116442
N   N14       1.0  0.30450  0.77450  0.74330  1.0000 -0.2728116442
N   N15       1.0  0.67240  0.58500  0.83880  1.0000 -0.0715719453
N   N16       1.0  0.41500  0.32760  0.33880  1.0000 -0.0715719453
