# DDEC6 charges by PACMAN v1.1 (https://github.com/mtap-research/PACMAN-charge/)
data_2014[Co][nan]3[ASR]11
_chemical_formula_sum              "Co6 H52 C56 N40 O4"
_cell_length_a       6.6673
_cell_length_b       21.2751
_cell_length_c       13.3321
_cell_angle_alpha    90
_cell_angle_beta     106.734
_cell_angle_gamma    90

_symmetry_space_group_name_H-M    "P 1"
_symmetry_Int_Tables_number       1

loop_
  _symmetry_equiv_pos_as_xyz
  'x, y, z'

loop_
  _atom_site_type_symbol
  _atom_site_label
  _atom_site_symmetry_multiplicity
  _atom_site_fract_x
  _atom_site_fract_y
  _atom_site_fract_z
  _atom_site_occupancy
  _atom_site_charge
Co  Co1       1.0  0.50000  0.50000  0.00000  1.0000 0.71186456
Co  Co2       1.0  0.50000  0.00000  0.50000  1.0000 0.71186456
Co  Co3       1.0  0.02905  0.56695  0.04656  1.0000 0.6979489169
Co  Co4       1.0  0.97095  0.06695  0.45344  1.0000 0.6979489169
Co  Co5       1.0  0.97095  0.43305  0.95344  1.0000 0.6979489169
Co  Co6       1.0  0.02905  0.93305  0.54656  1.0000 0.6979489169
H   H1        1.0  0.12530  0.52490  0.89130  1.0000 0.3434080175
H   H2        1.0  0.87470  0.02490  0.60870  1.0000 0.3434080175
H   H3        1.0  0.87470  0.47510  0.10870  1.0000 0.3434080175
H   H4        1.0  0.12530  0.97510  0.39130  1.0000 0.3434080175
H   H5        1.0  0.90740  0.60130  0.78040  1.0000 0.2873068493
H   H6        1.0  0.09260  0.10130  0.71960  1.0000 0.2873068493
H   H7        1.0  0.09260  0.39870  0.21960  1.0000 0.2873068493
H   H8        1.0  0.90740  0.89870  0.28040  1.0000 0.2873068493
H   H9        1.0  0.11850  0.58970  0.75850  1.0000 0.2873068493
H   H10       1.0  0.88150  0.08970  0.74150  1.0000 0.2873068493
H   H11       1.0  0.88150  0.41030  0.24150  1.0000 0.2873068493
H   H12       1.0  0.11850  0.91030  0.25850  1.0000 0.2873068493
H   H13       1.0  0.26320  0.85380  0.47920  1.0000 0.262442994
H   H14       1.0  0.73680  0.35380  0.02080  1.0000 0.262442994
H   H15       1.0  0.73680  0.14620  0.52080  1.0000 0.262442994
H   H16       1.0  0.26320  0.64620  0.97920  1.0000 0.262442994
H   H17       1.0  0.06840  0.82610  0.47140  1.0000 0.262442994
H   H18       1.0  0.93160  0.32610  0.02860  1.0000 0.262442994
H   H19       1.0  0.93160  0.17390  0.52860  1.0000 0.262442994
H   H20       1.0  0.06840  0.67390  0.97140  1.0000 0.262442994
H   H21       1.0  0.57700  0.58590  0.64800  1.0000 0.128030683
H   H22       1.0  0.42300  0.08590  0.85200  1.0000 0.128030683
H   H23       1.0  0.42300  0.41410  0.35200  1.0000 0.128030683
H   H24       1.0  0.57700  0.91410  0.14800  1.0000 0.128030683
H   H25       1.0  0.13300  0.57700  0.58310  1.0000 0.128030683
H   H26       1.0  0.86700  0.07700  0.91690  1.0000 0.128030683
H   H27       1.0  0.86700  0.42300  0.41690  1.0000 0.128030683
H   H28       1.0  0.13300  0.92300  0.08310  1.0000 0.128030683
H   H29       1.0  0.40260  0.57830  0.47030  1.0000 0.1205556794
H   H30       1.0  0.59740  0.07830  0.02970  1.0000 0.1205556794
H   H31       1.0  0.59740  0.42170  0.52970  1.0000 0.1205556794
H   H32       1.0  0.40260  0.92170  0.97030  1.0000 0.1205556794
H   H33       1.0  0.95850  0.56830  0.40550  1.0000 0.1205556794
H   H34       1.0  0.04150  0.06830  0.09450  1.0000 0.1205556794
H   H35       1.0  0.04150  0.43170  0.59450  1.0000 0.1205556794
H   H36       1.0  0.95850  0.93170  0.90550  1.0000 0.1205556794
H   H37       1.0  0.72520  0.75210  0.74290  1.0000 0.1205556794
H   H38       1.0  0.27480  0.25210  0.75710  1.0000 0.1205556794
H   H39       1.0  0.27480  0.24790  0.25710  1.0000 0.1205556794
H   H40       1.0  0.72520  0.74790  0.24290  1.0000 0.1205556794
H   H41       1.0  0.14690  0.69520  0.74490  1.0000 0.110249675
H   H42       1.0  0.85310  0.19520  0.75510  1.0000 0.110249675
H   H43       1.0  0.85310  0.30480  0.25510  1.0000 0.110249675
H   H44       1.0  0.14690  0.80480  0.24490  1.0000 0.110249675
H   H45       1.0  0.57530  0.82430  0.61070  1.0000 0.128030683
H   H46       1.0  0.42470  0.32430  0.88930  1.0000 0.128030683
H   H47       1.0  0.42470  0.17570  0.38930  1.0000 0.128030683
H   H48       1.0  0.57530  0.67570  0.11070  1.0000 0.128030683
H   H49       1.0  0.99640  0.76610  0.61140  1.0000 0.128030683
H   H50       1.0  0.00360  0.26610  0.88860  1.0000 0.128030683
H   H51       1.0  0.00360  0.23390  0.38860  1.0000 0.128030683
H   H52       1.0  0.99640  0.73390  0.11140  1.0000 0.128030683
C   C1        1.0  0.87377  0.58029  0.63417  1.0000 0.2873068493
C   C2        1.0  0.12623  0.08029  0.86583  1.0000 0.2873068493
C   C3        1.0  0.12623  0.41971  0.36583  1.0000 0.2873068493
C   C4        1.0  0.87377  0.91971  0.13417  1.0000 0.2873068493
C   C5        1.0  0.65501  0.58174  0.59891  1.0000 -0.203383685
C   C6        1.0  0.34499  0.08174  0.90109  1.0000 -0.203383685
C   C7        1.0  0.34499  0.41826  0.40109  1.0000 -0.203383685
C   C8        1.0  0.65501  0.91826  0.09891  1.0000 -0.203383685
C   C9        1.0  0.98424  0.57632  0.56054  1.0000 -0.2088532755
C   C10       1.0  0.01576  0.07632  0.93946  1.0000 -0.2088532755
C   C11       1.0  0.01576  0.42368  0.43946  1.0000 -0.2088532755
C   C12       1.0  0.98424  0.92368  0.06054  1.0000 -0.2088532755
C   C13       1.0  0.55129  0.57715  0.49309  1.0000 -0.1080363644
C   C14       1.0  0.44871  0.07715  0.00691  1.0000 -0.1080363644
C   C15       1.0  0.44871  0.42285  0.50691  1.0000 -0.1080363644
C   C16       1.0  0.55129  0.92285  0.99309  1.0000 -0.1080363644
C   C17       1.0  0.88020  0.57141  0.45460  1.0000 -0.1080363644
C   C18       1.0  0.11980  0.07141  0.04540  1.0000 -0.1080363644
C   C19       1.0  0.11980  0.42859  0.54540  1.0000 -0.1080363644
C   C20       1.0  0.88020  0.92859  0.95460  1.0000 -0.1080363644
C   C21       1.0  0.66200  0.57091  0.41940  1.0000 0.0200972437
C   C22       1.0  0.33800  0.07091  0.08060  1.0000 0.0200972437
C   C23       1.0  0.33800  0.42909  0.58060  1.0000 0.0200972437
C   C24       1.0  0.66200  0.92909  0.91940  1.0000 0.0200972437
C   C25       1.0  0.55239  0.56099  0.30869  1.0000 0.2314176998
C   C26       1.0  0.44761  0.06099  0.19131  1.0000 0.2314176998
C   C27       1.0  0.44761  0.43901  0.69131  1.0000 0.2314176998
C   C28       1.0  0.55239  0.93901  0.80869  1.0000 0.2314176998
C   C29       1.0  0.54134  0.66605  0.83304  1.0000 0.2478436819
C   C30       1.0  0.45866  0.16605  0.66696  1.0000 0.2478436819
C   C31       1.0  0.45866  0.33395  0.16696  1.0000 0.2478436819
C   C32       1.0  0.54134  0.83395  0.33304  1.0000 0.2478436819
C   C33       1.0  0.45151  0.71522  0.75541  1.0000 0.0130556366
C   C34       1.0  0.54849  0.21522  0.74459  1.0000 0.0130556366
C   C35       1.0  0.54849  0.28478  0.24459  1.0000 0.0130556366
C   C36       1.0  0.45151  0.78478  0.25541  1.0000 0.0130556366
C   C37       1.0  0.57716  0.75462  0.71576  1.0000 -0.1080363644
C   C38       1.0  0.42284  0.25462  0.78424  1.0000 -0.1080363644
C   C39       1.0  0.42284  0.24538  0.28424  1.0000 -0.1080363644
C   C40       1.0  0.57716  0.74538  0.21576  1.0000 -0.1080363644
C   C41       1.0  0.23425  0.72077  0.71665  1.0000 -0.118073442
C   C42       1.0  0.76575  0.22077  0.78335  1.0000 -0.118073442
C   C43       1.0  0.76575  0.27923  0.28335  1.0000 -0.118073442
C   C44       1.0  0.23425  0.77923  0.21665  1.0000 -0.118073442
C   C45       1.0  0.48814  0.79749  0.63694  1.0000 -0.190265105
C   C46       1.0  0.51186  0.29749  0.86306  1.0000 -0.190265105
C   C47       1.0  0.51186  0.20251  0.36306  1.0000 -0.190265105
C   C48       1.0  0.48814  0.70251  0.13694  1.0000 -0.190265105
C   C49       1.0  0.14447  0.76306  0.63757  1.0000 -0.203383685
C   C50       1.0  0.85553  0.26306  0.86243  1.0000 -0.203383685
C   C51       1.0  0.85553  0.23694  0.36243  1.0000 -0.203383685
C   C52       1.0  0.14447  0.73694  0.13757  1.0000 -0.203383685
C   C53       1.0  0.27135  0.80112  0.59645  1.0000 0.2795009754
C   C54       1.0  0.72865  0.30112  0.90355  1.0000 0.2795009754
C   C55       1.0  0.72865  0.19888  0.40355  1.0000 0.2795009754
C   C56       1.0  0.27135  0.69888  0.09645  1.0000 0.2795009754
N   N1        1.0  0.97793  0.58064  0.74153  1.0000 -0.6028772303
N   N2        1.0  0.02207  0.08064  0.75847  1.0000 -0.6028772303
N   N3        1.0  0.02207  0.41936  0.25847  1.0000 -0.6028772303
N   N4        1.0  0.97793  0.91936  0.24153  1.0000 -0.6028772303
N   N5        1.0  0.34278  0.56393  0.26698  1.0000 -0.2675748675
N   N6        1.0  0.65722  0.06393  0.23302  1.0000 -0.2675748675
N   N7        1.0  0.65722  0.43607  0.73302  1.0000 -0.2675748675
N   N8        1.0  0.34278  0.93607  0.76698  1.0000 -0.2675748675
N   N9        1.0  0.30800  0.54858  0.16660  1.0000 -0.0610418473
N   N10       1.0  0.69200  0.04858  0.33340  1.0000 -0.0610418473
N   N11       1.0  0.69200  0.45142  0.83340  1.0000 -0.0610418473
N   N12       1.0  0.30800  0.95142  0.66667  1.0000 -0.0610418473
N   N13       1.0  0.64553  0.54462  0.23523  1.0000 -0.2675748675
N   N14       1.0  0.35447  0.04462  0.26477  1.0000 -0.2675748675
N   N15       1.0  0.35447  0.45538  0.76477  1.0000 -0.2675748675
N   N16       1.0  0.64553  0.95538  0.73523  1.0000 -0.2675748675
N   N17       1.0  0.49167  0.53847  0.14637  1.0000 -0.0685560619
N   N18       1.0  0.50833  0.03847  0.35363  1.0000 -0.0685560619
N   N19       1.0  0.50833  0.46153  0.85363  1.0000 -0.0685560619
N   N20       1.0  0.49167  0.96153  0.64637  1.0000 -0.0685560619
N   N21       1.0  0.75477  0.60539  0.93897  1.0000 -0.0610418473
N   N22       1.0  0.24523  0.10539  0.56103  1.0000 -0.0610418473
N   N23       1.0  0.24523  0.39461  0.06103  1.0000 -0.0610418473
N   N24       1.0  0.75477  0.89461  0.43897  1.0000 -0.0610418473
N   N25       1.0  0.56392  0.58591  0.93142  1.0000 -0.0410917783
N   N26       1.0  0.43608  0.08591  0.56858  1.0000 -0.0410917783
N   N27       1.0  0.43608  0.41409  0.06858  1.0000 -0.0410917783
N   N28       1.0  0.56392  0.91409  0.43142  1.0000 -0.0410917783
N   N29       1.0  0.74640  0.65639  0.87800  1.0000 -0.290034444
N   N30       1.0  0.25360  0.15639  0.62200  1.0000 -0.290034444
N   N31       1.0  0.25360  0.34361  0.12200  1.0000 -0.290034444
N   N32       1.0  0.74640  0.84361  0.37800  1.0000 -0.290034444
N   N33       1.0  0.42474  0.62281  0.86454  1.0000 -0.2675748675
N   N34       1.0  0.57526  0.12281  0.63546  1.0000 -0.2675748675
N   N35       1.0  0.57526  0.37719  0.13546  1.0000 -0.2675748675
N   N36       1.0  0.42474  0.87719  0.36454  1.0000 -0.2675748675
N   N37       1.0  0.17452  0.84430  0.51442  1.0000 -0.5939824888
N   N38       1.0  0.82548  0.34430  0.98558  1.0000 -0.5939824888
N   N39       1.0  0.82548  0.15570  0.48558  1.0000 -0.5939824888
N   N40       1.0  0.17452  0.65570  0.01442  1.0000 -0.5939824888
O   O1        1.0  0.16329  0.51220  0.94987  1.0000 -0.7906318465
O   O2        1.0  0.83671  0.01220  0.55013  1.0000 -0.7906318465
O   O3        1.0  0.83671  0.48780  0.05013  1.0000 -0.7906318465
O   O4        1.0  0.16329  0.98780  0.44987  1.0000 -0.7906318465
