# DDEC6 charges by PACMAN v1.1 (https://github.com/mtap-research/PACMAN-charge/)
data_2014[Co][nan]3[ASR]6
_chemical_formula_sum              "Co6 H6 C24 O18"
_cell_length_a       15.1252
_cell_length_b       15.1252
_cell_length_c       15.1252
_cell_angle_alpha    117.766
_cell_angle_beta     117.766
_cell_angle_gamma    117.766

_symmetry_space_group_name_H-M    "P 1"
_symmetry_Int_Tables_number       1

loop_
  _symmetry_equiv_pos_as_xyz
  'x, y, z'

loop_
  _atom_site_type_symbol
  _atom_site_label
  _atom_site_symmetry_multiplicity
  _atom_site_fract_x
  _atom_site_fract_y
  _atom_site_fract_z
  _atom_site_occupancy
  _atom_site_charge
Co  Co1       1.0  0.10020  0.51460  0.78420  1.0000 0.9565832606
Co  Co2       1.0  0.51460  0.78420  0.10020  1.0000 0.9565832606
Co  Co3       1.0  0.78420  0.10020  0.51460  1.0000 0.9565832606
Co  Co4       1.0  0.89980  0.48540  0.21580  1.0000 0.9565832606
Co  Co5       1.0  0.48540  0.21580  0.89980  1.0000 0.9565832606
Co  Co6       1.0  0.21580  0.89980  0.48540  1.0000 0.9565832606
H   H1        1.0  0.65720  0.18760  0.63320  1.0000 0.1444617154
H   H2        1.0  0.18760  0.63320  0.65720  1.0000 0.1444617154
H   H3        1.0  0.63320  0.65720  0.18760  1.0000 0.1444617154
H   H4        1.0  0.34280  0.81240  0.36680  1.0000 0.1444617154
H   H5        1.0  0.81240  0.36680  0.34280  1.0000 0.1444617154
H   H6        1.0  0.36680  0.34280  0.81240  1.0000 0.1444617154
C   C1        1.0  0.35800  0.74400  0.18050  1.0000 0.6281542571
C   C2        1.0  0.74400  0.18050  0.35800  1.0000 0.6281542571
C   C3        1.0  0.18050  0.35800  0.74400  1.0000 0.6281542571
C   C4        1.0  0.64200  0.25600  0.81950  1.0000 0.6281542571
C   C5        1.0  0.25600  0.81950  0.64200  1.0000 0.6281542571
C   C6        1.0  0.81950  0.64200  0.25600  1.0000 0.6281542571
C   C7        1.0  0.16590  0.61810  0.07970  1.0000 -0.148491001
C   C8        1.0  0.61810  0.07970  0.16590  1.0000 -0.148491001
C   C9        1.0  0.07970  0.16590  0.61810  1.0000 -0.148491001
C   C10       1.0  0.83410  0.38190  0.92030  1.0000 -0.148491001
C   C11       1.0  0.38190  0.92030  0.83410  1.0000 -0.148491001
C   C12       1.0  0.92030  0.83410  0.38190  1.0000 -0.148491001
C   C13       1.0  0.96730  0.43640  0.86360  1.0000 0.3386312615
C   C14       1.0  0.43640  0.86360  0.96730  1.0000 0.3386312615
C   C15       1.0  0.86360  0.96730  0.43640  1.0000 0.3386312615
C   C16       1.0  0.03270  0.56360  0.13640  1.0000 0.3386312615
C   C17       1.0  0.56360  0.13640  0.03270  1.0000 0.3386312615
C   C18       1.0  0.13640  0.03270  0.56360  1.0000 0.3386312615
C   C19       1.0  0.80130  0.32380  0.79120  1.0000 -0.2061021063
C   C20       1.0  0.32380  0.79120  0.80130  1.0000 -0.2061021063
C   C21       1.0  0.79120  0.80130  0.32380  1.0000 -0.2061021063
C   C22       1.0  0.19870  0.67620  0.20880  1.0000 -0.2061021063
C   C23       1.0  0.67620  0.20880  0.19870  1.0000 -0.2061021063
C   C24       1.0  0.20880  0.19870  0.67620  1.0000 -0.2061021063
O   O1        1.0  0.34330  0.69800  0.07470  1.0000 -0.6002782691
O   O2        1.0  0.69800  0.07470  0.34330  1.0000 -0.6002782691
O   O3        1.0  0.07470  0.34330  0.69800  1.0000 -0.6002782691
O   O4        1.0  0.65670  0.30200  0.92530  1.0000 -0.6002782691
O   O5        1.0  0.30200  0.92530  0.65670  1.0000 -0.6002782691
O   O6        1.0  0.92530  0.65670  0.30200  1.0000 -0.6002782691
O   O7        1.0  0.52640  0.90330  0.37360  1.0000 -0.5411701707
O   O8        1.0  0.90330  0.37360  0.52640  1.0000 -0.5411701707
O   O9        1.0  0.37360  0.52640  0.90330  1.0000 -0.5411701707
O   O10       1.0  0.47360  0.09670  0.62640  1.0000 -0.5411701707
O   O11       1.0  0.09670  0.62640  0.47360  1.0000 -0.5411701707
O   O12       1.0  0.62640  0.47360  0.09670  1.0000 -0.5411701707
O   O13       1.0  0.92250  0.36090  0.73070  1.0000 -0.5717889476
O   O14       1.0  0.36090  0.73070  0.92250  1.0000 -0.5717889476
O   O15       1.0  0.73070  0.92250  0.36090  1.0000 -0.5717889476
O   O16       1.0  0.07750  0.63910  0.26930  1.0000 -0.5717889476
O   O17       1.0  0.63910  0.26930  0.07750  1.0000 -0.5717889476
O   O18       1.0  0.26930  0.07750  0.63910  1.0000 -0.5717889476
