# DDEC6 charges by PACMAN v1.1 (https://github.com/mtap-research/PACMAN-charge/)
data_2014[Co][bcg]3[ASR]1
_chemical_formula_sum              "Co6 H32 C64 O32"
_cell_length_a       17.2343
_cell_length_b       17.2343
_cell_length_c       18.513
_cell_angle_alpha    87.164
_cell_angle_beta     92.836
_cell_angle_gamma    147.517

_symmetry_space_group_name_H-M    "P 1"
_symmetry_Int_Tables_number       1

loop_
  _symmetry_equiv_pos_as_xyz
  'x, y, z'

loop_
  _atom_site_type_symbol
  _atom_site_label
  _atom_site_symmetry_multiplicity
  _atom_site_fract_x
  _atom_site_fract_y
  _atom_site_fract_z
  _atom_site_occupancy
  _atom_site_charge
Co  Co1       1.0  0.55232  0.85644  0.51419  1.0000 0.9745254448
Co  Co2       1.0  0.85644  0.55232  0.98581  1.0000 0.9745254448
Co  Co3       1.0  0.44768  0.14356  0.48581  1.0000 0.9767831495
Co  Co4       1.0  0.14356  0.44768  0.01419  1.0000 0.9767831495
Co  Co5       1.0  0.50000  0.00000  0.50000  1.0000 1.0724676779
Co  Co6       1.0  0.00000  0.50000  0.00000  1.0000 1.0724676779
H   H1        1.0  0.18870  0.67990  0.41880  1.0000 0.1233630148
H   H2        1.0  0.67990  0.18870  0.08120  1.0000 0.1233630148
H   H3        1.0  0.81130  0.32010  0.58120  1.0000 0.1233630148
H   H4        1.0  0.32010  0.81130  0.91880  1.0000 0.1233630148
H   H5        1.0  0.04540  0.47980  0.61540  1.0000 0.1233630148
H   H6        1.0  0.47980  0.04540  0.88460  1.0000 0.1233630148
H   H7        1.0  0.95460  0.52020  0.38460  1.0000 0.1233630148
H   H8        1.0  0.52020  0.95460  0.11540  1.0000 0.1233630148
H   H9        1.0  0.65010  0.14930  0.71510  1.0000 0.1369922539
H   H10       1.0  0.14930  0.65010  0.78490  1.0000 0.1369922539
H   H11       1.0  0.34990  0.85070  0.28490  1.0000 0.1369922539
H   H12       1.0  0.85070  0.34990  0.21510  1.0000 0.1369922539
H   H13       1.0  0.76460  0.26160  0.82650  1.0000 0.1304422883
H   H14       1.0  0.26160  0.76460  0.67350  1.0000 0.1304422883
H   H15       1.0  0.23540  0.73840  0.17350  1.0000 0.1304422883
H   H16       1.0  0.73840  0.23540  0.32650  1.0000 0.1304422883
H   H17       1.0  0.83790  0.09890  0.69980  1.0000 0.1369922539
H   H18       1.0  0.09890  0.83790  0.80020  1.0000 0.1369922539
H   H19       1.0  0.16210  0.90110  0.30020  1.0000 0.1369922539
H   H20       1.0  0.90110  0.16210  0.19980  1.0000 0.1369922539
H   H21       1.0  0.95000  0.20700  0.81140  1.0000 0.1369922539
H   H22       1.0  0.20700  0.95000  0.68860  1.0000 0.1369922539
H   H23       1.0  0.05000  0.79300  0.18860  1.0000 0.1369922539
H   H24       1.0  0.79300  0.05000  0.31140  1.0000 0.1369922539
H   H25       1.0  0.72420  0.73300  0.54230  1.0000 0.1304422883
H   H26       1.0  0.73300  0.72420  0.95770  1.0000 0.1304422883
H   H27       1.0  0.27580  0.26700  0.45770  1.0000 0.1304422883
H   H28       1.0  0.26700  0.27580  0.04230  1.0000 0.1304422883
H   H29       1.0  0.32890  0.44730  0.46560  1.0000 0.1304422883
H   H30       1.0  0.44730  0.32890  0.03440  1.0000 0.1304422883
H   H31       1.0  0.67110  0.55270  0.53440  1.0000 0.1304422883
H   H32       1.0  0.55270  0.67110  0.96560  1.0000 0.1304422883
C   C1        1.0  0.13979  0.59481  0.51999  1.0000 0.005848425
C   C2        1.0  0.59481  0.13979  0.98001  1.0000 0.005848425
C   C3        1.0  0.86021  0.40519  0.48001  1.0000 0.003249354
C   C4        1.0  0.40519  0.86021  0.01999  1.0000 0.005848425
C   C5        1.0  0.94101  0.31319  0.90334  1.0000 0.5943401685
C   C6        1.0  0.31319  0.94101  0.59666  1.0000 0.5943401685
C   C7        1.0  0.05899  0.68681  0.09666  1.0000 0.5943401685
C   C8        1.0  0.68681  0.05899  0.40334  1.0000 0.5943401685
C   C9        1.0  0.11172  0.60648  0.45162  1.0000 -0.0924705757
C   C10       1.0  0.60648  0.11172  0.04838  1.0000 -0.0924705757
C   C11       1.0  0.88828  0.39352  0.54838  1.0000 -0.0924705757
C   C12       1.0  0.39352  0.88828  0.95162  1.0000 -0.0924705757
C   C13       1.0  0.65612  0.04108  0.62541  1.0000 0.5981000444
C   C14       1.0  0.04108  0.65612  0.87459  1.0000 0.5981000444
C   C15       1.0  0.34388  0.95892  0.37459  1.0000 0.5981000444
C   C16       1.0  0.95892  0.34388  0.12541  1.0000 0.5981000444
C   C17       1.0  0.28843  0.69217  0.54051  1.0000 0.5767021408
C   C18       1.0  0.69217  0.28843  0.95949  1.0000 0.5767021408
C   C19       1.0  0.71157  0.30783  0.45949  1.0000 0.5767021408
C   C20       1.0  0.30783  0.71157  0.04051  1.0000 0.5767021408
C   C21       1.0  0.86996  0.24544  0.83043  1.0000 0.003249354
C   C22       1.0  0.24544  0.86996  0.66957  1.0000 0.003249354
C   C23       1.0  0.13004  0.75456  0.16957  1.0000 0.003249354
C   C24       1.0  0.75456  0.13004  0.33043  1.0000 0.003249354
C   C25       1.0  0.73113  0.11407  0.69692  1.0000 -0.0072327912
C   C26       1.0  0.11407  0.73113  0.80308  1.0000 -0.0072327912
C   C27       1.0  0.26887  0.88593  0.30308  1.0000 -0.0072327912
C   C28       1.0  0.88593  0.26887  0.19692  1.0000 -0.0072327912
C   C29       1.0  0.02701  0.48779  0.56868  1.0000 -0.0978964108
C   C30       1.0  0.48779  0.02701  0.93132  1.0000 -0.0978964108
C   C31       1.0  0.97299  0.51221  0.43132  1.0000 -0.0978964108
C   C32       1.0  0.51221  0.97299  0.06868  1.0000 -0.0978964108
C   C33       1.0  0.71206  0.16154  0.73459  1.0000 -0.0924705757
C   C34       1.0  0.16154  0.71206  0.76541  1.0000 -0.0924705757
C   C35       1.0  0.28794  0.83846  0.26541  1.0000 -0.0924705757
C   C36       1.0  0.83846  0.28794  0.23459  1.0000 -0.0978964108
C   C37       1.0  0.77968  0.22832  0.80129  1.0000 -0.0816429028
C   C38       1.0  0.22832  0.77968  0.69871  1.0000 -0.0816429028
C   C39       1.0  0.22032  0.77168  0.19871  1.0000 -0.0816429028
C   C40       1.0  0.77168  0.22032  0.30129  1.0000 -0.0816429028
C   C41       1.0  0.82257  0.13143  0.72572  1.0000 -0.0924705757
C   C42       1.0  0.13143  0.82257  0.77428  1.0000 -0.0924705757
C   C43       1.0  0.17743  0.86857  0.27428  1.0000 -0.0924705757
C   C44       1.0  0.86857  0.17743  0.22572  1.0000 -0.0924705757
C   C45       1.0  0.88925  0.19615  0.79185  1.0000 -0.0978964108
C   C46       1.0  0.19615  0.88925  0.70815  1.0000 -0.0978964108
C   C47       1.0  0.11075  0.80385  0.20815  1.0000 -0.0978964108
C   C48       1.0  0.80385  0.11075  0.29185  1.0000 -0.0978964108
C   C49       1.0  0.55822  0.71458  0.51140  1.0000 0.5403464517
C   C50       1.0  0.71458  0.55822  0.98860  1.0000 0.5403464517
C   C51       1.0  0.44178  0.28542  0.48860  1.0000 0.5403464517
C   C52       1.0  0.28542  0.44178  0.01140  1.0000 0.5403464517
C   C53       1.0  0.52940  0.60440  0.50490  1.0000 -0.0026256235
C   C54       1.0  0.60440  0.52940  0.99510  1.0000 0.003249354
C   C55       1.0  0.47060  0.39560  0.49510  1.0000 0.003249354
C   C56       1.0  0.39560  0.47060  0.00490  1.0000 -0.0026256235
C   C57       1.0  0.63252  0.63928  0.52510  1.0000 -0.0924705757
C   C58       1.0  0.63928  0.63252  0.97490  1.0000 -0.0924705757
C   C59       1.0  0.36748  0.36072  0.47490  1.0000 -0.0978964108
C   C60       1.0  0.36072  0.36748  0.02510  1.0000 -0.0924705757
C   C61       1.0  0.40051  0.47049  0.48020  1.0000 -0.0816429028
C   C62       1.0  0.47049  0.40051  0.01980  1.0000 -0.0816429028
C   C63       1.0  0.59949  0.52951  0.51980  1.0000 -0.0816429028
C   C64       1.0  0.52951  0.59949  0.98020  1.0000 -0.0816429028
O   O1        1.0  0.59250  0.04476  0.59808  1.0000 -0.547786347
O   O2        1.0  0.04476  0.59250  0.90192  1.0000 -0.547786347
O   O3        1.0  0.40750  0.95524  0.40192  1.0000 -0.547786347
O   O4        1.0  0.95524  0.40750  0.09808  1.0000 -0.547786347
O   O5        1.0  0.39075  0.79745  0.49595  1.0000 -0.6052923272
O   O6        1.0  0.79745  0.39075  0.00405  1.0000 -0.6031065056
O   O7        1.0  0.60925  0.20255  0.50405  1.0000 -0.6052923272
O   O8        1.0  0.20255  0.60925  0.99595  1.0000 -0.6052923272
O   O9        1.0  0.66591  0.98325  0.59858  1.0000 -0.5201672484
O   O10       1.0  0.98325  0.66591  0.90142  1.0000 -0.5201672484
O   O11       1.0  0.33409  0.01675  0.40142  1.0000 -0.5201672484
O   O12       1.0  0.01675  0.33409  0.09858  1.0000 -0.5201672484
O   O13       1.0  0.90062  0.33308  0.94055  1.0000 -0.5646024118
O   O14       1.0  0.33308  0.90062  0.55945  1.0000 -0.5646024118
O   O15       1.0  0.09938  0.66692  0.05945  1.0000 -0.5646024118
O   O16       1.0  0.66692  0.09938  0.44055  1.0000 -0.5646024118
O   O17       1.0  0.03612  0.34388  0.92191  1.0000 -0.5201672484
O   O18       1.0  0.34388  0.03612  0.57809  1.0000 -0.5201672484
O   O19       1.0  0.96388  0.65612  0.07809  1.0000 -0.5149449179
O   O20       1.0  0.65612  0.96388  0.42191  1.0000 -0.5149449179
O   O21       1.0  0.45692  0.67128  0.50177  1.0000 -0.4488594005
O   O22       1.0  0.67128  0.45692  0.99823  1.0000 -0.4488594005
O   O23       1.0  0.54308  0.32872  0.49823  1.0000 -0.4488594005
O   O24       1.0  0.32872  0.54308  0.00177  1.0000 -0.4488594005
O   O25       1.0  0.31022  0.66812  0.59614  1.0000 -0.5031628082
O   O26       1.0  0.66812  0.31022  0.90386  1.0000 -0.5031628082
O   O27       1.0  0.68978  0.33188  0.40386  1.0000 -0.5031628082
O   O28       1.0  0.33188  0.68978  0.09614  1.0000 -0.5031628082
O   O29       1.0  0.68229  0.84031  0.52669  1.0000 -0.4333796645
O   O30       1.0  0.84031  0.68229  0.97331  1.0000 -0.4333796645
O   O31       1.0  0.31771  0.15969  0.47331  1.0000 -0.4333796645
O   O32       1.0  0.15969  0.31771  0.02669  1.0000 -0.4333796645
