# DDEC6 charges by PACMAN v1.1 (https://github.com/mtap-research/PACMAN-charge/)
data_2014[Co][nan]2[ASR]1
_chemical_formula_sum              "Co4 H72 C108 S8 N20"
_cell_length_a       10.5666
_cell_length_b       19.798
_cell_length_c       16.86
_cell_angle_alpha    90
_cell_angle_beta     100.173
_cell_angle_gamma    90

_symmetry_space_group_name_H-M    "P 1"
_symmetry_Int_Tables_number       1

loop_
  _symmetry_equiv_pos_as_xyz
  'x, y, z'

loop_
  _atom_site_type_symbol
  _atom_site_label
  _atom_site_symmetry_multiplicity
  _atom_site_fract_x
  _atom_site_fract_y
  _atom_site_fract_z
  _atom_site_occupancy
  _atom_site_charge
Co  Co1       1.0  0.59812  0.07783  0.74052  1.0000 0.7276387699
Co  Co2       1.0  0.90188  0.57783  0.25948  1.0000 0.7243774421
Co  Co3       1.0  0.40188  0.92217  0.25948  1.0000 0.7276387699
Co  Co4       1.0  0.09812  0.42217  0.74052  1.0000 0.7243774421
H   H1        1.0  0.53650  0.19530  0.62110  1.0000 0.1103260924
H   H2        1.0  0.96350  0.69530  0.37890  1.0000 0.1103260924
H   H3        1.0  0.46350  0.80470  0.37890  1.0000 0.1103260924
H   H4        1.0  0.03650  0.30470  0.62110  1.0000 0.1103260924
H   H5        1.0  0.38080  0.23860  0.52200  1.0000 0.1292947685
H   H6        1.0  0.11920  0.73860  0.47800  1.0000 0.1292947685
H   H7        1.0  0.61920  0.76140  0.47800  1.0000 0.1292947685
H   H8        1.0  0.88080  0.26140  0.52200  1.0000 0.1292947685
H   H9        1.0  0.15630  0.08000  0.55150  1.0000 0.1292947685
H   H10       1.0  0.34370  0.58000  0.44850  1.0000 0.1292947685
H   H11       1.0  0.84370  0.92000  0.44850  1.0000 0.1292947685
H   H12       1.0  0.65630  0.42000  0.55150  1.0000 0.1292947685
H   H13       1.0  0.31900  0.04190  0.65100  1.0000 0.103843728
H   H14       1.0  0.18100  0.54190  0.34900  1.0000 0.103843728
H   H15       1.0  0.68100  0.95810  0.34900  1.0000 0.103843728
H   H16       1.0  0.81900  0.45810  0.65100  1.0000 0.103843728
H   H17       1.0  0.18350  0.29380  0.47180  1.0000 0.1182546168
H   H18       1.0  0.31650  0.79380  0.52820  1.0000 0.1182546168
H   H19       1.0  0.81650  0.70620  0.52820  1.0000 0.1182546168
H   H20       1.0  0.68350  0.20620  0.47180  1.0000 0.1182546168
H   H21       1.0  0.11370  0.06080  0.41910  1.0000 0.1103260924
H   H22       1.0  0.38630  0.56080  0.58090  1.0000 0.1103260924
H   H23       1.0  0.88630  0.93920  0.58090  1.0000 0.1103260924
H   H24       1.0  0.61370  0.43920  0.41910  1.0000 0.1103260924
H   H25       1.0  0.97610  0.00310  0.33250  1.0000 0.1103260924
H   H26       1.0  0.52390  0.50310  0.66750  1.0000 0.1103260924
H   H27       1.0  0.02390  0.99690  0.66750  1.0000 0.1103260924
H   H28       1.0  0.47610  0.49690  0.33250  1.0000 0.1103260924
H   H29       1.0  0.81530  0.03840  0.24540  1.0000 0.1182546168
H   H30       1.0  0.68470  0.53840  0.75460  1.0000 0.1182546168
H   H31       1.0  0.18470  0.96160  0.75460  1.0000 0.1182546168
H   H32       1.0  0.31530  0.46160  0.24540  1.0000 0.1182546168
H   H33       1.0  0.74990  0.14130  0.21690  1.0000 0.1103260924
H   H34       1.0  0.75010  0.64130  0.78310  1.0000 0.1103260924
H   H35       1.0  0.25010  0.85870  0.78310  1.0000 0.1103260924
H   H36       1.0  0.24990  0.35870  0.21690  1.0000 0.1103260924
H   H37       1.0  0.83570  0.23700  0.26540  1.0000 0.1103260924
H   H38       1.0  0.66430  0.73700  0.73460  1.0000 0.1103260924
H   H39       1.0  0.16430  0.76300  0.73460  1.0000 0.1103260924
H   H40       1.0  0.33570  0.26300  0.26540  1.0000 0.1103260924
H   H41       1.0  0.97180  0.32490  0.22690  1.0000 0.136768598
H   H42       1.0  0.52820  0.82490  0.77310  1.0000 0.136768598
H   H43       1.0  0.02820  0.67510  0.77310  1.0000 0.136768598
H   H44       1.0  0.47180  0.17510  0.22690  1.0000 0.136768598
H   H45       1.0  0.93140  0.43730  0.18810  1.0000 0.1103260924
H   H46       1.0  0.56860  0.93730  0.81190  1.0000 0.1103260924
H   H47       1.0  0.06860  0.56270  0.81190  1.0000 0.1103260924
H   H48       1.0  0.43140  0.06270  0.18810  1.0000 0.1103260924
H   H49       1.0  0.95190  0.48880  0.41140  1.0000 0.103843728
H   H50       1.0  0.54810  0.98880  0.58860  1.0000 0.103843728
H   H51       1.0  0.04810  0.51120  0.58860  1.0000 0.103843728
H   H52       1.0  0.45190  0.01120  0.41140  1.0000 0.103843728
H   H53       1.0  0.00360  0.38400  0.45690  1.0000 0.1292947685
H   H54       1.0  0.49640  0.88400  0.54310  1.0000 0.1292947685
H   H55       1.0  0.99640  0.61600  0.54310  1.0000 0.1292947685
H   H56       1.0  0.50360  0.11600  0.45690  1.0000 0.1292947685
H   H57       1.0  0.84450  0.98910  0.77500  1.0000 0.103843728
H   H58       1.0  0.65550  0.48910  0.22500  1.0000 0.103843728
H   H59       1.0  0.15550  0.01090  0.22500  1.0000 0.103843728
H   H60       1.0  0.34450  0.51090  0.77500  1.0000 0.103843728
H   H61       1.0  0.00240  0.95370  0.87860  1.0000 0.1292947685
H   H62       1.0  0.49760  0.45370  0.12140  1.0000 0.1292947685
H   H63       1.0  0.99760  0.04630  0.12140  1.0000 0.1292947685
H   H64       1.0  0.50240  0.54630  0.87860  1.0000 0.1292947685
H   H65       1.0  0.85470  0.07340  0.02760  1.0000 0.1292947685
H   H66       1.0  0.64530  0.57340  0.97240  1.0000 0.1292947685
H   H67       1.0  0.14530  0.92660  0.97240  1.0000 0.1292947685
H   H68       1.0  0.35470  0.42660  0.02760  1.0000 0.1292947685
H   H69       1.0  0.68940  0.09890  0.91960  1.0000 0.1103260924
H   H70       1.0  0.81060  0.59890  0.08040  1.0000 0.1103260924
H   H71       1.0  0.31060  0.90110  0.08040  1.0000 0.1103260924
H   H72       1.0  0.18940  0.40110  0.91960  1.0000 0.1103260924
C   C1        1.0  0.40190  0.06090  0.85780  1.0000 0.2789211906
C   C2        1.0  0.09810  0.56090  0.14220  1.0000 0.2789211906
C   C3        1.0  0.59810  0.93910  0.14220  1.0000 0.2789211906
C   C4        1.0  0.90190  0.43910  0.85780  1.0000 0.2789211906
C   C5        1.0  0.78250  0.09060  0.60480  1.0000 0.2789211906
C   C6        1.0  0.71750  0.59060  0.39520  1.0000 0.2789211906
C   C7        1.0  0.21750  0.90940  0.39520  1.0000 0.2789211906
C   C8        1.0  0.28250  0.40940  0.60480  1.0000 0.2789211906
C   C9        1.0  0.45960  0.17170  0.60710  1.0000 0.0895608067
C   C10       1.0  0.04040  0.67170  0.39290  1.0000 0.0895608067
C   C11       1.0  0.54040  0.82830  0.39290  1.0000 0.0895608067
C   C12       1.0  0.95960  0.32830  0.60710  1.0000 0.0895608067
C   C13       1.0  0.36650  0.19760  0.54610  1.0000 -0.1881390215
C   C14       1.0  0.13350  0.69760  0.45390  1.0000 -0.1881390215
C   C15       1.0  0.63350  0.80240  0.45390  1.0000 -0.1881390215
C   C16       1.0  0.86650  0.30240  0.54610  1.0000 -0.1881390215
C   C17       1.0  0.25200  0.16290  0.52050  1.0000 0.1182546168
C   C18       1.0  0.24800  0.66290  0.47950  1.0000 0.1182546168
C   C19       1.0  0.74800  0.83710  0.47950  1.0000 0.1182546168
C   C20       1.0  0.75200  0.33710  0.52050  1.0000 0.1182546168
C   C21       1.0  0.23310  0.10390  0.56340  1.0000 -0.1881390215
C   C22       1.0  0.26690  0.60390  0.43660  1.0000 -0.1881390215
C   C23       1.0  0.76690  0.89610  0.43660  1.0000 -0.1881390215
C   C24       1.0  0.73310  0.39610  0.56340  1.0000 -0.1881390215
C   C25       1.0  0.33160  0.08180  0.62430  1.0000 0.0783419125
C   C26       1.0  0.16840  0.58180  0.37570  1.0000 0.0783419125
C   C27       1.0  0.66840  0.91820  0.37570  1.0000 0.0783419125
C   C28       1.0  0.83160  0.41820  0.62430  1.0000 0.0783419125
C   C29       1.0  0.15240  0.19000  0.45650  1.0000 0.0217914655
C   C30       1.0  0.34760  0.69000  0.54350  1.0000 0.0217914655
C   C31       1.0  0.84760  0.81000  0.54350  1.0000 0.0217914655
C   C32       1.0  0.65240  0.31000  0.45650  1.0000 0.0217914655
C   C33       1.0  0.13640  0.26000  0.44160  1.0000 -0.2225399204
C   C34       1.0  0.36360  0.76000  0.55840  1.0000 -0.2225399204
C   C35       1.0  0.86360  0.74000  0.55840  1.0000 -0.2225399204
C   C36       1.0  0.63640  0.24000  0.44160  1.0000 -0.2225399204
C   C37       1.0  0.03790  0.27130  0.37350  1.0000 0.0100680943
C   C38       1.0  0.46210  0.77130  0.62650  1.0000 0.0100680943
C   C39       1.0  0.96210  0.72870  0.62650  1.0000 0.0100680943
C   C40       1.0  0.53790  0.22870  0.37350  1.0000 0.0100680943
C   C41       1.0  0.98450  0.20910  0.34630  1.0000 0.0388939129
C   C42       1.0  0.51550  0.70910  0.65370  1.0000 0.0388939129
C   C43       1.0  0.01550  0.79090  0.65370  1.0000 0.0388939129
C   C44       1.0  0.48450  0.29090  0.34630  1.0000 0.0388939129
C   C45       1.0  0.06300  0.15440  0.39710  1.0000 0.0388939129
C   C46       1.0  0.43700  0.65440  0.60290  1.0000 0.0388939129
C   C47       1.0  0.93700  0.84560  0.60290  1.0000 0.0388939129
C   C48       1.0  0.56300  0.34560  0.39710  1.0000 0.0388939129
C   C49       1.0  0.05280  0.08660  0.38550  1.0000 -0.1188143996
C   C50       1.0  0.44720  0.58660  0.61450  1.0000 -0.1188143996
C   C51       1.0  0.94720  0.91340  0.61450  1.0000 -0.1188143996
C   C52       1.0  0.55280  0.41340  0.38550  1.0000 -0.1188143996
C   C53       1.0  0.96440  0.04970  0.33070  1.0000 -0.0823480134
C   C54       1.0  0.53560  0.54970  0.66930  1.0000 -0.0823480134
C   C55       1.0  0.03560  0.95030  0.66930  1.0000 -0.0823480134
C   C56       1.0  0.46440  0.45030  0.33070  1.0000 -0.0823480134
C   C57       1.0  0.86390  0.07200  0.27500  1.0000 -0.1188143996
C   C58       1.0  0.63610  0.57200  0.72500  1.0000 -0.1188143996
C   C59       1.0  0.13610  0.92800  0.72500  1.0000 -0.1188143996
C   C60       1.0  0.36390  0.42800  0.27500  1.0000 -0.1188143996
C   C61       1.0  0.82350  0.13730  0.25600  1.0000 -0.0823480134
C   C62       1.0  0.67650  0.63730  0.74400  1.0000 -0.0823480134
C   C63       1.0  0.17650  0.86270  0.74400  1.0000 -0.0823480134
C   C64       1.0  0.32350  0.36270  0.25600  1.0000 -0.0823480134
C   C65       1.0  0.87760  0.19820  0.28740  1.0000 -0.1504635103
C   C66       1.0  0.62240  0.69820  0.71260  1.0000 -0.1504635103
C   C67       1.0  0.12240  0.80180  0.71260  1.0000 -0.1504635103
C   C68       1.0  0.37760  0.30180  0.28740  1.0000 -0.1504635103
C   C69       1.0  0.99770  0.34120  0.34740  1.0000 0.1292947685
C   C70       1.0  0.50230  0.84120  0.65260  1.0000 0.1292947685
C   C71       1.0  0.00230  0.65880  0.65260  1.0000 0.1292947685
C   C72       1.0  0.49770  0.15880  0.34740  1.0000 0.1292947685
C   C73       1.0  0.97140  0.35810  0.26590  1.0000 -0.1971086525
C   C74       1.0  0.52860  0.85810  0.73410  1.0000 -0.1971086525
C   C75       1.0  0.02860  0.64190  0.73410  1.0000 -0.1971086525
C   C76       1.0  0.47140  0.14190  0.26590  1.0000 -0.1971086525
C   C77       1.0  0.94410  0.42600  0.24250  1.0000 0.103843728
C   C78       1.0  0.55590  0.92600  0.75750  1.0000 0.103843728
C   C79       1.0  0.05590  0.57400  0.75750  1.0000 0.103843728
C   C80       1.0  0.44410  0.07400  0.24250  1.0000 0.103843728
C   C81       1.0  0.95830  0.45530  0.37360  1.0000 0.0661662481
C   C82       1.0  0.54170  0.95530  0.62640  1.0000 0.0661662481
C   C83       1.0  0.04170  0.54470  0.62640  1.0000 0.0661662481
C   C84       1.0  0.45830  0.04470  0.37360  1.0000 0.0661662481
C   C85       1.0  0.98880  0.39260  0.40180  1.0000 -0.1814061255
C   C86       1.0  0.51120  0.89260  0.59820  1.0000 -0.1814061255
C   C87       1.0  0.01120  0.60740  0.59820  1.0000 -0.1814061255
C   C88       1.0  0.48880  0.10740  0.40180  1.0000 -0.1814061255
C   C89       1.0  0.84410  0.00570  0.82650  1.0000 0.103843728
C   C90       1.0  0.65590  0.50570  0.17350  1.0000 0.103843728
C   C91       1.0  0.15590  0.99430  0.17350  1.0000 0.103843728
C   C92       1.0  0.34410  0.49430  0.82650  1.0000 0.103843728
C   C93       1.0  0.94160  0.98510  0.88860  1.0000 -0.1814061255
C   C94       1.0  0.55840  0.48510  0.11140  1.0000 -0.1814061255
C   C95       1.0  0.05840  0.01490  0.11140  1.0000 -0.1814061255
C   C96       1.0  0.44160  0.51490  0.88860  1.0000 -0.1814061255
C   C97       1.0  0.94780  0.01110  0.96440  1.0000 0.1182546168
C   C98       1.0  0.55220  0.51110  0.03560  1.0000 0.1182546168
C   C99       1.0  0.05220  0.98890  0.03560  1.0000 0.1182546168
C   C100      1.0  0.44780  0.48890  0.96440  1.0000 0.1182546168
C   C101      1.0  0.85430  0.05450  0.97700  1.0000 -0.1644667201
C   C102      1.0  0.64570  0.55450  0.02300  1.0000 -0.1644667201
C   C103      1.0  0.14570  0.94550  0.02300  1.0000 -0.1644667201
C   C104      1.0  0.35430  0.44550  0.97700  1.0000 -0.1644667201
C   C105      1.0  0.75540  0.07050  0.91070  1.0000 0.0895608067
C   C106      1.0  0.74460  0.57050  0.08930  1.0000 0.0895608067
C   C107      1.0  0.24460  0.92950  0.08930  1.0000 0.0895608067
C   C108      1.0  0.25540  0.42950  0.91070  1.0000 0.0895608067
S   S1        1.0  0.29540  0.04490  0.91730  1.0000 -0.4216999897
S   S2        1.0  0.20460  0.54490  0.08270  1.0000 -0.4216999897
S   S3        1.0  0.70460  0.95510  0.08270  1.0000 -0.4216999897
S   S4        1.0  0.79540  0.45510  0.91730  1.0000 -0.4216999897
S   S5        1.0  0.86010  0.09421  0.53264  1.0000 -0.3517797553
S   S6        1.0  0.63990  0.59421  0.46736  1.0000 -0.3517797553
S   S7        1.0  0.13990  0.90579  0.46736  1.0000 -0.3517797553
S   S8        1.0  0.36010  0.40579  0.53264  1.0000 -0.3517797553
N   N1        1.0  0.47230  0.06980  0.81520  1.0000 -0.4922446423
N   N2        1.0  0.02770  0.56980  0.18480  1.0000 -0.4922446423
N   N3        1.0  0.52770  0.93020  0.18480  1.0000 -0.4922446423
N   N4        1.0  0.97230  0.43020  0.81520  1.0000 -0.4922446423
N   N5        1.0  0.72360  0.08840  0.66060  1.0000 -0.5619239324
N   N6        1.0  0.77640  0.58840  0.33940  1.0000 -0.5619239324
N   N7        1.0  0.27640  0.91160  0.33940  1.0000 -0.5619239324
N   N8        1.0  0.22360  0.41160  0.66060  1.0000 -0.5619239324
N   N9        1.0  0.44430  0.11480  0.64670  1.0000 -0.2366810553
N   N10       1.0  0.05570  0.61480  0.35330  1.0000 -0.2366810553
N   N11       1.0  0.55570  0.88520  0.35330  1.0000 -0.2366810553
N   N12       1.0  0.94430  0.38520  0.64670  1.0000 -0.2366810553
N   N13       1.0  0.75280  0.04680  0.83680  1.0000 -0.2313213908
N   N14       1.0  0.74720  0.54680  0.16320  1.0000 -0.2313213908
N   N15       1.0  0.24720  0.95320  0.16320  1.0000 -0.2313213908
N   N16       1.0  0.25280  0.45320  0.83680  1.0000 -0.2313213908
N   N17       1.0  0.93640  0.47350  0.29590  1.0000 -0.2225399204
N   N18       1.0  0.56360  0.97350  0.70410  1.0000 -0.2225399204
N   N19       1.0  0.06360  0.52650  0.70410  1.0000 -0.2225399204
N   N20       1.0  0.43640  0.02650  0.29590  1.0000 -0.2225399204
