# DDEC6 charges by PACMAN v1.1 (https://github.com/mtap-research/PACMAN-charge/)
data_2014[Cu][nan]3[ASR]25
_chemical_formula_sum              "Cu12 H120 C216 O48"
_cell_length_a       23.355
_cell_length_b       23.355
_cell_length_c       23.355
_cell_angle_alpha    109.471
_cell_angle_beta     109.471
_cell_angle_gamma    109.471

_symmetry_space_group_name_H-M    "P 1"
_symmetry_Int_Tables_number       1

loop_
  _symmetry_equiv_pos_as_xyz
  'x, y, z'

loop_
  _atom_site_type_symbol
  _atom_site_label
  _atom_site_symmetry_multiplicity
  _atom_site_fract_x
  _atom_site_fract_y
  _atom_site_fract_z
  _atom_site_occupancy
  _atom_site_charge
Cu  Cu1       1.0  0.14397  0.64397  0.50000  1.0000 0.8396510213
Cu  Cu2       1.0  0.50000  0.14397  0.64397  1.0000 0.8396510213
Cu  Cu3       1.0  0.64397  0.50000  0.14397  1.0000 0.8396510213
Cu  Cu4       1.0  0.35603  0.50000  0.85603  1.0000 0.8396510213
Cu  Cu5       1.0  0.50000  0.85603  0.35603  1.0000 0.8396510213
Cu  Cu6       1.0  0.85603  0.35603  0.50000  1.0000 0.8396510213
Cu  Cu7       1.0  0.24010  0.74010  0.50000  1.0000 0.8616769442
Cu  Cu8       1.0  0.50000  0.24010  0.74010  1.0000 0.8616769442
Cu  Cu9       1.0  0.74010  0.50000  0.24010  1.0000 0.8616769442
Cu  Cu10      1.0  0.25990  0.50000  0.75990  1.0000 0.8616769442
Cu  Cu11      1.0  0.50000  0.75990  0.25990  1.0000 0.8616769442
Cu  Cu12      1.0  0.75990  0.25990  0.50000  1.0000 0.8616769442
H   H1        1.0  0.21670  0.49150  0.47120  1.0000 0.1257898662
H   H2        1.0  0.47120  0.21670  0.49150  1.0000 0.1257898662
H   H3        1.0  0.49150  0.47120  0.21670  1.0000 0.1257898662
H   H4        1.0  0.25450  0.27480  0.78330  1.0000 0.1257898662
H   H5        1.0  0.52880  0.02030  0.74550  1.0000 0.1257898662
H   H6        1.0  0.74550  0.52880  0.02030  1.0000 0.1257898662
H   H7        1.0  0.72520  0.97970  0.50850  1.0000 0.1257898662
H   H8        1.0  0.27480  0.78330  0.25450  1.0000 0.1257898662
H   H9        1.0  0.50850  0.72520  0.97970  1.0000 0.1257898662
H   H10       1.0  0.02030  0.74550  0.52880  1.0000 0.1257898662
H   H11       1.0  0.78330  0.25450  0.27480  1.0000 0.1257898662
H   H12       1.0  0.97970  0.50850  0.72520  1.0000 0.1257898662
H   H13       1.0  0.78330  0.50850  0.52880  1.0000 0.1257898662
H   H14       1.0  0.52880  0.78330  0.50850  1.0000 0.1257898662
H   H15       1.0  0.50850  0.52880  0.78330  1.0000 0.1257898662
H   H16       1.0  0.74550  0.72520  0.21670  1.0000 0.1257898662
H   H17       1.0  0.47120  0.97970  0.25450  1.0000 0.1257898662
H   H18       1.0  0.25450  0.47120  0.97970  1.0000 0.1257898662
H   H19       1.0  0.27480  0.02030  0.49150  1.0000 0.1257898662
H   H20       1.0  0.72520  0.21670  0.74550  1.0000 0.1257898662
H   H21       1.0  0.49150  0.27480  0.02030  1.0000 0.1257898662
H   H22       1.0  0.97970  0.25450  0.47120  1.0000 0.1257898662
H   H23       1.0  0.21670  0.74550  0.72520  1.0000 0.1257898662
H   H24       1.0  0.02030  0.49150  0.27480  1.0000 0.1257898662
H   H25       1.0  0.40910  0.57860  0.44330  1.0000 0.1124755601
H   H26       1.0  0.44330  0.40910  0.57860  1.0000 0.1124755601
H   H27       1.0  0.57860  0.44330  0.40910  1.0000 0.1124755601
H   H28       1.0  0.03420  0.16950  0.59090  1.0000 0.1124755601
H   H29       1.0  0.55670  0.13530  0.96580  1.0000 0.1124755601
H   H30       1.0  0.96580  0.55670  0.13530  1.0000 0.1124755601
H   H31       1.0  0.83050  0.86470  0.42140  1.0000 0.1124755601
H   H32       1.0  0.16950  0.59090  0.03420  1.0000 0.1124755601
H   H33       1.0  0.42140  0.83050  0.86470  1.0000 0.1124755601
H   H34       1.0  0.13530  0.96580  0.55670  1.0000 0.1124755601
H   H35       1.0  0.59090  0.03420  0.16950  1.0000 0.1124755601
H   H36       1.0  0.86470  0.42140  0.83050  1.0000 0.1124755601
H   H37       1.0  0.59090  0.42140  0.55670  1.0000 0.1124755601
H   H38       1.0  0.55670  0.59090  0.42140  1.0000 0.1124755601
H   H39       1.0  0.42140  0.55670  0.59090  1.0000 0.1124755601
H   H40       1.0  0.96580  0.83050  0.40910  1.0000 0.1124755601
H   H41       1.0  0.44330  0.86470  0.03420  1.0000 0.1124755601
H   H42       1.0  0.03420  0.44330  0.86470  1.0000 0.1124755601
H   H43       1.0  0.16950  0.13530  0.57860  1.0000 0.1124755601
H   H44       1.0  0.83050  0.40910  0.96580  1.0000 0.1124755601
H   H45       1.0  0.57860  0.16950  0.13530  1.0000 0.1124755601
H   H46       1.0  0.86470  0.03420  0.44330  1.0000 0.1124755601
H   H47       1.0  0.40910  0.96580  0.83050  1.0000 0.1124755601
H   H48       1.0  0.13530  0.57860  0.16950  1.0000 0.1124755601
H   H49       1.0  0.26650  0.42210  0.44360  1.0000 0.1179182776
H   H50       1.0  0.44360  0.26650  0.42210  1.0000 0.1179182776
H   H51       1.0  0.42210  0.44360  0.26650  1.0000 0.1179182776
H   H52       1.0  0.17710  0.15560  0.73350  1.0000 0.1179182776
H   H53       1.0  0.55640  0.97850  0.82290  1.0000 0.1179182776
H   H54       1.0  0.82290  0.55640  0.97850  1.0000 0.1179182776
H   H55       1.0  0.84440  0.02150  0.57790  1.0000 0.1179182776
H   H56       1.0  0.15560  0.73350  0.17710  1.0000 0.1179182776
H   H57       1.0  0.57790  0.84440  0.02150  1.0000 0.1179182776
H   H58       1.0  0.97850  0.82290  0.55640  1.0000 0.1179182776
H   H59       1.0  0.73350  0.17710  0.15560  1.0000 0.1179182776
H   H60       1.0  0.02150  0.57790  0.84440  1.0000 0.1179182776
H   H61       1.0  0.73350  0.57790  0.55640  1.0000 0.1179182776
H   H62       1.0  0.55640  0.73350  0.57790  1.0000 0.1179182776
H   H63       1.0  0.57790  0.55640  0.73350  1.0000 0.1179182776
H   H64       1.0  0.82290  0.84440  0.26650  1.0000 0.1179182776
H   H65       1.0  0.44360  0.02150  0.17710  1.0000 0.1179182776
H   H66       1.0  0.17710  0.44360  0.02150  1.0000 0.1179182776
H   H67       1.0  0.15560  0.97850  0.42210  1.0000 0.1179182776
H   H68       1.0  0.84440  0.26650  0.82290  1.0000 0.1179182776
H   H69       1.0  0.42210  0.15560  0.97850  1.0000 0.1179182776
H   H70       1.0  0.02150  0.17710  0.44360  1.0000 0.1179182776
H   H71       1.0  0.26650  0.82290  0.84440  1.0000 0.1179182776
H   H72       1.0  0.97850  0.42210  0.15560  1.0000 0.1179182776
H   H73       1.0  0.36140  0.64710  0.47550  1.0000 0.1257898662
H   H74       1.0  0.47550  0.36140  0.64710  1.0000 0.1257898662
H   H75       1.0  0.64710  0.47550  0.36140  1.0000 0.1257898662
H   H76       1.0  0.11410  0.28570  0.63860  1.0000 0.1257898662
H   H77       1.0  0.52450  0.17160  0.88590  1.0000 0.1257898662
H   H78       1.0  0.88590  0.52450  0.17160  1.0000 0.1257898662
H   H79       1.0  0.71430  0.82840  0.35290  1.0000 0.1257898662
H   H80       1.0  0.28570  0.63860  0.11410  1.0000 0.1257898662
H   H81       1.0  0.35290  0.71430  0.82840  1.0000 0.1257898662
H   H82       1.0  0.17160  0.88590  0.52450  1.0000 0.1257898662
H   H83       1.0  0.63860  0.11410  0.28570  1.0000 0.1257898662
H   H84       1.0  0.82840  0.35290  0.71430  1.0000 0.1257898662
H   H85       1.0  0.63860  0.35290  0.52450  1.0000 0.1257898662
H   H86       1.0  0.52450  0.63860  0.35290  1.0000 0.1257898662
H   H87       1.0  0.35290  0.52450  0.63860  1.0000 0.1257898662
H   H88       1.0  0.88590  0.71430  0.36140  1.0000 0.1257898662
H   H89       1.0  0.47550  0.82840  0.11410  1.0000 0.1257898662
H   H90       1.0  0.11410  0.47550  0.82840  1.0000 0.1257898662
H   H91       1.0  0.28570  0.17160  0.64710  1.0000 0.1257898662
H   H92       1.0  0.71430  0.36140  0.88590  1.0000 0.1257898662
H   H93       1.0  0.64710  0.28570  0.17160  1.0000 0.1257898662
H   H94       1.0  0.82840  0.11410  0.47550  1.0000 0.1257898662
H   H95       1.0  0.36140  0.88590  0.71430  1.0000 0.1257898662
H   H96       1.0  0.17160  0.64710  0.28570  1.0000 0.1257898662
H   H97       1.0  0.40510  0.48340  0.36350  1.0000 0.1124755601
H   H98       1.0  0.36350  0.40510  0.48340  1.0000 0.1124755601
H   H99       1.0  0.48340  0.36350  0.40510  1.0000 0.1124755601
H   H100      1.0  0.95840  0.07830  0.59490  1.0000 0.1124755601
H   H101      1.0  0.63650  0.11990  0.04160  1.0000 0.1124755601
H   H102      1.0  0.04160  0.63650  0.11990  1.0000 0.1124755601
H   H103      1.0  0.92170  0.88010  0.51660  1.0000 0.1124755601
H   H104      1.0  0.07830  0.59490  0.95840  1.0000 0.1124755601
H   H105      1.0  0.51660  0.92170  0.88010  1.0000 0.1124755601
H   H106      1.0  0.11990  0.04160  0.63650  1.0000 0.1124755601
H   H107      1.0  0.59490  0.95840  0.07830  1.0000 0.1124755601
H   H108      1.0  0.88010  0.51660  0.92170  1.0000 0.1124755601
H   H109      1.0  0.59490  0.51660  0.63650  1.0000 0.1124755601
H   H110      1.0  0.63650  0.59490  0.51660  1.0000 0.1124755601
H   H111      1.0  0.51660  0.63650  0.59490  1.0000 0.1124755601
H   H112      1.0  0.04160  0.92170  0.40510  1.0000 0.1124755601
H   H113      1.0  0.36350  0.88010  0.95840  1.0000 0.1124755601
H   H114      1.0  0.95840  0.36350  0.88010  1.0000 0.1124755601
H   H115      1.0  0.07830  0.11990  0.48340  1.0000 0.1124755601
H   H116      1.0  0.92170  0.40510  0.04160  1.0000 0.1124755601
H   H117      1.0  0.48340  0.07830  0.11990  1.0000 0.1124755601
H   H118      1.0  0.88010  0.95840  0.36350  1.0000 0.1124755601
H   H119      1.0  0.40510  0.04160  0.92170  1.0000 0.1124755601
H   H120      1.0  0.11990  0.48340  0.07830  1.0000 0.1124755601
C   C1        1.0  0.34290  0.49190  0.43980  1.0000 0.0777613624
C   C2        1.0  0.43980  0.34290  0.49190  1.0000 0.0777613624
C   C3        1.0  0.49190  0.43980  0.34290  1.0000 0.0777613624
C   C4        1.0  0.09690  0.14900  0.65710  1.0000 0.0777613624
C   C5        1.0  0.56020  0.05210  0.90310  1.0000 0.0777613624
C   C6        1.0  0.90310  0.56020  0.05210  1.0000 0.0777613624
C   C7        1.0  0.85100  0.94790  0.50810  1.0000 0.0777613624
C   C8        1.0  0.14900  0.65710  0.09690  1.0000 0.0777613624
C   C9        1.0  0.50810  0.85100  0.94790  1.0000 0.0777613624
C   C10       1.0  0.05210  0.90310  0.56020  1.0000 0.0777613624
C   C11       1.0  0.65710  0.09690  0.14900  1.0000 0.0777613624
C   C12       1.0  0.94790  0.50810  0.85100  1.0000 0.0777613624
C   C13       1.0  0.65710  0.50810  0.56020  1.0000 0.0777613624
C   C14       1.0  0.56020  0.65710  0.50810  1.0000 0.0777613624
C   C15       1.0  0.50810  0.56020  0.65710  1.0000 0.0777613624
C   C16       1.0  0.90310  0.85100  0.34290  1.0000 0.0777613624
C   C17       1.0  0.43980  0.94790  0.09690  1.0000 0.0777613624
C   C18       1.0  0.09690  0.43980  0.94790  1.0000 0.0777613624
C   C19       1.0  0.14900  0.05210  0.49190  1.0000 0.0777613624
C   C20       1.0  0.85100  0.34290  0.90310  1.0000 0.0777613624
C   C21       1.0  0.49190  0.14900  0.05210  1.0000 0.0777613624
C   C22       1.0  0.94790  0.09690  0.43980  1.0000 0.0777613624
C   C23       1.0  0.34290  0.90310  0.85100  1.0000 0.0777613624
C   C24       1.0  0.05210  0.49190  0.14900  1.0000 0.0777613624
C   C25       1.0  0.25230  0.62080  0.49250  1.0000 0.5831399638
C   C26       1.0  0.49250  0.25230  0.62080  1.0000 0.5831399638
C   C27       1.0  0.62080  0.49250  0.25230  1.0000 0.5831399638
C   C28       1.0  0.24020  0.36850  0.74770  1.0000 0.5831399638
C   C29       1.0  0.50750  0.12830  0.75980  1.0000 0.5831399638
C   C30       1.0  0.75980  0.50750  0.12830  1.0000 0.5831399638
C   C31       1.0  0.63150  0.87170  0.37920  1.0000 0.5831399638
C   C32       1.0  0.36850  0.74770  0.24020  1.0000 0.5831399638
C   C33       1.0  0.37920  0.63150  0.87170  1.0000 0.5831399638
C   C34       1.0  0.12830  0.75980  0.50750  1.0000 0.5831399638
C   C35       1.0  0.74770  0.24020  0.36850  1.0000 0.5831399638
C   C36       1.0  0.87170  0.37920  0.63150  1.0000 0.5831399638
C   C37       1.0  0.74770  0.37920  0.50750  1.0000 0.5831399638
C   C38       1.0  0.50750  0.74770  0.37920  1.0000 0.5831399638
C   C39       1.0  0.37920  0.50750  0.74770  1.0000 0.5831399638
C   C40       1.0  0.75980  0.63150  0.25230  1.0000 0.5831399638
C   C41       1.0  0.49250  0.87170  0.24020  1.0000 0.5831399638
C   C42       1.0  0.24020  0.49250  0.87170  1.0000 0.5831399638
C   C43       1.0  0.36850  0.12830  0.62080  1.0000 0.5831399638
C   C44       1.0  0.63150  0.25230  0.75980  1.0000 0.5831399638
C   C45       1.0  0.62080  0.36850  0.12830  1.0000 0.5831399638
C   C46       1.0  0.87170  0.24020  0.49250  1.0000 0.5831399638
C   C47       1.0  0.25230  0.75980  0.63150  1.0000 0.5831399638
C   C48       1.0  0.12830  0.62080  0.36850  1.0000 0.5831399638
C   C49       1.0  0.25590  0.50900  0.46650  1.0000 -0.0869450445
C   C50       1.0  0.46650  0.25590  0.50900  1.0000 -0.0869450445
C   C51       1.0  0.50900  0.46650  0.25590  1.0000 -0.0869450445
C   C52       1.0  0.21060  0.25310  0.74410  1.0000 -0.0869450445
C   C53       1.0  0.53350  0.04250  0.78940  1.0000 -0.0869450445
C   C54       1.0  0.78940  0.53350  0.04250  1.0000 -0.0869450445
C   C55       1.0  0.74690  0.95750  0.49100  1.0000 -0.0869450445
C   C56       1.0  0.25310  0.74410  0.21060  1.0000 -0.0869450445
C   C57       1.0  0.49100  0.74690  0.95750  1.0000 -0.0869450445
C   C58       1.0  0.04250  0.78940  0.53350  1.0000 -0.0869450445
C   C59       1.0  0.74410  0.21060  0.25310  1.0000 -0.0869450445
C   C60       1.0  0.95750  0.49100  0.74690  1.0000 -0.0869450445
C   C61       1.0  0.74410  0.49100  0.53350  1.0000 -0.0869450445
C   C62       1.0  0.53350  0.74410  0.49100  1.0000 -0.0869450445
C   C63       1.0  0.49100  0.53350  0.74410  1.0000 -0.0869450445
C   C64       1.0  0.78940  0.74690  0.25590  1.0000 -0.0869450445
C   C65       1.0  0.46650  0.95750  0.21060  1.0000 -0.0869450445
C   C66       1.0  0.21060  0.46650  0.95750  1.0000 -0.0869450445
C   C67       1.0  0.25310  0.04250  0.50900  1.0000 -0.0869450445
C   C68       1.0  0.74690  0.25590  0.78940  1.0000 -0.0869450445
C   C69       1.0  0.50900  0.25310  0.04250  1.0000 -0.0869450445
C   C70       1.0  0.95750  0.21060  0.46650  1.0000 -0.0869450445
C   C71       1.0  0.25590  0.78940  0.74690  1.0000 -0.0869450445
C   C72       1.0  0.04250  0.50900  0.25310  1.0000 -0.0869450445
C   C73       1.0  0.37100  0.56090  0.44950  1.0000 -0.1619091487
C   C74       1.0  0.44950  0.37100  0.56090  1.0000 -0.1619091487
C   C75       1.0  0.56090  0.44950  0.37100  1.0000 -0.1619091487
C   C76       1.0  0.07850  0.18990  0.62900  1.0000 -0.1619091487
C   C77       1.0  0.55050  0.11140  0.92150  1.0000 -0.1619091487
C   C78       1.0  0.92150  0.55050  0.11140  1.0000 -0.1619091487
C   C79       1.0  0.81010  0.88860  0.43910  1.0000 -0.1619091487
C   C80       1.0  0.18990  0.62900  0.07850  1.0000 -0.1619091487
C   C81       1.0  0.43910  0.81010  0.88860  1.0000 -0.1619091487
C   C82       1.0  0.11140  0.92150  0.55050  1.0000 -0.1619091487
C   C83       1.0  0.62900  0.07850  0.18990  1.0000 -0.1619091487
C   C84       1.0  0.88860  0.43910  0.81010  1.0000 -0.1619091487
C   C85       1.0  0.62900  0.43910  0.55050  1.0000 -0.1619091487
C   C86       1.0  0.55050  0.62900  0.43910  1.0000 -0.1619091487
C   C87       1.0  0.43910  0.55050  0.62900  1.0000 -0.1619091487
C   C88       1.0  0.92150  0.81010  0.37100  1.0000 -0.1619091487
C   C89       1.0  0.44950  0.88860  0.07850  1.0000 -0.1619091487
C   C90       1.0  0.07850  0.44950  0.88860  1.0000 -0.1619091487
C   C91       1.0  0.18990  0.11140  0.56090  1.0000 -0.1619091487
C   C92       1.0  0.81010  0.37100  0.92150  1.0000 -0.1619091487
C   C93       1.0  0.56090  0.18990  0.11140  1.0000 -0.1619091487
C   C94       1.0  0.88860  0.07850  0.44950  1.0000 -0.1619091487
C   C95       1.0  0.37100  0.92150  0.81010  1.0000 -0.1619091487
C   C96       1.0  0.11140  0.56090  0.18990  1.0000 -0.1619091487
C   C97       1.0  0.28540  0.46680  0.44900  1.0000 -0.1619091487
C   C98       1.0  0.44900  0.28540  0.46680  1.0000 -0.1619091487
C   C99       1.0  0.46680  0.44900  0.28540  1.0000 -0.1619091487
C   C100      1.0  0.16360  0.18140  0.71460  1.0000 -0.1619091487
C   C101      1.0  0.55100  0.01780  0.83640  1.0000 -0.1619091487
C   C102      1.0  0.83640  0.55100  0.01780  1.0000 -0.1619091487
C   C103      1.0  0.81860  0.98220  0.53320  1.0000 -0.1619091487
C   C104      1.0  0.18140  0.71460  0.16360  1.0000 -0.1619091487
C   C105      1.0  0.53320  0.81860  0.98220  1.0000 -0.1652025204
C   C106      1.0  0.01780  0.83640  0.55100  1.0000 -0.1619091487
C   C107      1.0  0.71460  0.16360  0.18140  1.0000 -0.1619091487
C   C108      1.0  0.98220  0.53320  0.81860  1.0000 -0.1652025204
C   C109      1.0  0.71460  0.53320  0.55100  1.0000 -0.1619091487
C   C110      1.0  0.55100  0.71460  0.53320  1.0000 -0.1619091487
C   C111      1.0  0.53320  0.55100  0.71460  1.0000 -0.1619091487
C   C112      1.0  0.83640  0.81860  0.28540  1.0000 -0.1619091487
C   C113      1.0  0.44900  0.98220  0.16360  1.0000 -0.1619091487
C   C114      1.0  0.16360  0.44900  0.98220  1.0000 -0.1619091487
C   C115      1.0  0.18140  0.01780  0.46680  1.0000 -0.1619091487
C   C116      1.0  0.81860  0.28540  0.83640  1.0000 -0.1619091487
C   C117      1.0  0.46680  0.18140  0.01780  1.0000 -0.1619091487
C   C118      1.0  0.98220  0.16360  0.44900  1.0000 -0.1619091487
C   C119      1.0  0.28540  0.83640  0.81860  1.0000 -0.1619091487
C   C120      1.0  0.01780  0.46680  0.18140  1.0000 -0.1619091487
C   C121      1.0  0.34180  0.60170  0.46830  1.0000 -0.0847836885
C   C122      1.0  0.46830  0.34180  0.60170  1.0000 -0.0847836885
C   C123      1.0  0.60170  0.46830  0.34180  1.0000 -0.0847836885
C   C124      1.0  0.12650  0.25990  0.65820  1.0000 -0.0847836885
C   C125      1.0  0.53170  0.13340  0.87350  1.0000 -0.0847836885
C   C126      1.0  0.87350  0.53170  0.13340  1.0000 -0.0847836885
C   C127      1.0  0.74010  0.86660  0.39830  1.0000 -0.0869450445
C   C128      1.0  0.25990  0.65820  0.12650  1.0000 -0.0847836885
C   C129      1.0  0.39830  0.74010  0.86660  1.0000 -0.0847836885
C   C130      1.0  0.13340  0.87350  0.53170  1.0000 -0.0847836885
C   C131      1.0  0.65820  0.12650  0.25990  1.0000 -0.0847836885
C   C132      1.0  0.86660  0.39830  0.74010  1.0000 -0.0847836885
C   C133      1.0  0.65820  0.39830  0.53170  1.0000 -0.0847836885
C   C134      1.0  0.53170  0.65820  0.39830  1.0000 -0.0847836885
C   C135      1.0  0.39830  0.53170  0.65820  1.0000 -0.0847836885
C   C136      1.0  0.87350  0.74010  0.34180  1.0000 -0.0869450445
C   C137      1.0  0.46830  0.86660  0.12650  1.0000 -0.0847836885
C   C138      1.0  0.12650  0.46830  0.86660  1.0000 -0.0847836885
C   C139      1.0  0.25990  0.13340  0.60170  1.0000 -0.0847836885
C   C140      1.0  0.74010  0.34180  0.87350  1.0000 -0.0847836885
C   C141      1.0  0.60170  0.25990  0.13340  1.0000 -0.0847836885
C   C142      1.0  0.86660  0.12650  0.46830  1.0000 -0.0847836885
C   C143      1.0  0.34180  0.87350  0.74010  1.0000 -0.0847836885
C   C144      1.0  0.13340  0.60170  0.25990  1.0000 -0.0847836885
C   C145      1.0  0.41110  0.45810  0.38620  1.0000 -0.1977439078
C   C146      1.0  0.38620  0.41110  0.45810  1.0000 -0.1977439078
C   C147      1.0  0.45810  0.38620  0.41110  1.0000 -0.1977439078
C   C148      1.0  0.97510  0.04700  0.58890  1.0000 -0.1977439078
C   C149      1.0  0.61380  0.07190  0.02490  1.0000 -0.1977439078
C   C150      1.0  0.02490  0.61380  0.07190  1.0000 -0.1977439078
C   C151      1.0  0.95300  0.92810  0.54190  1.0000 -0.1977439078
C   C152      1.0  0.04700  0.58890  0.97510  1.0000 -0.1977439078
C   C153      1.0  0.54190  0.95300  0.92810  1.0000 -0.1977439078
C   C154      1.0  0.07190  0.02490  0.61380  1.0000 -0.1977439078
C   C155      1.0  0.58890  0.97510  0.04700  1.0000 -0.1977439078
C   C156      1.0  0.92810  0.54190  0.95300  1.0000 -0.1977439078
C   C157      1.0  0.58890  0.54190  0.61380  1.0000 -0.1977439078
C   C158      1.0  0.61380  0.58890  0.54190  1.0000 -0.1977439078
C   C159      1.0  0.54190  0.61380  0.58890  1.0000 -0.1977439078
C   C160      1.0  0.02490  0.95300  0.41110  1.0000 -0.1977439078
C   C161      1.0  0.38620  0.92810  0.97510  1.0000 -0.1977439078
C   C162      1.0  0.97510  0.38620  0.92810  1.0000 -0.1977439078
C   C163      1.0  0.04700  0.07190  0.45810  1.0000 -0.1977439078
C   C164      1.0  0.95300  0.41110  0.02490  1.0000 -0.1977439078
C   C165      1.0  0.45810  0.04700  0.07190  1.0000 -0.1977439078
C   C166      1.0  0.92810  0.97510  0.38620  1.0000 -0.1977439078
C   C167      1.0  0.41110  0.02490  0.95300  1.0000 -0.1977439078
C   C168      1.0  0.07190  0.45810  0.04700  1.0000 -0.1977439078
C   C169      1.0  0.28470  0.57670  0.47680  1.0000 -0.0403828547
C   C170      1.0  0.47680  0.28470  0.57670  1.0000 -0.0403828547
C   C171      1.0  0.57670  0.47680  0.28470  1.0000 -0.0403828547
C   C172      1.0  0.19210  0.29200  0.71530  1.0000 -0.0403828547
C   C173      1.0  0.52320  0.09990  0.80790  1.0000 -0.0403828547
C   C174      1.0  0.80790  0.52320  0.09990  1.0000 -0.0403828547
C   C175      1.0  0.70800  0.90010  0.42330  1.0000 -0.0403828547
C   C176      1.0  0.29200  0.71530  0.19210  1.0000 -0.0403828547
C   C177      1.0  0.42330  0.70800  0.90010  1.0000 -0.0403828547
C   C178      1.0  0.09990  0.80790  0.52320  1.0000 -0.0403828547
C   C179      1.0  0.71530  0.19210  0.29200  1.0000 -0.0403828547
C   C180      1.0  0.90010  0.42330  0.70800  1.0000 -0.0403828547
C   C181      1.0  0.71530  0.42330  0.52320  1.0000 -0.0403828547
C   C182      1.0  0.52320  0.71530  0.42330  1.0000 -0.0403828547
C   C183      1.0  0.42330  0.52320  0.71530  1.0000 -0.0403828547
C   C184      1.0  0.80790  0.70800  0.28470  1.0000 -0.0403828547
C   C185      1.0  0.47680  0.90010  0.19210  1.0000 -0.0403828547
C   C186      1.0  0.19210  0.47680  0.90010  1.0000 -0.0403828547
C   C187      1.0  0.29200  0.09990  0.57670  1.0000 -0.0403828547
C   C188      1.0  0.70800  0.28470  0.80790  1.0000 -0.0403828547
C   C189      1.0  0.57670  0.29200  0.09990  1.0000 -0.0403828547
C   C190      1.0  0.90010  0.19210  0.47680  1.0000 -0.0403828547
C   C191      1.0  0.28470  0.80790  0.70800  1.0000 -0.0403828547
C   C192      1.0  0.09990  0.57670  0.29200  1.0000 -0.0403828547
C   C193      1.0  0.37940  0.45180  0.42660  1.0000 0.0777613624
C   C194      1.0  0.42660  0.37940  0.45180  1.0000 0.0777613624
C   C195      1.0  0.45180  0.42660  0.37940  1.0000 0.0777613624
C   C196      1.0  0.04720  0.07240  0.62060  1.0000 0.0777613624
C   C197      1.0  0.57340  0.02520  0.95280  1.0000 0.0777613624
C   C198      1.0  0.95280  0.57340  0.02520  1.0000 0.0777613624
C   C199      1.0  0.92760  0.97480  0.54820  1.0000 0.0777613624
C   C200      1.0  0.07240  0.62060  0.04720  1.0000 0.0777613624
C   C201      1.0  0.54820  0.92760  0.97480  1.0000 0.0777613624
C   C202      1.0  0.02520  0.95280  0.57340  1.0000 0.0777613624
C   C203      1.0  0.62060  0.04720  0.07240  1.0000 0.0777613624
C   C204      1.0  0.97480  0.54820  0.92760  1.0000 0.0777613624
C   C205      1.0  0.62060  0.54820  0.57340  1.0000 0.0777613624
C   C206      1.0  0.57340  0.62060  0.54820  1.0000 0.0777613624
C   C207      1.0  0.54820  0.57340  0.62060  1.0000 0.0777613624
C   C208      1.0  0.95280  0.92760  0.37940  1.0000 0.0777613624
C   C209      1.0  0.42660  0.97480  0.04720  1.0000 0.0777613624
C   C210      1.0  0.04720  0.42660  0.97480  1.0000 0.0777613624
C   C211      1.0  0.07240  0.02520  0.45180  1.0000 0.0777613624
C   C212      1.0  0.92760  0.37940  0.95280  1.0000 0.0777613624
C   C213      1.0  0.45180  0.07240  0.02520  1.0000 0.0777613624
C   C214      1.0  0.97480  0.04720  0.42660  1.0000 0.0777613624
C   C215      1.0  0.37940  0.95280  0.92760  1.0000 0.0777613624
C   C216      1.0  0.02520  0.45180  0.07240  1.0000 0.0777613624
O   O1        1.0  0.19917  0.59632  0.49785  1.0000 -0.5026446366
O   O2        1.0  0.49785  0.19917  0.59632  1.0000 -0.5026446366
O   O3        1.0  0.59632  0.49785  0.19917  1.0000 -0.5026446366
O   O4        1.0  0.29868  0.39715  0.80083  1.0000 -0.5026446366
O   O5        1.0  0.50215  0.09847  0.70132  1.0000 -0.5026446366
O   O6        1.0  0.70132  0.50215  0.09847  1.0000 -0.5026446366
O   O7        1.0  0.60285  0.90153  0.40368  1.0000 -0.5026446366
O   O8        1.0  0.39715  0.80083  0.29868  1.0000 -0.5026446366
O   O9        1.0  0.40368  0.60285  0.90153  1.0000 -0.5026446366
O   O10       1.0  0.09847  0.70132  0.50215  1.0000 -0.5026446366
O   O11       1.0  0.80083  0.29868  0.39715  1.0000 -0.5026446366
O   O12       1.0  0.90153  0.40368  0.60285  1.0000 -0.5026446366
O   O13       1.0  0.80083  0.40368  0.50215  1.0000 -0.5026446366
O   O14       1.0  0.50215  0.80083  0.40368  1.0000 -0.5026446366
O   O15       1.0  0.40368  0.50215  0.80083  1.0000 -0.5026446366
O   O16       1.0  0.70132  0.60285  0.19917  1.0000 -0.5026446366
O   O17       1.0  0.49785  0.90153  0.29868  1.0000 -0.5026446366
O   O18       1.0  0.29868  0.49785  0.90153  1.0000 -0.5026446366
O   O19       1.0  0.39715  0.09847  0.59632  1.0000 -0.5026446366
O   O20       1.0  0.60285  0.19917  0.70132  1.0000 -0.5026446366
O   O21       1.0  0.59632  0.39715  0.09847  1.0000 -0.5026446366
O   O22       1.0  0.90153  0.29868  0.49785  1.0000 -0.5026446366
O   O23       1.0  0.19917  0.70132  0.60285  1.0000 -0.5026446366
O   O24       1.0  0.09847  0.59632  0.39715  1.0000 -0.5026446366
O   O25       1.0  0.28013  0.67954  0.49755  1.0000 -0.5216708204
O   O26       1.0  0.49755  0.28013  0.67954  1.0000 -0.5216708204
O   O27       1.0  0.67954  0.49755  0.28013  1.0000 -0.5216708204
O   O28       1.0  0.21742  0.39941  0.71987  1.0000 -0.5216708204
O   O29       1.0  0.50245  0.18199  0.78258  1.0000 -0.5216708204
O   O30       1.0  0.78258  0.50245  0.18199  1.0000 -0.5216708204
O   O31       1.0  0.60059  0.81801  0.32046  1.0000 -0.5216708204
O   O32       1.0  0.39941  0.71987  0.21742  1.0000 -0.5216708204
O   O33       1.0  0.32046  0.60059  0.81801  1.0000 -0.5216708204
O   O34       1.0  0.18199  0.78258  0.50245  1.0000 -0.5216708204
O   O35       1.0  0.71987  0.21742  0.39941  1.0000 -0.5216708204
O   O36       1.0  0.81801  0.32046  0.60059  1.0000 -0.5216708204
O   O37       1.0  0.71987  0.32046  0.50245  1.0000 -0.5216708204
O   O38       1.0  0.50245  0.71987  0.32046  1.0000 -0.5216708204
O   O39       1.0  0.32046  0.50245  0.71987  1.0000 -0.5216708204
O   O40       1.0  0.78258  0.60059  0.28013  1.0000 -0.5216708204
O   O41       1.0  0.49755  0.81801  0.21742  1.0000 -0.5216708204
O   O42       1.0  0.21742  0.49755  0.81801  1.0000 -0.5216708204
O   O43       1.0  0.39941  0.18199  0.67954  1.0000 -0.5216708204
O   O44       1.0  0.60059  0.28013  0.78258  1.0000 -0.5216708204
O   O45       1.0  0.67954  0.39941  0.18199  1.0000 -0.5216708204
O   O46       1.0  0.81801  0.21742  0.49755  1.0000 -0.5216708204
O   O47       1.0  0.28013  0.78258  0.60059  1.0000 -0.5216708204
O   O48       1.0  0.18199  0.67954  0.39941  1.0000 -0.5216708204
