# DDEC6 charges by PACMAN v1.1 (https://github.com/mtap-research/PACMAN-charge/)
data_2014[Gd][nan]3[ASR]1
_chemical_formula_sum              "Gd4 H84 C138 O36"
_cell_length_a       17.427
_cell_length_b       17.427
_cell_length_c       28.494
_cell_angle_alpha    62.9528
_cell_angle_beta     117.047
_cell_angle_gamma    129.448

_symmetry_space_group_name_H-M    "P 1"
_symmetry_Int_Tables_number       1

loop_
  _symmetry_equiv_pos_as_xyz
  'x, y, z'

loop_
  _atom_site_type_symbol
  _atom_site_label
  _atom_site_symmetry_multiplicity
  _atom_site_fract_x
  _atom_site_fract_y
  _atom_site_fract_z
  _atom_site_occupancy
  _atom_site_charge
Gd  Gd1       1.0  0.61437  0.14941  0.51220  1.0000 2.0438689758
Gd  Gd2       1.0  0.14940  0.61437  0.98780  1.0000 2.0438689758
Gd  Gd3       1.0  0.38563  0.85060  0.48780  1.0000 2.0438689758
Gd  Gd4       1.0  0.85060  0.38563  0.01220  1.0000 2.0438689758
H   H1        1.0  0.50830  0.68630  0.64400  1.0000 0.3732851912
H   H2        1.0  0.68629  0.50830  0.85600  1.0000 0.3732851912
H   H3        1.0  0.49170  0.31370  0.35600  1.0000 0.3732851912
H   H4        1.0  0.31371  0.49170  0.14400  1.0000 0.3732851912
H   H5        1.0  0.75150  0.22010  0.89070  1.0000 0.3577629422
H   H6        1.0  0.22010  0.75150  0.60930  1.0000 0.3577629422
H   H7        1.0  0.24850  0.77990  0.10930  1.0000 0.3577629422
H   H8        1.0  0.77990  0.24850  0.39070  1.0000 0.3577629422
H   H9        1.0  0.64760  0.11320  0.68400  1.0000 0.3577629422
H   H10       1.0  0.11320  0.64760  0.81600  1.0000 0.3577629422
H   H11       1.0  0.35240  0.88680  0.31600  1.0000 0.3577629422
H   H12       1.0  0.88680  0.35240  0.18400  1.0000 0.3577629422
H   H13       1.0  0.70040  0.02459  0.65400  1.0000 0.1276488671
H   H14       1.0  0.02460  0.70040  0.84600  1.0000 0.1276488671
H   H15       1.0  0.29960  0.97541  0.34600  1.0000 0.1276488671
H   H16       1.0  0.97540  0.29960  0.15400  1.0000 0.1276488671
H   H17       1.0  0.63620  0.63520  0.77770  1.0000 0.1121751435
H   H18       1.0  0.63520  0.63620  0.72230  1.0000 0.1121751435
H   H19       1.0  0.36380  0.36480  0.22230  1.0000 0.1121751435
H   H20       1.0  0.36480  0.36380  0.27770  1.0000 0.1121751435
H   H21       1.0  0.78770  0.77450  0.82790  1.0000 0.1193003278
H   H22       1.0  0.77449  0.78770  0.67210  1.0000 0.1193003278
H   H23       1.0  0.21230  0.22551  0.17210  1.0000 0.1193003278
H   H24       1.0  0.22550  0.21230  0.32790  1.0000 0.1193003278
H   H25       1.0  0.85660  0.88999  0.87370  1.0000 0.1121751435
H   H26       1.0  0.88999  0.85660  0.62630  1.0000 0.1121751435
H   H27       1.0  0.14340  0.11001  0.12630  1.0000 0.1121751435
H   H28       1.0  0.11001  0.14340  0.37370  1.0000 0.1121751435
H   H29       1.0  0.10920  0.46180  0.89320  1.0000 0.1193003278
H   H30       1.0  0.46179  0.10920  0.60680  1.0000 0.1193003278
H   H31       1.0  0.89080  0.53821  0.10680  1.0000 0.1193003278
H   H32       1.0  0.53821  0.89080  0.39320  1.0000 0.1193003278
H   H33       1.0  0.68930  0.20350  0.79960  1.0000 0.1121751435
H   H34       1.0  0.20349  0.68930  0.70040  1.0000 0.1121751435
H   H35       1.0  0.31070  0.79651  0.20040  1.0000 0.1121751435
H   H36       1.0  0.79651  0.31070  0.29960  1.0000 0.1121751435
H   H37       1.0  0.73360  0.16780  0.78260  1.0000 0.1121751435
H   H38       1.0  0.16779  0.73360  0.71740  1.0000 0.1121751435
H   H39       1.0  0.26640  0.83221  0.21740  1.0000 0.1121751435
H   H40       1.0  0.83220  0.26640  0.28260  1.0000 0.1121751435
H   H41       1.0  0.86810  0.26229  0.73980  1.0000 0.1121751435
H   H42       1.0  0.26230  0.86810  0.76020  1.0000 0.1121751435
H   H43       1.0  0.13190  0.73771  0.26020  1.0000 0.1121751435
H   H44       1.0  0.73771  0.13190  0.23980  1.0000 0.1121751435
H   H45       1.0  0.64750  0.39350  0.57750  1.0000 0.1193003278
H   H46       1.0  0.39350  0.64750  0.92250  1.0000 0.1193003278
H   H47       1.0  0.35250  0.60651  0.42250  1.0000 0.1193003278
H   H48       1.0  0.60651  0.35250  0.07750  1.0000 0.1193003278
H   H49       1.0  0.71790  0.36370  0.78180  1.0000 0.1121751435
H   H50       1.0  0.36369  0.71790  0.71820  1.0000 0.1121751435
H   H51       1.0  0.28210  0.63631  0.21820  1.0000 0.1121751435
H   H52       1.0  0.63631  0.28210  0.28180  1.0000 0.1121751435
H   H53       1.0  0.69070  0.49190  0.75510  1.0000 0.0970405397
H   H54       1.0  0.49190  0.69070  0.74490  1.0000 0.0970405397
H   H55       1.0  0.30930  0.50811  0.24490  1.0000 0.0970405397
H   H56       1.0  0.50811  0.30930  0.25510  1.0000 0.0970405397
H   H57       1.0  0.01710  0.32910  0.71950  1.0000 0.1121751435
H   H58       1.0  0.32909  0.01710  0.78050  1.0000 0.1121751435
H   H59       1.0  0.98290  0.67090  0.28050  1.0000 0.1121751435
H   H60       1.0  0.67091  0.98290  0.21950  1.0000 0.1121751435
H   H61       1.0  0.62360  0.49800  0.60100  1.0000 0.1121751435
H   H62       1.0  0.49800  0.62360  0.89900  1.0000 0.1121751435
H   H63       1.0  0.37640  0.50201  0.39900  1.0000 0.1121751435
H   H64       1.0  0.50200  0.37640  0.10100  1.0000 0.1121751435
H   H65       1.0  0.79680  0.07380  0.74140  1.0000 0.1193003278
H   H66       1.0  0.07379  0.79680  0.75860  1.0000 0.1193003278
H   H67       1.0  0.20320  0.92621  0.25860  1.0000 0.1193003278
H   H68       1.0  0.92620  0.20320  0.24140  1.0000 0.1193003278
H   H69       1.0  0.90630  0.06850  0.81900  1.0000 0.1193003278
H   H70       1.0  0.06850  0.90630  0.68100  1.0000 0.1276488671
H   H71       1.0  0.09370  0.93151  0.18100  1.0000 0.1193003278
H   H72       1.0  0.93151  0.09370  0.31900  1.0000 0.1276488671
H   H73       1.0  0.17900  0.43520  0.76870  1.0000 0.1193003278
H   H74       1.0  0.43519  0.17900  0.73130  1.0000 0.1193003278
H   H75       1.0  0.82100  0.56481  0.23130  1.0000 0.1193003278
H   H76       1.0  0.56481  0.82100  0.26870  1.0000 0.1193003278
H   H77       1.0  0.18430  0.47510  0.83510  1.0000 0.1121751435
H   H78       1.0  0.47509  0.18430  0.66490  1.0000 0.1121751435
H   H79       1.0  0.81570  0.52490  0.16490  1.0000 0.1121751435
H   H80       1.0  0.52490  0.81570  0.33510  1.0000 0.1121751435
H   H81       1.0  0.63730  0.55910  0.66040  1.0000 0.1193003278
H   H82       1.0  0.55910  0.63730  0.83960  1.0000 0.1193003278
H   H83       1.0  0.36270  0.44091  0.33960  1.0000 0.1193003278
H   H84       1.0  0.44091  0.36270  0.16040  1.0000 0.1193003278
C   C1        1.0  0.63283  0.88817  0.64230  1.0000 -0.169348089
C   C2        1.0  0.88816  0.63283  0.85770  1.0000 -0.169348089
C   C3        1.0  0.36717  0.11184  0.35770  1.0000 -0.169348089
C   C4        1.0  0.11184  0.36717  0.14230  1.0000 -0.169348089
C   C5        1.0  0.69380  0.96140  0.67130  1.0000 -0.1284201871
C   C6        1.0  0.96139  0.69380  0.82870  1.0000 -0.1284201871
C   C7        1.0  0.30620  0.03861  0.32870  1.0000 -0.1284201871
C   C8        1.0  0.03861  0.30620  0.17130  1.0000 -0.1284201871
C   C9        1.0  0.74570  0.94570  0.72490  1.0000 0.051180098
C   C10       1.0  0.94570  0.74570  0.77510  1.0000 0.051180098
C   C11       1.0  0.25430  0.05431  0.27510  1.0000 0.051180098
C   C12       1.0  0.05430  0.25430  0.22490  1.0000 0.051180098
C   C13       1.0  0.73740  0.84980  0.75290  1.0000 0.051180098
C   C14       1.0  0.84979  0.73740  0.74710  1.0000 0.051180098
C   C15       1.0  0.26260  0.15021  0.24710  1.0000 0.051180098
C   C16       1.0  0.15021  0.26260  0.25290  1.0000 0.051180098
C   C17       1.0  0.68060  0.77539  0.72450  1.0000 -0.0621748268
C   C18       1.0  0.77539  0.68060  0.77550  1.0000 -0.0621748268
C   C19       1.0  0.31940  0.22460  0.27550  1.0000 -0.0621748268
C   C20       1.0  0.22460  0.31940  0.22450  1.0000 -0.0621748268
C   C21       1.0  0.62638  0.79022  0.67220  1.0000 0.2271040623
C   C22       1.0  0.79022  0.62638  0.82780  1.0000 0.2271040623
C   C23       1.0  0.37362  0.20978  0.32780  1.0000 0.2271040623
C   C24       1.0  0.20979  0.37362  0.17220  1.0000 0.2271040623
C   C25       1.0  0.67440  0.67440  0.75000  1.0000 -0.2583255799
C   C26       1.0  0.32560  0.32560  0.25000  1.0000 -0.2583255799
C   C27       1.0  0.78830  0.83469  0.80970  1.0000 -0.1503288361
C   C28       1.0  0.83469  0.78830  0.69030  1.0000 -0.1503288361
C   C29       1.0  0.21170  0.16531  0.19030  1.0000 -0.1503288361
C   C30       1.0  0.16531  0.21170  0.30970  1.0000 -0.1503288361
C   C31       1.0  0.83590  0.90529  0.83600  1.0000 -0.0897526638
C   C32       1.0  0.90530  0.83590  0.66400  1.0000 -0.0897526638
C   C33       1.0  0.16410  0.09470  0.16400  1.0000 -0.0897526638
C   C34       1.0  0.09471  0.16410  0.33600  1.0000 -0.0897526638
C   C35       1.0  0.95980  0.38200  0.88988  1.0000 -0.1566724758
C   C36       1.0  0.38200  0.95980  0.61012  1.0000 -0.1566724758
C   C37       1.0  0.04020  0.61801  0.11012  1.0000 -0.1566724758
C   C38       1.0  0.61801  0.04020  0.38988  1.0000 -0.1566724758
C   C39       1.0  0.04420  0.41900  0.87440  1.0000 -0.1503288361
C   C40       1.0  0.41900  0.04420  0.62560  1.0000 -0.1503288361
C   C41       1.0  0.95580  0.58100  0.12560  1.0000 -0.1503288361
C   C42       1.0  0.58100  0.95580  0.37440  1.0000 -0.1503288361
C   C43       1.0  0.03442  0.39358  0.83081  1.0000 0.0572958068
C   C44       1.0  0.39358  0.03442  0.66919  1.0000 0.0572958068
C   C45       1.0  0.96558  0.60642  0.16919  1.0000 0.0572958068
C   C46       1.0  0.60643  0.96558  0.33081  1.0000 0.0572958068
C   C47       1.0  0.93533  0.33167  0.80070  1.0000 0.051180098
C   C48       1.0  0.33167  0.93533  0.69930  1.0000 0.051180098
C   C49       1.0  0.06467  0.66834  0.19930  1.0000 0.051180098
C   C50       1.0  0.66834  0.06467  0.30070  1.0000 0.051180098
C   C51       1.0  0.85878  0.31481  0.85895  1.0000 0.2127711792
C   C52       1.0  0.31482  0.85878  0.64105  1.0000 0.2127711792
C   C53       1.0  0.14122  0.68519  0.14105  1.0000 0.2127711792
C   C54       1.0  0.68519  0.14122  0.35895  1.0000 0.2127711792
C   C55       1.0  0.84723  0.29617  0.81356  1.0000 -0.0393436308
C   C56       1.0  0.29617  0.84723  0.68644  1.0000 -0.0393436308
C   C57       1.0  0.15277  0.70384  0.18644  1.0000 -0.0393436308
C   C58       1.0  0.70383  0.15277  0.31356  1.0000 -0.0393436308
C   C59       1.0  0.73835  0.22745  0.78100  1.0000 -0.2583255799
C   C60       1.0  0.22745  0.73835  0.71900  1.0000 -0.2583255799
C   C61       1.0  0.26165  0.77255  0.21900  1.0000 -0.2583255799
C   C62       1.0  0.77255  0.26165  0.28100  1.0000 -0.2583255799
C   C63       1.0  0.93110  0.30589  0.75950  1.0000 -0.1503288361
C   C64       1.0  0.30590  0.93110  0.74050  1.0000 -0.1503288361
C   C65       1.0  0.06890  0.69410  0.24050  1.0000 -0.1503288361
C   C66       1.0  0.69410  0.06890  0.25950  1.0000 -0.1503288361
C   C67       1.0  0.65698  0.24721  0.58647  1.0000 0.5718841572
C   C68       1.0  0.24722  0.65698  0.91353  1.0000 0.5718841572
C   C69       1.0  0.34302  0.75279  0.41353  1.0000 0.5718841572
C   C70       1.0  0.75279  0.34302  0.08647  1.0000 0.5718841572
C   C71       1.0  0.69370  0.23670  0.68540  1.0000 0.2371895929
C   C72       1.0  0.23669  0.69370  0.81460  1.0000 0.2371895929
C   C73       1.0  0.30630  0.76331  0.31460  1.0000 0.2371895929
C   C74       1.0  0.76331  0.30630  0.18540  1.0000 0.2371895929
C   C75       1.0  0.65650  0.35950  0.61400  1.0000 -0.1098780864
C   C76       1.0  0.35950  0.65650  0.88600  1.0000 -0.1098780864
C   C77       1.0  0.34350  0.64051  0.38600  1.0000 -0.1098780864
C   C78       1.0  0.64050  0.34350  0.11400  1.0000 -0.1098780864
C   C79       1.0  0.66473  0.27827  0.62720  1.0000 -0.2072331476
C   C80       1.0  0.27827  0.66473  0.87280  1.0000 -0.2072331476
C   C81       1.0  0.33527  0.72174  0.37280  1.0000 -0.2072331476
C   C82       1.0  0.72174  0.33527  0.12720  1.0000 -0.2072331476
C   C83       1.0  0.70558  0.27382  0.72236  1.0000 -0.0674464087
C   C84       1.0  0.27381  0.70558  0.77764  1.0000 -0.0674464087
C   C85       1.0  0.29442  0.72619  0.27764  1.0000 -0.0674464087
C   C86       1.0  0.72619  0.29442  0.22236  1.0000 -0.0674464087
C   C87       1.0  0.69277  0.35483  0.70670  1.0000 0.0572958068
C   C88       1.0  0.35482  0.69277  0.79330  1.0000 0.0572958068
C   C89       1.0  0.30723  0.64518  0.29330  1.0000 0.0572958068
C   C90       1.0  0.64518  0.30723  0.20670  1.0000 0.0572958068
C   C91       1.0  0.66062  0.39517  0.65030  1.0000 0.0434199712
C   C92       1.0  0.39518  0.66062  0.84970  1.0000 0.0434199712
C   C93       1.0  0.33938  0.60483  0.34970  1.0000 0.0434199712
C   C94       1.0  0.60483  0.33938  0.15030  1.0000 0.0434199712
C   C95       1.0  0.70040  0.39160  0.74490  1.0000 -0.1503288361
C   C96       1.0  0.39160  0.70040  0.75510  1.0000 -0.1503288361
C   C97       1.0  0.29960  0.60841  0.25510  1.0000 -0.1503288361
C   C98       1.0  0.60840  0.29960  0.24490  1.0000 -0.1503288361
C   C99       1.0  0.68250  0.46750  0.72910  1.0000 -0.0897526638
C   C100      1.0  0.46749  0.68250  0.77090  1.0000 -0.0897526638
C   C101      1.0  0.31750  0.53251  0.27090  1.0000 -0.0897526638
C   C102      1.0  0.53250  0.31750  0.22910  1.0000 -0.0897526638
C   C103      1.0  0.02190  0.34590  0.74780  1.0000 -0.1098780864
C   C104      1.0  0.34589  0.02190  0.75220  1.0000 -0.1098780864
C   C105      1.0  0.97810  0.65411  0.25220  1.0000 -0.1098780864
C   C106      1.0  0.65411  0.97810  0.24780  1.0000 -0.1098780864
C   C107      1.0  0.64310  0.47089  0.63770  1.0000 -0.1355519871
C   C108      1.0  0.47090  0.64310  0.86230  1.0000 -0.1355519871
C   C109      1.0  0.35690  0.52911  0.36230  1.0000 -0.1355519871
C   C110      1.0  0.52911  0.35690  0.13770  1.0000 -0.1355519871
C   C111      1.0  0.97153  0.41107  0.93495  1.0000 0.6531540323
C   C112      1.0  0.41107  0.97153  0.56505  1.0000 0.6531540323
C   C113      1.0  0.02847  0.58893  0.06505  1.0000 0.6531540323
C   C114      1.0  0.58893  0.02847  0.43495  1.0000 0.6531540323
C   C115      1.0  0.80170  0.01670  0.75720  1.0000 -0.1284201871
C   C116      1.0  0.01669  0.80170  0.74280  1.0000 -0.1284201871
C   C117      1.0  0.19830  0.98330  0.24280  1.0000 -0.1284201871
C   C118      1.0  0.98330  0.19830  0.25720  1.0000 -0.1284201871
C   C119      1.0  0.85650  0.01150  0.80440  1.0000 -0.0831503682
C   C120      1.0  0.01149  0.85650  0.69560  1.0000 -0.0831503682
C   C121      1.0  0.14350  0.98850  0.19560  1.0000 -0.0831503682
C   C122      1.0  0.98850  0.14350  0.30440  1.0000 -0.0831503682
C   C123      1.0  0.57391  0.90469  0.58690  1.0000 0.6531540323
C   C124      1.0  0.90468  0.57391  0.91310  1.0000 0.6531540323
C   C125      1.0  0.42609  0.09532  0.41310  1.0000 0.6531540323
C   C126      1.0  0.09531  0.42609  0.08690  1.0000 0.6531540323
C   C127      1.0  0.11940  0.40980  0.77670  1.0000 -0.0959901716
C   C128      1.0  0.40980  0.11940  0.72330  1.0000 -0.0959901716
C   C129      1.0  0.88060  0.59021  0.22330  1.0000 -0.0959901716
C   C130      1.0  0.59021  0.88060  0.27670  1.0000 -0.0959901716
C   C131      1.0  0.12090  0.43129  0.81590  1.0000 -0.1503288361
C   C132      1.0  0.43129  0.12090  0.68410  1.0000 -0.1503288361
C   C133      1.0  0.87910  0.56871  0.18410  1.0000 -0.1503288361
C   C134      1.0  0.56871  0.87910  0.31590  1.0000 -0.1503288361
C   C135      1.0  0.65120  0.50880  0.67230  1.0000 -0.1284201871
C   C136      1.0  0.50879  0.65120  0.82770  1.0000 -0.1284201871
C   C137      1.0  0.34880  0.49121  0.32770  1.0000 -0.1284201871
C   C138      1.0  0.49120  0.34880  0.17230  1.0000 -0.1284201871
O   O1        1.0  0.56859  0.71721  0.64420  1.0000 -0.4026427138
O   O2        1.0  0.71720  0.56859  0.85580  1.0000 -0.4026427138
O   O3        1.0  0.43141  0.28280  0.35580  1.0000 -0.4026427138
O   O4        1.0  0.28280  0.43141  0.14420  1.0000 -0.4026427138
O   O5        1.0  0.77263  0.27877  0.87181  1.0000 -0.4298523645
O   O6        1.0  0.27877  0.77263  0.62819  1.0000 -0.4298523645
O   O7        1.0  0.22737  0.72124  0.12819  1.0000 -0.4298523645
O   O8        1.0  0.72123  0.22737  0.37181  1.0000 -0.4298523645
O   O9        1.0  0.70101  0.15819  0.69876  1.0000 -0.4026427138
O   O10       1.0  0.15818  0.70101  0.80124  1.0000 -0.4026427138
O   O11       1.0  0.29899  0.84182  0.30124  1.0000 -0.4026427138
O   O12       1.0  0.84181  0.29899  0.19876  1.0000 -0.4026427138
O   O13       1.0  0.89113  0.37347  0.94909  1.0000 -0.7024179231
O   O14       1.0  0.37347  0.89113  0.55091  1.0000 -0.7024179231
O   O15       1.0  0.10887  0.62653  0.05091  1.0000 -0.7024179231
O   O16       1.0  0.62653  0.10887  0.44909  1.0000 -0.7024179231
O   O17       1.0  0.05698  0.46342  0.95910  1.0000 -0.5597585421
O   O18       1.0  0.46342  0.05698  0.54090  1.0000 -0.5597585421
O   O19       1.0  0.94302  0.53658  0.04090  1.0000 -0.5597585421
O   O20       1.0  0.53659  0.94302  0.45910  1.0000 -0.5597585421
O   O21       1.0  0.67628  0.17791  0.59890  1.0000 -0.6866703312
O   O22       1.0  0.17791  0.67628  0.90110  1.0000 -0.6866703312
O   O23       1.0  0.32372  0.82208  0.40110  1.0000 -0.6866703312
O   O24       1.0  0.82208  0.32372  0.09890  1.0000 -0.6866703312
O   O25       1.0  0.62617  0.27682  0.53539  1.0000 -0.6103486102
O   O26       1.0  0.27683  0.62617  0.96461  1.0000 -0.6103486102
O   O27       1.0  0.37383  0.72318  0.46461  1.0000 -0.6103486102
O   O28       1.0  0.72318  0.37383  0.03539  1.0000 -0.6103486102
O   O29       1.0  0.59064  0.99196  0.56254  1.0000 -0.6759258787
O   O30       1.0  0.99196  0.59064  0.93746  1.0000 -0.6759258787
O   O31       1.0  0.40936  0.00805  0.43746  1.0000 -0.6759258787
O   O32       1.0  0.00805  0.40936  0.06254  1.0000 -0.6759258787
O   O33       1.0  0.50357  0.82583  0.56543  1.0000 -0.6622064541
O   O34       1.0  0.82583  0.50357  0.93457  1.0000 -0.6622064541
O   O35       1.0  0.49643  0.17418  0.43457  1.0000 -0.6622064541
O   O36       1.0  0.17418  0.49643  0.06543  1.0000 -0.6622064541
