# DDEC6 charges by PACMAN v1.1 (https://github.com/mtap-research/PACMAN-charge/)
data_2014[Zn][cds]3[ASR]4
_chemical_formula_sum              "Zn6 H56 C80 N12 O28"
_cell_length_a       14.7876
_cell_length_b       14.7876
_cell_length_c       13.435
_cell_angle_alpha    72.013
_cell_angle_beta     107.987
_cell_angle_gamma    66.8482

_symmetry_space_group_name_H-M    "P 1"
_symmetry_Int_Tables_number       1

loop_
  _symmetry_equiv_pos_as_xyz
  'x, y, z'

loop_
  _atom_site_type_symbol
  _atom_site_label
  _atom_site_symmetry_multiplicity
  _atom_site_fract_x
  _atom_site_fract_y
  _atom_site_fract_z
  _atom_site_occupancy
  _atom_site_charge
Zn  Zn1       1.0  0.50000  0.50000  0.00000  1.0000 0.8703997579
Zn  Zn2       1.0  0.50000  0.50000  0.50000  1.0000 0.8703997579
Zn  Zn3       1.0  0.62253  0.27271  0.27097  1.0000 0.8515678492
Zn  Zn4       1.0  0.27271  0.62253  0.22903  1.0000 0.8515678492
Zn  Zn5       1.0  0.37747  0.72729  0.72903  1.0000 0.8515678492
Zn  Zn6       1.0  0.72729  0.37747  0.77097  1.0000 0.8515678492
H   H1        1.0  0.43950  0.43650  0.15470  1.0000 0.3721928146
H   H2        1.0  0.43650  0.43950  0.34530  1.0000 0.3721928146
H   H3        1.0  0.56050  0.56350  0.84530  1.0000 0.3721928146
H   H4        1.0  0.56350  0.56050  0.65470  1.0000 0.3721928146
H   H5        1.0  0.04940  0.76900  0.61540  1.0000 0.1367969807
H   H6        1.0  0.76900  0.04940  0.88460  1.0000 0.1367969807
H   H7        1.0  0.95060  0.23100  0.38460  1.0000 0.1367969807
H   H8        1.0  0.23100  0.95060  0.11540  1.0000 0.1367969807
H   H9        1.0  0.85870  0.70770  0.74800  1.0000 0.1274144572
H   H10       1.0  0.70770  0.85870  0.75200  1.0000 0.1274144572
H   H11       1.0  0.14130  0.29230  0.25200  1.0000 0.1274144572
H   H12       1.0  0.29230  0.14130  0.24800  1.0000 0.1274144572
H   H13       1.0  0.00350  0.62610  0.94140  1.0000 0.1208202187
H   H14       1.0  0.62610  0.00350  0.55860  1.0000 0.1208202187
H   H15       1.0  0.99650  0.37390  0.05860  1.0000 0.1208202187
H   H16       1.0  0.37390  0.99650  0.44140  1.0000 0.1208202187
H   H17       1.0  0.35500  0.39100  0.98420  1.0000 0.113331222
H   H18       1.0  0.39100  0.35500  0.51580  1.0000 0.113331222
H   H19       1.0  0.64500  0.60900  0.01580  1.0000 0.113331222
H   H20       1.0  0.60900  0.64500  0.48420  1.0000 0.113331222
H   H21       1.0  0.33740  0.26060  0.93800  1.0000 0.1208202187
H   H22       1.0  0.26060  0.33740  0.56200  1.0000 0.1208202187
H   H23       1.0  0.66260  0.73940  0.06200  1.0000 0.1208202187
H   H24       1.0  0.73940  0.66260  0.43800  1.0000 0.1208202187
H   H25       1.0  0.57230  0.23030  0.83660  1.0000 0.1274144572
H   H26       1.0  0.23030  0.57230  0.66340  1.0000 0.1274144572
H   H27       1.0  0.42770  0.76970  0.16340  1.0000 0.1274144572
H   H28       1.0  0.76970  0.42770  0.33660  1.0000 0.1274144572
H   H29       1.0  0.58350  0.35970  0.88770  1.0000 0.113331222
H   H30       1.0  0.35970  0.58350  0.61230  1.0000 0.113331222
H   H31       1.0  0.41650  0.64030  0.11230  1.0000 0.113331222
H   H32       1.0  0.64030  0.41650  0.38770  1.0000 0.113331222
H   H33       1.0  0.49750  0.11550  0.81880  1.0000 0.113331222
H   H34       1.0  0.11550  0.49750  0.68120  1.0000 0.113331222
H   H35       1.0  0.50250  0.88450  0.18120  1.0000 0.113331222
H   H36       1.0  0.88450  0.50250  0.31880  1.0000 0.113331222
H   H37       1.0  0.32920  0.14020  0.87140  1.0000 0.113331222
H   H38       1.0  0.14020  0.32920  0.62860  1.0000 0.1208202187
H   H39       1.0  0.67080  0.85980  0.12860  1.0000 0.1208202187
H   H40       1.0  0.85980  0.67080  0.37140  1.0000 0.113331222
H   H41       1.0  0.26430  0.87850  0.81420  1.0000 0.113331222
H   H42       1.0  0.87850  0.26430  0.68580  1.0000 0.113331222
H   H43       1.0  0.73570  0.12150  0.18580  1.0000 0.113331222
H   H44       1.0  0.12150  0.73570  0.31420  1.0000 0.113331222
H   H45       1.0  0.26370  0.01470  0.85950  1.0000 0.1367969807
H   H46       1.0  0.01470  0.26370  0.64050  1.0000 0.1367969807
H   H47       1.0  0.73630  0.98530  0.14050  1.0000 0.1367969807
H   H48       1.0  0.98530  0.73630  0.35950  1.0000 0.1367969807
H   H49       1.0  0.49450  0.99670  0.75830  1.0000 0.1274144572
H   H50       1.0  0.99670  0.49450  0.74170  1.0000 0.1274144572
H   H51       1.0  0.50550  0.00330  0.24170  1.0000 0.1274144572
H   H52       1.0  0.00330  0.50550  0.25830  1.0000 0.1274144572
H   H53       1.0  0.49200  0.85660  0.72140  1.0000 0.113331222
H   H54       1.0  0.85660  0.49200  0.77860  1.0000 0.113331222
H   H55       1.0  0.50800  0.14340  0.27860  1.0000 0.113331222
H   H56       1.0  0.14340  0.50800  0.22140  1.0000 0.113331222
C   C1        1.0  0.11370  0.65030  0.89580  1.0000 0.0012790182
C   C2        1.0  0.65030  0.11370  0.60420  1.0000 0.0012790182
C   C3        1.0  0.88630  0.34970  0.10420  1.0000 0.0012790182
C   C4        1.0  0.34970  0.88630  0.39580  1.0000 0.0012790182
C   C5        1.0  0.12820  0.69120  0.79650  1.0000 -0.0415017906
C   C6        1.0  0.69120  0.12820  0.70350  1.0000 -0.0415017906
C   C7        1.0  0.87180  0.30880  0.20350  1.0000 -0.0415017906
C   C8        1.0  0.30880  0.87180  0.29650  1.0000 -0.0415017906
C   C9        1.0  0.04140  0.73940  0.68170  1.0000 -0.1570569504
C   C10       1.0  0.73940  0.04140  0.81830  1.0000 -0.1570569504
C   C11       1.0  0.95860  0.26060  0.31830  1.0000 -0.1570569504
C   C12       1.0  0.26060  0.95860  0.18170  1.0000 -0.1570569504
C   C13       1.0  0.94320  0.74340  0.66570  1.0000 0.0503028348
C   C14       1.0  0.74340  0.94320  0.83430  1.0000 0.0503028348
C   C15       1.0  0.05680  0.25660  0.33430  1.0000 0.0503028348
C   C16       1.0  0.25660  0.05680  0.16570  1.0000 0.0503028348
C   C17       1.0  0.92610  0.70310  0.76070  1.0000 -0.150799476
C   C18       1.0  0.70310  0.92610  0.73930  1.0000 -0.150799476
C   C19       1.0  0.07390  0.29690  0.23930  1.0000 -0.150799476
C   C20       1.0  0.29690  0.07390  0.26070  1.0000 -0.150799476
C   C21       1.0  0.01280  0.65540  0.87590  1.0000 -0.1197726134
C   C22       1.0  0.65540  0.01280  0.62410  1.0000 -0.1197726134
C   C23       1.0  0.98720  0.34460  0.12410  1.0000 -0.1197726134
C   C24       1.0  0.34460  0.98720  0.37590  1.0000 -0.1197726134
C   C25       1.0  0.19980  0.60080  0.02340  1.0000 0.572586022
C   C26       1.0  0.60080  0.19980  0.47660  1.0000 0.572586022
C   C27       1.0  0.80020  0.39920  0.97660  1.0000 0.572586022
C   C28       1.0  0.39920  0.80020  0.52340  1.0000 0.572586022
C   C29       1.0  0.23810  0.68110  0.81460  1.0000 0.572586022
C   C30       1.0  0.68110  0.23810  0.68540  1.0000 0.572586022
C   C31       1.0  0.76190  0.31890  0.18540  1.0000 0.572586022
C   C32       1.0  0.31890  0.76190  0.31460  1.0000 0.572586022
C   C33       1.0  0.39910  0.35770  0.95410  1.0000 0.0890261695
C   C34       1.0  0.35770  0.39910  0.54590  1.0000 0.0890261695
C   C35       1.0  0.60090  0.64230  0.04590  1.0000 0.0890261695
C   C36       1.0  0.64230  0.60090  0.45410  1.0000 0.0890261695
C   C37       1.0  0.38770  0.27970  0.92640  1.0000 -0.2088773105
C   C38       1.0  0.27970  0.38770  0.57360  1.0000 -0.2088773105
C   C39       1.0  0.61230  0.72030  0.07360  1.0000 -0.2088773105
C   C40       1.0  0.72030  0.61230  0.42640  1.0000 -0.2088773105
C   C41       1.0  0.45350  0.22850  0.88000  1.0000 0.1575547751
C   C42       1.0  0.22850  0.45350  0.62000  1.0000 0.1575547751
C   C43       1.0  0.54650  0.77150  0.12000  1.0000 0.1575547751
C   C44       1.0  0.77150  0.54650  0.38000  1.0000 0.1575547751
C   C45       1.0  0.52700  0.26160  0.86670  1.0000 -0.2007887106
C   C46       1.0  0.26160  0.52700  0.63330  1.0000 -0.2007887106
C   C47       1.0  0.47300  0.73840  0.13330  1.0000 -0.2007887106
C   C48       1.0  0.73840  0.47300  0.36670  1.0000 -0.2007887106
C   C49       1.0  0.53330  0.33950  0.89720  1.0000 0.0890261695
C   C50       1.0  0.33950  0.53330  0.60280  1.0000 0.0890261695
C   C51       1.0  0.46670  0.66050  0.10280  1.0000 0.0890261695
C   C52       1.0  0.66050  0.46670  0.39720  1.0000 0.0890261695
C   C53       1.0  0.44790  0.14550  0.84530  1.0000 -0.1570569504
C   C54       1.0  0.14550  0.44790  0.65470  1.0000 -0.1570569504
C   C55       1.0  0.55210  0.85450  0.15470  1.0000 -0.1570569504
C   C56       1.0  0.85450  0.55210  0.34530  1.0000 -0.1570569504
C   C57       1.0  0.38090  0.10870  0.84770  1.0000 -0.1346766617
C   C58       1.0  0.10870  0.38090  0.65230  1.0000 -0.1346766617
C   C59       1.0  0.61910  0.89130  0.15230  1.0000 -0.1346766617
C   C60       1.0  0.89130  0.61910  0.34770  1.0000 -0.1346766617
C   C61       1.0  0.31240  0.90160  0.80410  1.0000 0.0890261695
C   C62       1.0  0.90160  0.31240  0.69590  1.0000 0.0890261695
C   C63       1.0  0.68760  0.09840  0.19590  1.0000 0.0890261695
C   C64       1.0  0.09840  0.68760  0.30410  1.0000 0.0890261695
C   C65       1.0  0.31110  0.98430  0.83100  1.0000 -0.1892752371
C   C66       1.0  0.98430  0.31110  0.66900  1.0000 -0.1892752371
C   C67       1.0  0.68890  0.01570  0.16900  1.0000 -0.1892752371
C   C68       1.0  0.01570  0.68890  0.33100  1.0000 -0.1892752371
C   C69       1.0  0.37960  0.02200  0.81600  1.0000 0.1575547751
C   C70       1.0  0.02200  0.37960  0.68400  1.0000 0.1575547751
C   C71       1.0  0.62040  0.97800  0.18400  1.0000 0.1575547751
C   C72       1.0  0.97800  0.62040  0.31600  1.0000 0.1575547751
C   C73       1.0  0.44770  0.97310  0.77200  1.0000 -0.1892752371
C   C74       1.0  0.97310  0.44770  0.72800  1.0000 -0.1892752371
C   C75       1.0  0.55230  0.02690  0.22800  1.0000 -0.1892752371
C   C76       1.0  0.02690  0.55230  0.27200  1.0000 -0.1892752371
C   C77       1.0  0.44480  0.88940  0.74910  1.0000 0.0783380564
C   C78       1.0  0.88940  0.44480  0.75090  1.0000 0.0783380564
C   C79       1.0  0.55520  0.11060  0.25090  1.0000 0.0783380564
C   C80       1.0  0.11060  0.55520  0.24910  1.0000 0.0783380564
N   N1        1.0  0.85410  0.79030  0.54500  1.0000 0.4838091578
N   N2        1.0  0.79030  0.85410  0.95500  1.0000 0.4871910062
N   N3        1.0  0.14590  0.20970  0.45500  1.0000 0.4838091578
N   N4        1.0  0.20970  0.14590  0.04500  1.0000 0.4871910062
N   N5        1.0  0.46930  0.38870  0.94080  1.0000 -0.2399613339
N   N6        1.0  0.38870  0.46930  0.55920  1.0000 -0.2399613339
N   N7        1.0  0.53070  0.61130  0.05920  1.0000 -0.2399613339
N   N8        1.0  0.61130  0.53070  0.44080  1.0000 -0.2399613339
N   N9        1.0  0.37840  0.85280  0.76440  1.0000 -0.2399613339
N   N10       1.0  0.85280  0.37840  0.73560  1.0000 -0.2399613339
N   N11       1.0  0.62160  0.14720  0.23560  1.0000 -0.2399613339
N   N12       1.0  0.14720  0.62160  0.26440  1.0000 -0.2399613339
O   O1        1.0  0.20050  0.67270  0.05640  1.0000 -0.5409290993
O   O2        1.0  0.67270  0.20050  0.44360  1.0000 -0.5409290993
O   O3        1.0  0.79950  0.32730  0.94360  1.0000 -0.5409290993
O   O4        1.0  0.32730  0.79950  0.55640  1.0000 -0.5409290993
O   O5        1.0  0.25770  0.49770  0.08950  1.0000 -0.5409290993
O   O6        1.0  0.49770  0.25770  0.41050  1.0000 -0.5409290993
O   O7        1.0  0.74230  0.50230  0.91050  1.0000 -0.5409290993
O   O8        1.0  0.50230  0.74230  0.58950  1.0000 -0.5409290993
O   O9        1.0  0.31930  0.62110  0.91650  1.0000 -0.5092817698
O   O10       1.0  0.62110  0.31930  0.58350  1.0000 -0.5092817698
O   O11       1.0  0.68070  0.37890  0.08350  1.0000 -0.5092817698
O   O12       1.0  0.37890  0.68070  0.41650  1.0000 -0.5092817698
O   O13       1.0  0.23630  0.73790  0.71970  1.0000 -0.5409290993
O   O14       1.0  0.73790  0.23630  0.78030  1.0000 -0.5409290993
O   O15       1.0  0.76370  0.26210  0.28030  1.0000 -0.5409290993
O   O16       1.0  0.26210  0.76370  0.21970  1.0000 -0.5409290993
O   O17       1.0  0.87420  0.81220  0.46390  1.0000 -0.2893212367
O   O18       1.0  0.81220  0.87420  0.03610  1.0000 -0.2893212367
O   O19       1.0  0.12580  0.18780  0.53610  1.0000 -0.2893212367
O   O20       1.0  0.18780  0.12580  0.96390  1.0000 -0.2893212367
O   O21       1.0  0.76560  0.80160  0.52970  1.0000 -0.2893212367
O   O22       1.0  0.80160  0.76560  0.97030  1.0000 -0.2893212367
O   O23       1.0  0.23440  0.19840  0.47030  1.0000 -0.2893212367
O   O24       1.0  0.19840  0.23440  0.02970  1.0000 -0.2893212367
O   O25       1.0  0.50123  0.42083  0.15440  1.0000 -0.8432350907
O   O26       1.0  0.42083  0.50123  0.34560  1.0000 -0.8432350907
O   O27       1.0  0.49877  0.57917  0.84560  1.0000 -0.8432350907
O   O28       1.0  0.57917  0.49877  0.65440  1.0000 -0.8432350907
