# DDEC6 charges by PACMAN v1.1 (https://github.com/mtap-research/PACMAN-charge/)
data_2014[Co][bpq]3[ASR]1
_chemical_formula_sum              "Co4 H44 C68 N4 O22"
_cell_length_a       11.3765
_cell_length_b       11.3765
_cell_length_c       14.365
_cell_angle_alpha    70.3307
_cell_angle_beta     109.669
_cell_angle_gamma    98.8335

_symmetry_space_group_name_H-M    "P 1"
_symmetry_Int_Tables_number       1

loop_
  _symmetry_equiv_pos_as_xyz
  'x, y, z'

loop_
  _atom_site_type_symbol
  _atom_site_label
  _atom_site_symmetry_multiplicity
  _atom_site_fract_x
  _atom_site_fract_y
  _atom_site_fract_z
  _atom_site_occupancy
  _atom_site_charge
Co  Co1       1.0  0.32554  0.70832  0.84239  1.0000 1.0409525575
Co  Co2       1.0  0.29168  0.67446  0.34239  1.0000 1.0409525575
Co  Co3       1.0  0.30067  0.70237  0.58542  1.0000 1.0486013832
Co  Co4       1.0  0.29763  0.69933  0.08542  1.0000 1.0486013832
H   H1        1.0  0.08280  0.32640  0.37610  1.0000 0.1389573854
H   H2        1.0  0.67360  0.91720  0.87610  1.0000 0.1389573854
H   H3        1.0  0.92200  0.46120  0.27670  1.0000 0.1389573854
H   H4        1.0  0.53880  0.07800  0.77670  1.0000 0.1389573854
H   H5        1.0  0.68570  0.16530  0.25880  1.0000 0.1389573854
H   H6        1.0  0.83470  0.31430  0.75880  1.0000 0.1389573854
H   H7        1.0  0.84580  0.03680  0.35780  1.0000 0.1293069011
H   H8        1.0  0.96320  0.15420  0.85780  1.0000 0.1293069011
H   H9        1.0  0.61490  0.70270  0.06140  1.0000 0.1389573854
H   H10       1.0  0.29730  0.38510  0.56140  1.0000 0.1389573854
H   H11       1.0  0.78130  0.57870  0.16080  1.0000 0.1389573854
H   H12       1.0  0.42130  0.21870  0.66080  1.0000 0.1389573854
H   H13       1.0  0.53740  0.27980  0.18410  1.0000 0.1293069011
H   H14       1.0  0.72020  0.46260  0.68410  1.0000 0.1293069011
H   H15       1.0  0.37980  0.41060  0.07440  1.0000 0.1389573854
H   H16       1.0  0.58940  0.62020  0.57440  1.0000 0.1389573854
H   H17       1.0  0.11530  0.97170  0.74540  1.0000 0.1192195201
H   H18       1.0  0.02830  0.88470  0.24540  1.0000 0.1192195201
H   H19       1.0  0.95340  0.06120  0.60530  1.0000 0.1097370527
H   H20       1.0  0.93880  0.04660  0.10530  1.0000 0.1097370527
H   H21       1.0  0.93140  0.27540  0.55160  1.0000 0.1018922768
H   H22       1.0  0.72460  0.06860  0.05160  1.0000 0.1018922768
H   H23       1.0  0.07700  0.40240  0.63250  1.0000 0.1192195201
H   H24       1.0  0.59760  0.92300  0.13250  1.0000 0.1192195201
H   H25       1.0  0.44760  0.11300  0.98060  1.0000 0.1293069011
H   H26       1.0  0.88700  0.55240  0.48060  1.0000 0.1293069011
H   H27       1.0  0.42380  0.32440  0.92960  1.0000 0.1097370527
H   H28       1.0  0.67560  0.57620  0.42960  1.0000 0.1097370527
H   H29       1.0  0.52010  0.42330  0.39080  1.0000 0.1192195201
H   H30       1.0  0.57670  0.47990  0.89080  1.0000 0.1192195201
H   H31       1.0  0.70360  0.33360  0.50180  1.0000 0.1018922768
H   H32       1.0  0.66640  0.29640  0.00180  1.0000 0.1018922768
H   H33       1.0  0.71480  0.11680  0.56020  1.0000 0.1097370527
H   H34       1.0  0.88320  0.28520  0.06020  1.0000 0.1097370527
H   H35       1.0  0.55210  0.99410  0.49620  1.0000 0.1293069011
H   H36       1.0  0.00590  0.44790  0.99620  1.0000 0.1293069011
H   H37       1.0  0.15050  0.28830  0.19240  1.0000 0.1192195201
H   H38       1.0  0.71170  0.84950  0.69240  1.0000 0.1192195201
H   H39       1.0  0.16420  0.06980  0.24580  1.0000 0.1192195201
H   H40       1.0  0.93020  0.83580  0.74580  1.0000 0.1192195201
H   H41       1.0  0.15700  0.79640  0.65620  1.0000 0.4308139326
H   H42       1.0  0.20360  0.84300  0.15620  1.0000 0.4308139326
H   H43       1.0  0.27750  0.88490  0.65730  1.0000 0.4308139326
H   H44       1.0  0.11510  0.72250  0.15730  1.0000 0.4308139326
C   C1        1.0  0.00140  0.29480  0.35340  1.0000 -0.0605092926
C   C2        1.0  0.70520  0.99860  0.85340  1.0000 -0.0605092926
C   C3        1.0  0.90530  0.37530  0.29230  1.0000 -0.1809879177
C   C4        1.0  0.62470  0.09470  0.79230  1.0000 -0.1809879177
C   C5        1.0  0.78280  0.32900  0.25380  1.0000 0.0785284581
C   C6        1.0  0.67100  0.21720  0.75380  1.0000 0.0785284581
C   C7        1.0  0.76530  0.20010  0.28190  1.0000 -0.1853545962
C   C8        1.0  0.79990  0.23470  0.78190  1.0000 -0.1853545962
C   C9        1.0  0.86080  0.12280  0.34240  1.0000 -0.0605092926
C   C10       1.0  0.87720  0.13920  0.84240  1.0000 -0.0605092926
C   C11       1.0  0.60100  0.61660  0.08550  1.0000 -0.0048035436
C   C12       1.0  0.38340  0.39900  0.58550  1.0000 -0.0048035436
C   C13       1.0  0.70050  0.54330  0.14610  1.0000 -0.1809879177
C   C14       1.0  0.45670  0.29950  0.64610  1.0000 -0.1809879177
C   C15       1.0  0.67820  0.41200  0.18630  1.0000 0.1018922768
C   C16       1.0  0.58800  0.32180  0.68630  1.0000 0.1018922768
C   C17       1.0  0.55550  0.36490  0.15880  1.0000 -0.1809879177
C   C18       1.0  0.63510  0.44450  0.65880  1.0000 -0.1809879177
C   C19       1.0  0.46100  0.44340  0.09460  1.0000 -0.0133382382
C   C20       1.0  0.55660  0.53900  0.59460  1.0000 -0.0133382382
C   C21       1.0  0.10860  0.05780  0.72370  1.0000 -0.1379371964
C   C22       1.0  0.94220  0.89140  0.22370  1.0000 -0.1379371964
C   C23       1.0  0.01160  0.11080  0.64050  1.0000 -0.086978717
C   C24       1.0  0.88920  0.98840  0.14050  1.0000 -0.086978717
C   C25       1.0  0.99930  0.24010  0.60770  1.0000 -0.1122788919
C   C26       1.0  0.75990  0.00070  0.10770  1.0000 -0.1122788919
C   C27       1.0  0.08580  0.31640  0.65670  1.0000 -0.150216466
C   C28       1.0  0.68360  0.91420  0.15670  1.0000 -0.150216466
C   C29       1.0  0.19050  0.26330  0.74580  1.0000 0.0565382669
C   C30       1.0  0.73670  0.80950  0.24580  1.0000 0.0565382669
C   C31       1.0  0.20170  0.13210  0.77940  1.0000 0.0487215228
C   C32       1.0  0.86790  0.79830  0.27940  1.0000 0.0487215228
C   C33       1.0  0.30190  0.07650  0.86720  1.0000 -0.0488616621
C   C34       1.0  0.92350  0.69810  0.36720  1.0000 -0.0488616621
C   C35       1.0  0.38290  0.14930  0.92190  1.0000 -0.13061809
C   C36       1.0  0.85070  0.61710  0.42190  1.0000 -0.13061809
C   C37       1.0  0.36870  0.27690  0.89020  1.0000 -0.117127238
C   C38       1.0  0.72310  0.63130  0.39020  1.0000 -0.117127238
C   C39       1.0  0.27730  0.33550  0.80330  1.0000 -0.0605092926
C   C40       1.0  0.66450  0.72270  0.30330  1.0000 -0.0605092926
C   C41       1.0  0.28020  0.47800  0.77110  1.0000 0.5906640234
C   C42       1.0  0.52200  0.71980  0.27110  1.0000 0.5906640234
C   C43       1.0  0.31340  0.93660  0.90490  1.0000 0.6089723052
C   C44       1.0  0.06340  0.68660  0.40490  1.0000 0.6089723052
C   C45       1.0  0.52570  0.33710  0.41070  1.0000 -0.1379371964
C   C46       1.0  0.66290  0.47430  0.91070  1.0000 -0.1379371964
C   C47       1.0  0.63470  0.28370  0.47820  1.0000 -0.1122788919
C   C48       1.0  0.71630  0.36530  0.97820  1.0000 -0.1122788919
C   C49       1.0  0.64220  0.15320  0.51170  1.0000 -0.0987814946
C   C50       1.0  0.84680  0.35780  0.01170  1.0000 -0.0987814946
C   C51       1.0  0.54490  0.08010  0.47410  1.0000 -0.1379371964
C   C52       1.0  0.91990  0.45510  0.97410  1.0000 -0.1379371964
C   C53       1.0  0.43440  0.13140  0.40360  1.0000 0.0675145479
C   C54       1.0  0.86860  0.56560  0.90360  1.0000 0.0675145479
C   C55       1.0  0.42350  0.26490  0.37150  1.0000 0.0487215228
C   C56       1.0  0.73510  0.57650  0.87150  1.0000 0.0487215228
C   C57       1.0  0.31170  0.32010  0.29640  1.0000 -0.0605092926
C   C58       1.0  0.67990  0.68830  0.79640  1.0000 -0.0605092926
C   C59       1.0  0.21862  0.25000  0.24651  1.0000 -0.13061809
C   C60       1.0  0.75000  0.78138  0.74651  1.0000 -0.13061809
C   C61       1.0  0.22785  0.11743  0.27884  1.0000 -0.0987814946
C   C62       1.0  0.88257  0.77215  0.77884  1.0000 -0.0987814946
C   C63       1.0  0.32769  0.05909  0.35691  1.0000 -0.086978717
C   C64       1.0  0.94091  0.67231  0.85691  1.0000 -0.086978717
C   C65       1.0  0.32403  0.92177  0.39683  1.0000 0.6179073991
C   C66       1.0  0.07823  0.67597  0.89683  1.0000 0.6179073991
C   C67       1.0  0.29468  0.45762  0.26855  1.0000 0.5906640234
C   C68       1.0  0.54238  0.70532  0.76855  1.0000 0.5906640234
N   N1        1.0  0.97520  0.16920  0.37970  1.0000 0.313757831
N   N2        1.0  0.83080  0.02480  0.87970  1.0000 0.313757831
N   N3        1.0  0.48460  0.56800  0.06020  1.0000 0.3184321465
N   N4        1.0  0.43200  0.51540  0.56020  1.0000 0.3184321465
O   O1        1.0  0.06790  0.09510  0.43940  1.0000 -0.4960007725
O   O2        1.0  0.90490  0.93210  0.93940  1.0000 -0.4960007725
O   O3        1.0  0.39030  0.64330  0.00530  1.0000 -0.5255116282
O   O4        1.0  0.35670  0.60970  0.50530  1.0000 -0.5255116282
O   O5        1.0  0.25310  0.53270  0.67640  1.0000 -0.5580799786
O   O6        1.0  0.46730  0.74690  0.17640  1.0000 -0.5580799786
O   O7        1.0  0.31050  0.52570  0.84260  1.0000 -0.5580799786
O   O8        1.0  0.47430  0.68950  0.34260  1.0000 -0.5580799786
O   O9        1.0  0.29180  0.88120  0.98900  1.0000 -0.5580799786
O   O10       1.0  0.11880  0.70820  0.48900  1.0000 -0.5580799786
O   O11       1.0  0.34460  0.88940  0.85000  1.0000 -0.5782913027
O   O12       1.0  0.11060  0.65540  0.35000  1.0000 -0.5782913027
O   O13       1.0  0.34140  0.87420  0.49340  1.0000 -0.5782913027
O   O14       1.0  0.12580  0.65860  0.99340  1.0000 -0.5782913027
O   O15       1.0  0.29910  0.86150  0.33310  1.0000 -0.5858141242
O   O16       1.0  0.13850  0.70090  0.83310  1.0000 -0.5858141242
O   O17       1.0  0.30010  0.52110  0.18160  1.0000 -0.5580799786
O   O18       1.0  0.47890  0.69990  0.68160  1.0000 -0.5580799786
O   O19       1.0  0.27850  0.49590  0.33460  1.0000 -0.5483262001
O   O20       1.0  0.50410  0.72150  0.83460  1.0000 -0.5483262001
O   O21       1.0  0.24734  0.79816  0.67484  1.0000 -0.7531774698
O   O22       1.0  0.20184  0.75266  0.17484  1.0000 -0.7531774698
