# DDEC6 charges by PACMAN v1.1 (https://github.com/mtap-research/PACMAN-charge/)
data_2014[Mn][nan]3[ASR]2
_chemical_formula_sum              "Mn12 H36 C84 N12 O48"
_cell_length_a       13.2579
_cell_length_b       11.438
_cell_length_c       29.5156
_cell_angle_alpha    90
_cell_angle_beta     106.377
_cell_angle_gamma    90

_symmetry_space_group_name_H-M    "P 1"
_symmetry_Int_Tables_number       1

loop_
  _symmetry_equiv_pos_as_xyz
  'x, y, z'

loop_
  _atom_site_type_symbol
  _atom_site_label
  _atom_site_symmetry_multiplicity
  _atom_site_fract_x
  _atom_site_fract_y
  _atom_site_fract_z
  _atom_site_occupancy
  _atom_site_charge
Mn  Mn1       1.0  0.29036  0.54889  0.33137  1.0000 1.1013030656
Mn  Mn2       1.0  0.70964  0.04889  0.16863  1.0000 1.1013030656
Mn  Mn3       1.0  0.70964  0.45111  0.66863  1.0000 1.1013030656
Mn  Mn4       1.0  0.29036  0.95111  0.83137  1.0000 1.1013030656
Mn  Mn5       1.0  0.51110  0.82855  0.36450  1.0000 0.9675393202
Mn  Mn6       1.0  0.48890  0.32855  0.13550  1.0000 0.9675393202
Mn  Mn7       1.0  0.48890  0.17145  0.63550  1.0000 0.9675393202
Mn  Mn8       1.0  0.51110  0.67145  0.86450  1.0000 0.9675393202
Mn  Mn9       1.0  0.85784  0.79780  0.14312  1.0000 0.9105107435
Mn  Mn10      1.0  0.14216  0.29780  0.35688  1.0000 0.9105107435
Mn  Mn11      1.0  0.14216  0.20220  0.85688  1.0000 0.9105107435
Mn  Mn12      1.0  0.85784  0.70220  0.64312  1.0000 0.9105107435
H   H1        1.0  0.55060  0.79940  0.23390  1.0000 0.1339878835
H   H2        1.0  0.44940  0.29940  0.26610  1.0000 0.1339878835
H   H3        1.0  0.44940  0.20060  0.76610  1.0000 0.1339878835
H   H4        1.0  0.55060  0.70060  0.73390  1.0000 0.1339878835
H   H5        1.0  0.25050  0.04590  0.37250  1.0000 0.1107459936
H   H6        1.0  0.74950  0.54590  0.12750  1.0000 0.1107459936
H   H7        1.0  0.74950  0.95410  0.62750  1.0000 0.1107459936
H   H8        1.0  0.25050  0.45410  0.87250  1.0000 0.1107459936
H   H9        1.0  0.65900  0.64600  0.48880  1.0000 0.1339878835
H   H10       1.0  0.34100  0.14600  0.01120  1.0000 0.1339878835
H   H11       1.0  0.34100  0.35400  0.51120  1.0000 0.1339878835
H   H12       1.0  0.65900  0.85400  0.98880  1.0000 0.1339878835
H   H13       1.0  0.58500  0.57570  0.13370  1.0000 0.1033298992
H   H14       1.0  0.41500  0.07570  0.36630  1.0000 0.1033298992
H   H15       1.0  0.41500  0.42430  0.86630  1.0000 0.1033298992
H   H16       1.0  0.58500  0.92430  0.63370  1.0000 0.1033298992
H   H17       1.0  0.41510  0.48170  0.21750  1.0000 0.1175932926
H   H18       1.0  0.58490  0.98170  0.28250  1.0000 0.1175932926
H   H19       1.0  0.58490  0.51830  0.78250  1.0000 0.1175932926
H   H20       1.0  0.41510  0.01830  0.71750  1.0000 0.1175932926
H   H21       1.0  0.08540  0.81040  0.27970  1.0000 0.1374721177
H   H22       1.0  0.91460  0.31040  0.22030  1.0000 0.1374721177
H   H23       1.0  0.91460  0.18960  0.72030  1.0000 0.1374721177
H   H24       1.0  0.08540  0.68960  0.77970  1.0000 0.1374721177
H   H25       1.0  0.98100  0.14080  0.28430  1.0000 0.1175932926
H   H26       1.0  0.01900  0.64080  0.21570  1.0000 0.1175932926
H   H27       1.0  0.01900  0.85920  0.71570  1.0000 0.1175932926
H   H28       1.0  0.98100  0.35920  0.78430  1.0000 0.1175932926
H   H29       1.0  0.70440  0.34230  0.56150  1.0000 0.1107459936
H   H30       1.0  0.29560  0.84230  0.93850  1.0000 0.1107459936
H   H31       1.0  0.29560  0.65770  0.43850  1.0000 0.1107459936
H   H32       1.0  0.70440  0.15770  0.06150  1.0000 0.1107459936
H   H33       1.0  0.50990  0.35010  0.43390  1.0000 0.1107459936
H   H34       1.0  0.49010  0.85010  0.06610  1.0000 0.1107459936
H   H35       1.0  0.49010  0.64990  0.56610  1.0000 0.1107459936
H   H36       1.0  0.50990  0.14990  0.93390  1.0000 0.1107459936
C   C1        1.0  0.18093  0.91460  0.32983  1.0000 -0.0684865208
C   C2        1.0  0.81907  0.41460  0.17017  1.0000 -0.0684865208
C   C3        1.0  0.81907  0.08540  0.67017  1.0000 -0.0684865208
C   C4        1.0  0.18093  0.58540  0.82983  1.0000 -0.0684865208
C   C5        1.0  0.58027  0.70110  0.18197  1.0000 -0.0544083319
C   C6        1.0  0.41973  0.20110  0.31803  1.0000 -0.0544083319
C   C7        1.0  0.41973  0.29890  0.81803  1.0000 -0.0597943132
C   C8        1.0  0.58027  0.79890  0.68197  1.0000 -0.0597943132
C   C9        1.0  0.47300  0.64500  0.23120  1.0000 -0.0597943132
C   C10       1.0  0.52700  0.14500  0.26880  1.0000 -0.0597943132
C   C11       1.0  0.52700  0.35500  0.76880  1.0000 -0.0597943132
C   C12       1.0  0.47300  0.85500  0.73120  1.0000 -0.0597943132
C   C13       1.0  0.57398  0.50790  0.45458  1.0000 -0.0684865208
C   C14       1.0  0.42602  0.00790  0.04542  1.0000 -0.0684865208
C   C15       1.0  0.42602  0.49210  0.54542  1.0000 -0.0684865208
C   C16       1.0  0.57398  0.99210  0.95458  1.0000 -0.0684865208
C   C17       1.0  0.53686  0.72640  0.21806  1.0000 -0.0597943132
C   C18       1.0  0.46314  0.22640  0.28194  1.0000 -0.0597943132
C   C19       1.0  0.46314  0.27360  0.78194  1.0000 -0.0597943132
C   C20       1.0  0.53686  0.77360  0.71806  1.0000 -0.0597943132
C   C21       1.0  0.26734  0.82580  0.34934  1.0000 0.5913338312
C   C22       1.0  0.73266  0.32580  0.15066  1.0000 0.5913338312
C   C23       1.0  0.73266  0.17420  0.65066  1.0000 0.5913338312
C   C24       1.0  0.26734  0.67420  0.84934  1.0000 0.5913338312
C   C25       1.0  0.18938  0.02640  0.34788  1.0000 0.0563663521
C   C26       1.0  0.81062  0.52640  0.15212  1.0000 0.0535396919
C   C27       1.0  0.81062  0.97360  0.65212  1.0000 0.0535396919
C   C28       1.0  0.18938  0.47360  0.84788  1.0000 0.0535396919
C   C29       1.0  0.64427  0.56540  0.49147  1.0000 -0.0684865208
C   C30       1.0  0.35573  0.06540  0.00853  1.0000 -0.0684865208
C   C31       1.0  0.35573  0.43460  0.50853  1.0000 -0.0684865208
C   C32       1.0  0.64427  0.93460  0.99147  1.0000 -0.0684865208
C   C33       1.0  0.51317  0.57500  0.41097  1.0000 0.5981351384
C   C34       1.0  0.48683  0.07500  0.08903  1.0000 0.5981351384
C   C35       1.0  0.48683  0.42500  0.58903  1.0000 0.5981351384
C   C36       1.0  0.51317  0.92500  0.91097  1.0000 0.5981351384
C   C37       1.0  0.55744  0.59260  0.15944  1.0000 0.0563663521
C   C38       1.0  0.44256  0.09260  0.34056  1.0000 0.0563663521
C   C39       1.0  0.44256  0.40740  0.84056  1.0000 0.0563663521
C   C40       1.0  0.55744  0.90740  0.65944  1.0000 0.0563663521
C   C41       1.0  0.76381  0.56660  0.57371  1.0000 0.5804399275
C   C42       1.0  0.23619  0.06660  0.92629  1.0000 0.5804399275
C   C43       1.0  0.23619  0.43340  0.42629  1.0000 0.5804399275
C   C44       1.0  0.76381  0.93340  0.07371  1.0000 0.5804399275
C   C45       1.0  0.02042  0.97360  0.27442  1.0000 -0.0597943132
C   C46       1.0  0.97958  0.47360  0.22558  1.0000 -0.0597943132
C   C47       1.0  0.97958  0.02640  0.72558  1.0000 -0.0597943132
C   C48       1.0  0.02042  0.52640  0.77442  1.0000 -0.0597943132
C   C49       1.0  0.45723  0.53850  0.20793  1.0000 0.0717842983
C   C50       1.0  0.54277  0.03850  0.29207  1.0000 0.0717842983
C   C51       1.0  0.54277  0.46150  0.79207  1.0000 0.0717842983
C   C52       1.0  0.45723  0.96150  0.70793  1.0000 0.0717842983
C   C53       1.0  0.42562  0.66880  0.27102  1.0000 0.5913338312
C   C54       1.0  0.57438  0.16880  0.22898  1.0000 0.5913338312
C   C55       1.0  0.57438  0.33120  0.72898  1.0000 0.5913338312
C   C56       1.0  0.42562  0.83120  0.77102  1.0000 0.5913338312
C   C57       1.0  0.09416  0.88700  0.29256  1.0000 -0.0597943132
C   C58       1.0  0.90584  0.38700  0.20744  1.0000 -0.0597943132
C   C59       1.0  0.90584  0.11300  0.70744  1.0000 -0.0597943132
C   C60       1.0  0.09416  0.61300  0.79256  1.0000 -0.0597943132
C   C61       1.0  0.03305  0.08280  0.29595  1.0000 0.0717842983
C   C62       1.0  0.96695  0.58280  0.20405  1.0000 0.0717842983
C   C63       1.0  0.96695  0.91720  0.70405  1.0000 0.0717842983
C   C64       1.0  0.03305  0.41720  0.79595  1.0000 0.0717842983
C   C65       1.0  0.65591  0.78320  0.16891  1.0000 0.5804399275
C   C66       1.0  0.34409  0.28320  0.33109  1.0000 0.5804399275
C   C67       1.0  0.34409  0.21680  0.83109  1.0000 0.5804399275
C   C68       1.0  0.65591  0.71680  0.66891  1.0000 0.5804399275
C   C69       1.0  0.69308  0.50390  0.53248  1.0000 -0.0684865208
C   C70       1.0  0.30692  0.00390  0.96752  1.0000 -0.0684865208
C   C71       1.0  0.30692  0.49610  0.46752  1.0000 -0.0684865208
C   C72       1.0  0.69308  0.99610  0.03248  1.0000 -0.0684865208
C   C73       1.0  0.67103  0.38470  0.53363  1.0000 0.0768778273
C   C74       1.0  0.32897  0.88470  0.96637  1.0000 0.0768778273
C   C75       1.0  0.32897  0.61530  0.46637  1.0000 0.0768778273
C   C76       1.0  0.67103  0.11530  0.03363  1.0000 0.0768778273
C   C77       1.0  0.92741  0.95320  0.23161  1.0000 0.5913338312
C   C78       1.0  0.07259  0.45320  0.26839  1.0000 0.5913338312
C   C79       1.0  0.07259  0.04680  0.76839  1.0000 0.5913338312
C   C80       1.0  0.92741  0.54680  0.73161  1.0000 0.5913338312
C   C81       1.0  0.55788  0.38950  0.45938  1.0000 0.0535396919
C   C82       1.0  0.44212  0.88950  0.04062  1.0000 0.0535396919
C   C83       1.0  0.44212  0.61050  0.54062  1.0000 0.0535396919
C   C84       1.0  0.55788  0.11050  0.95938  1.0000 0.0535396919
N   N1        1.0  0.11592  0.10950  0.33252  1.0000 -0.2457406274
N   N2        1.0  0.88408  0.60950  0.16748  1.0000 -0.2457406274
N   N3        1.0  0.88408  0.89050  0.66748  1.0000 -0.2457406274
N   N4        1.0  0.11592  0.39050  0.83252  1.0000 -0.2457406274
N   N5        1.0  0.49820  0.51120  0.17270  1.0000 -0.2640433661
N   N6        1.0  0.50180  0.01120  0.32730  1.0000 -0.2640433661
N   N7        1.0  0.50180  0.48880  0.82730  1.0000 -0.2640433661
N   N8        1.0  0.49820  0.98880  0.67270  1.0000 -0.2640433661
N   N9        1.0  0.60629  0.32710  0.49809  1.0000 -0.2660336993
N   N10       1.0  0.39371  0.82710  0.00191  1.0000 -0.2660336993
N   N11       1.0  0.39371  0.67290  0.50191  1.0000 -0.2660336993
N   N12       1.0  0.60629  0.17290  0.99809  1.0000 -0.2660336993
O   O1        1.0  0.35552  0.86420  0.37012  1.0000 -0.5570628099
O   O2        1.0  0.64448  0.36420  0.12988  1.0000 -0.5570628099
O   O3        1.0  0.64448  0.13580  0.62988  1.0000 -0.5570628099
O   O4        1.0  0.35552  0.63580  0.87012  1.0000 -0.5570628099
O   O5        1.0  0.69681  0.75130  0.13721  1.0000 -0.5544040553
O   O6        1.0  0.30319  0.25130  0.36279  1.0000 -0.5544040553
O   O7        1.0  0.30319  0.24870  0.86279  1.0000 -0.5544040553
O   O8        1.0  0.69681  0.74870  0.63721  1.0000 -0.5544040553
O   O9        1.0  0.78809  0.51990  0.61439  1.0000 -0.568522831
O   O10       1.0  0.21191  0.01990  0.88561  1.0000 -0.568522831
O   O11       1.0  0.21191  0.48010  0.38561  1.0000 -0.568522831
O   O12       1.0  0.78809  0.98010  0.11439  1.0000 -0.568522831
O   O13       1.0  0.43498  0.52410  0.38428  1.0000 -0.568522831
O   O14       1.0  0.56502  0.02410  0.11572  1.0000 -0.568522831
O   O15       1.0  0.56502  0.47590  0.61572  1.0000 -0.568522831
O   O16       1.0  0.43498  0.97590  0.88428  1.0000 -0.568522831
O   O17       1.0  0.24036  0.72040  0.34266  1.0000 -0.5378311626
O   O18       1.0  0.75964  0.22040  0.15734  1.0000 -0.5378311626
O   O19       1.0  0.75964  0.27960  0.65734  1.0000 -0.5378311626
O   O20       1.0  0.24036  0.77960  0.84266  1.0000 -0.5378311626
O   O21       1.0  0.86439  0.03580  0.21899  1.0000 -0.5315577062
O   O22       1.0  0.13561  0.53580  0.28101  1.0000 -0.5315577062
O   O23       1.0  0.13561  0.96420  0.78101  1.0000 -0.5315577062
O   O24       1.0  0.86439  0.46420  0.71899  1.0000 -0.5315577062
O   O25       1.0  0.79745  0.66600  0.56715  1.0000 -0.5315577062
O   O26       1.0  0.20255  0.16600  0.93285  1.0000 -0.5315577062
O   O27       1.0  0.20255  0.33400  0.43285  1.0000 -0.5315577062
O   O28       1.0  0.79745  0.83400  0.06715  1.0000 -0.5315577062
O   O29       1.0  0.67615  0.87630  0.19215  1.0000 -0.5315577062
O   O30       1.0  0.32385  0.37630  0.30785  1.0000 -0.5315577062
O   O31       1.0  0.32385  0.12370  0.80785  1.0000 -0.5315577062
O   O32       1.0  0.67615  0.62370  0.69215  1.0000 -0.5315577062
O   O33       1.0  0.35632  0.60010  0.27572  1.0000 -0.5315577062
O   O34       1.0  0.64368  0.10010  0.22428  1.0000 -0.5315577062
O   O35       1.0  0.64368  0.39990  0.72428  1.0000 -0.5315577062
O   O36       1.0  0.35632  0.89990  0.77572  1.0000 -0.5378311626
O   O37       1.0  0.45872  0.75890  0.29532  1.0000 -0.5759398989
O   O38       1.0  0.54128  0.25890  0.20468  1.0000 -0.5759398989
O   O39       1.0  0.54128  0.24110  0.70468  1.0000 -0.5759398989
O   O40       1.0  0.45872  0.74110  0.79532  1.0000 -0.5759398989
O   O41       1.0  0.54708  0.67430  0.40568  1.0000 -0.568522831
O   O42       1.0  0.45292  0.17430  0.09432  1.0000 -0.568522831
O   O43       1.0  0.45292  0.32570  0.59432  1.0000 -0.568522831
O   O44       1.0  0.54708  0.82570  0.90568  1.0000 -0.568522831
O   O45       1.0  0.92289  0.85440  0.21279  1.0000 -0.568522831
O   O46       1.0  0.07711  0.35440  0.28721  1.0000 -0.568522831
O   O47       1.0  0.07711  0.14560  0.78721  1.0000 -0.568522831
O   O48       1.0  0.92289  0.64560  0.71279  1.0000 -0.568522831
