# DDEC6 charges by PACMAN v1.1 (https://github.com/mtap-research/PACMAN-charge/)
data_2014[Nd][flu]3[ASR]1
_chemical_formula_sum              "Nd2 H38 C68 O16"
_cell_length_a       10.5378
_cell_length_b       10.5561
_cell_length_c       16.8962
_cell_angle_alpha    76.425
_cell_angle_beta     83.205
_cell_angle_gamma    69.971

_symmetry_space_group_name_H-M    "P 1"
_symmetry_Int_Tables_number       1

loop_
  _symmetry_equiv_pos_as_xyz
  'x, y, z'

loop_
  _atom_site_type_symbol
  _atom_site_label
  _atom_site_symmetry_multiplicity
  _atom_site_fract_x
  _atom_site_fract_y
  _atom_site_fract_z
  _atom_site_occupancy
  _atom_site_charge
Nd  Nd1       1.0  0.60240  0.62773  0.51838  1.0000 2.1594121285
Nd  Nd2       1.0  0.39760  0.37227  0.48162  1.0000 2.1594121285
H   H1        1.0  0.49800  0.88200  0.71000  1.0000 0.3581970908
H   H2        1.0  0.50200  0.11800  0.29000  1.0000 0.3581970908
H   H3        1.0  0.69240  0.74130  0.85460  1.0000 0.1106311602
H   H4        1.0  0.30760  0.25870  0.14540  1.0000 0.1106311602
H   H5        1.0  0.73530  0.44190  0.73090  1.0000 0.1199326672
H   H6        1.0  0.26470  0.55810  0.26910  1.0000 0.1199326672
H   H7        1.0  0.83810  0.58140  0.95180  1.0000 0.1106311602
H   H8        1.0  0.16190  0.41860  0.04820  1.0000 0.1106311602
H   H9        1.0  0.87420  0.28010  0.83130  1.0000 0.1106311602
H   H10       1.0  0.12580  0.71990  0.16870  1.0000 0.1106311602
H   H11       1.0  0.82610  0.39370  0.05560  1.0000 0.1106311602
H   H12       1.0  0.17390  0.60630  0.94440  1.0000 0.1106311602
H   H13       1.0  0.22610  0.04910  0.01880  1.0000 0.1199326672
H   H14       1.0  0.77390  0.95090  0.98120  1.0000 0.1199326672
H   H15       1.0  0.13080  0.38910  0.82540  1.0000 0.1106311602
H   H16       1.0  0.86920  0.61090  0.17460  1.0000 0.1106311602
H   H17       1.0  0.18190  0.98260  0.89880  1.0000 0.1106311602
H   H18       1.0  0.81810  0.01740  0.10120  1.0000 0.1106311602
H   H19       1.0  0.22380  0.35460  0.69760  1.0000 0.1199326672
H   H20       1.0  0.77620  0.64540  0.30240  1.0000 0.1199326672
H   H21       1.0  0.28550  0.94590  0.77330  1.0000 0.1106311602
H   H22       1.0  0.71450  0.05410  0.22670  1.0000 0.1106311602
H   H23       1.0  0.08480  0.24210  0.24950  1.0000 0.1106311602
H   H24       1.0  0.91520  0.75790  0.75050  1.0000 0.1106311602
H   H25       1.0  0.71730  0.29930  0.17160  1.0000 0.1106311602
H   H26       1.0  0.28270  0.70070  0.82840  1.0000 0.1106311602
H   H27       1.0  0.00380  0.97580  0.23560  1.0000 0.1106311602
H   H28       1.0  0.99620  0.02420  0.76440  1.0000 0.1106311602
H   H29       1.0  0.35740  0.02650  0.13520  1.0000 0.1106311602
H   H30       1.0  0.64260  0.97350  0.86480  1.0000 0.1106311602
H   H31       1.0  0.98360  0.32350  0.36580  1.0000 0.1280007415
H   H32       1.0  0.01640  0.67650  0.63420  1.0000 0.1280007415
H   H33       1.0  0.61540  0.37050  0.29070  1.0000 0.1199326672
H   H34       1.0  0.38460  0.62950  0.70930  1.0000 0.1199326672
H   H35       1.0  0.12280  0.79340  0.33420  1.0000 0.1280007415
H   H36       1.0  0.87720  0.20660  0.66580  1.0000 0.1280007415
H   H37       1.0  0.47320  0.85560  0.24120  1.0000 0.1199326672
H   H38       1.0  0.52680  0.14440  0.75880  1.0000 0.1199326672
C   C1        1.0  0.60690  0.71050  0.72130  1.0000 0.5916776486
C   C2        1.0  0.39310  0.28950  0.27870  1.0000 0.5916776486
C   C3        1.0  0.69880  0.60680  0.78390  1.0000 -0.044729656
C   C4        1.0  0.30120  0.39320  0.21610  1.0000 -0.044729656
C   C5        1.0  0.73020  0.64780  0.84950  1.0000 -0.1112523921
C   C6        1.0  0.26980  0.35220  0.15050  1.0000 -0.1112523921
C   C7        1.0  0.75470  0.46990  0.77640  1.0000 -0.0900383562
C   C8        1.0  0.24530  0.53010  0.22360  1.0000 -0.0900383562
C   C9        1.0  0.81680  0.55230  0.90740  1.0000 -0.150857877
C   C10       1.0  0.18320  0.44770  0.09260  1.0000 -0.150857877
C   C11       1.0  0.83910  0.37400  0.83560  1.0000 -0.1396880768
C   C12       1.0  0.16090  0.62600  0.16440  1.0000 -0.1396880768
C   C13       1.0  0.87330  0.41370  0.90150  1.0000 0.0771905124
C   C14       1.0  0.12670  0.58630  0.09850  1.0000 0.0771905124
C   C15       1.0  0.95690  0.31350  0.96840  1.0000 0.0271883485
C   C16       1.0  0.04310  0.68650  0.03160  1.0000 0.0271883485
C   C17       1.0  0.08040  0.20910  0.95710  1.0000 0.0271883485
C   C18       1.0  0.91960  0.79090  0.04290  1.0000 0.0271883485
C   C19       1.0  0.90830  0.32260  0.04800  1.0000 -0.1984501094
C   C20       1.0  0.09170  0.67740  0.95200  1.0000 -0.1984501094
C   C21       1.0  0.14470  0.18970  0.87550  1.0000 0.0698564874
C   C22       1.0  0.85530  0.81030  0.12450  1.0000 0.0698564874
C   C23       1.0  0.14350  0.11980  0.02620  1.0000 -0.1984501094
C   C24       1.0  0.85650  0.88020  0.97380  1.0000 -0.1984501094
C   C25       1.0  0.97260  0.23420  0.11690  1.0000 0.0271883485
C   C26       1.0  0.02740  0.76580  0.88310  1.0000 0.0271883485
C   C27       1.0  0.16000  0.29890  0.81460  1.0000 -0.1396880768
C   C28       1.0  0.84000  0.70110  0.18540  1.0000 -0.1396880768
C   C29       1.0  0.19160  0.05860  0.85830  1.0000 -0.1569122397
C   C30       1.0  0.80840  0.94140  0.14170  1.0000 -0.1569122397
C   C31       1.0  0.09330  0.12740  0.10600  1.0000 0.0218583174
C   C32       1.0  0.90670  0.87260  0.89400  1.0000 0.0218583174
C   C33       1.0  0.91190  0.26470  0.19760  1.0000 0.0698564874
C   C34       1.0  0.08810  0.73530  0.80240  1.0000 0.0698564874
C   C35       1.0  0.21710  0.27820  0.73870  1.0000 -0.0900383562
C   C36       1.0  0.78290  0.72180  0.26130  1.0000 -0.0900383562
C   C37       1.0  0.25220  0.03690  0.78310  1.0000 -0.1112523921
C   C38       1.0  0.74780  0.96310  0.21690  1.0000 -0.1112523921
C   C39       1.0  0.16850  0.01950  0.17410  1.0000 0.0698564874
C   C40       1.0  0.83150  0.98050  0.82590  1.0000 0.0698564874
C   C41       1.0  0.98910  0.27060  0.25690  1.0000 -0.150857877
C   C42       1.0  0.01090  0.72940  0.74310  1.0000 -0.150857877
C   C43       1.0  0.77180  0.30320  0.21140  1.0000 -0.150857877
C   C44       1.0  0.22820  0.69680  0.78860  1.0000 -0.150857877
C   C45       1.0  0.26500  0.14580  0.72190  1.0000 -0.0304268081
C   C46       1.0  0.73500  0.85420  0.27810  1.0000 -0.0304268081
C   C47       1.0  0.09950  0.94960  0.23520  1.0000 -0.150857877
C   C48       1.0  0.90050  0.05040  0.76480  1.0000 -0.150857877
C   C49       1.0  0.30890  0.98150  0.17660  1.0000 -0.150857877
C   C50       1.0  0.69110  0.01850  0.82340  1.0000 -0.150857877
C   C51       1.0  0.92920  0.31740  0.32670  1.0000 -0.0900383562
C   C52       1.0  0.07080  0.68260  0.67330  1.0000 -0.0900383562
C   C53       1.0  0.71060  0.34680  0.28200  1.0000 -0.0900383562
C   C54       1.0  0.28940  0.65320  0.71800  1.0000 -0.0900383562
C   C55       1.0  0.32420  0.12390  0.63900  1.0000 0.6215018161
C   C56       1.0  0.67580  0.87610  0.36100  1.0000 0.6215018161
C   C57       1.0  0.17000  0.84320  0.29490  1.0000 -0.0998912699
C   C58       1.0  0.83000  0.15680  0.70510  1.0000 -0.0998912699
C   C59       1.0  0.37810  0.87820  0.23910  1.0000 -0.0900383562
C   C60       1.0  0.62190  0.12180  0.76090  1.0000 -0.0900383562
C   C61       1.0  0.78860  0.35580  0.33980  1.0000 -0.0241324794
C   C62       1.0  0.21140  0.64420  0.66020  1.0000 -0.0241324794
C   C63       1.0  0.30990  0.80800  0.29810  1.0000 -0.0304268081
C   C64       1.0  0.69010  0.19200  0.70190  1.0000 -0.0304268081
C   C65       1.0  0.72320  0.41740  0.41160  1.0000 0.6215018161
C   C66       1.0  0.27680  0.58260  0.58840  1.0000 0.6215018161
C   C67       1.0  0.38430  0.69280  0.36530  1.0000 0.6488818951
C   C68       1.0  0.61570  0.30720  0.63470  1.0000 0.6488818951
O   O1        1.0  0.39370  0.58630  0.56231  1.0000 -0.7443241649
O   O2        1.0  0.60630  0.41370  0.43769  1.0000 -0.7443241649
O   O3        1.0  0.78370  0.47690  0.44216  1.0000 -0.6130713694
O   O4        1.0  0.21630  0.52310  0.55784  1.0000 -0.6130713694
O   O5        1.0  0.66250  0.40510  0.60874  1.0000 -0.6768768303
O   O6        1.0  0.33750  0.59490  0.39126  1.0000 -0.6768768303
O   O7        1.0  0.48630  0.70510  0.39072  1.0000 -0.6552699976
O   O8        1.0  0.51370  0.29490  0.60928  1.0000 -0.6552699976
O   O9        1.0  0.58820  0.68630  0.65704  1.0000 -0.6179651491
O   O10       1.0  0.41180  0.31370  0.34296  1.0000 -0.6179651491
O   O11       1.0  0.70920  0.77800  0.42084  1.0000 -0.6694310479
O   O12       1.0  0.29080  0.22200  0.57916  1.0000 -0.6694310479
O   O13       1.0  0.54680  0.82740  0.74280  1.0000 -0.4411930017
O   O14       1.0  0.45320  0.17260  0.25720  1.0000 -0.4411930017
O   O15       1.0  0.40400  0.00550  0.63373  1.0000 -0.5560501687
O   O16       1.0  0.59600  0.99450  0.36627  1.0000 -0.5560501687
