# DDEC6 charges by PACMAN v1.1 (https://github.com/mtap-research/PACMAN-charge/)
data_2014[Co][nan]3[ASR]36
_chemical_formula_sum              "Co9 H72 C108 N18 O40"
_cell_length_a       20.0198
_cell_length_b       20.0198
_cell_length_c       13.1852
_cell_angle_alpha    72.3361
_cell_angle_beta     107.664
_cell_angle_gamma    103.232

_symmetry_space_group_name_H-M    "P 1"
_symmetry_Int_Tables_number       1

loop_
  _symmetry_equiv_pos_as_xyz
  'x, y, z'

loop_
  _atom_site_type_symbol
  _atom_site_label
  _atom_site_symmetry_multiplicity
  _atom_site_fract_x
  _atom_site_fract_y
  _atom_site_fract_z
  _atom_site_occupancy
  _atom_site_charge
Co  Co1       1.0  0.00000  0.00000  0.00000  1.0000 0.7142646082
Co  Co2       1.0  0.72433  0.27567  0.06741  1.0000 0.9576000937
Co  Co3       1.0  0.27567  0.72433  0.93259  1.0000 0.9576000937
Co  Co4       1.0  0.70746  0.29254  0.32246  1.0000 0.7554034956
Co  Co5       1.0  0.29254  0.70746  0.67754  1.0000 0.7554034956
Co  Co6       1.0  0.18197  0.30733  0.43693  1.0000 0.8417777487
Co  Co7       1.0  0.30733  0.18197  0.56307  1.0000 0.8417777487
Co  Co8       1.0  0.81803  0.69267  0.56307  1.0000 0.8417777487
Co  Co9       1.0  0.69267  0.81803  0.43693  1.0000 0.8417777487
H   H1        1.0  0.68250  0.06370  0.45620  1.0000 0.138815298
H   H2        1.0  0.06370  0.68250  0.54380  1.0000 0.138815298
H   H3        1.0  0.31750  0.93630  0.54380  1.0000 0.138815298
H   H4        1.0  0.93630  0.31750  0.45620  1.0000 0.138815298
H   H5        1.0  0.03440  0.15080  0.03160  1.0000 0.1084880155
H   H6        1.0  0.15080  0.03440  0.96840  1.0000 0.1084880155
H   H7        1.0  0.96560  0.84920  0.96840  1.0000 0.1084880155
H   H8        1.0  0.84920  0.96560  0.03160  1.0000 0.1084880155
H   H9        1.0  0.11360  0.98500  0.22910  1.0000 0.1084880155
H   H10       1.0  0.98500  0.11360  0.77090  1.0000 0.1084880155
H   H11       1.0  0.88640  0.01500  0.77090  1.0000 0.1084880155
H   H12       1.0  0.01500  0.88640  0.22910  1.0000 0.1084880155
H   H13       1.0  0.68800  0.05500  0.16080  1.0000 0.138815298
H   H14       1.0  0.05500  0.68800  0.83920  1.0000 0.138815298
H   H15       1.0  0.31200  0.94500  0.83920  1.0000 0.138815298
H   H16       1.0  0.94500  0.31200  0.16080  1.0000 0.138815298
H   H17       1.0  0.09390  0.21790  0.15450  1.0000 0.1308712766
H   H18       1.0  0.21790  0.09390  0.84550  1.0000 0.1308712766
H   H19       1.0  0.90610  0.78210  0.84550  1.0000 0.1308712766
H   H20       1.0  0.78210  0.90610  0.15450  1.0000 0.1308712766
H   H21       1.0  0.17820  0.04800  0.35290  1.0000 0.1308712766
H   H22       1.0  0.04800  0.17820  0.64710  1.0000 0.1308712766
H   H23       1.0  0.82180  0.95200  0.64710  1.0000 0.1308712766
H   H24       1.0  0.95200  0.82180  0.35290  1.0000 0.1308712766
H   H25       1.0  0.67730  0.94170  0.51210  1.0000 0.1084880155
H   H26       1.0  0.94170  0.67730  0.48790  1.0000 0.1084880155
H   H27       1.0  0.32270  0.05830  0.48790  1.0000 0.1084880155
H   H28       1.0  0.05830  0.32270  0.51210  1.0000 0.1084880155
H   H29       1.0  0.68230  0.93430  0.22420  1.0000 0.1084880155
H   H30       1.0  0.93430  0.68230  0.77580  1.0000 0.1084880155
H   H31       1.0  0.31770  0.06570  0.77580  1.0000 0.1084880155
H   H32       1.0  0.06570  0.31770  0.22420  1.0000 0.1084880155
H   H33       1.0  0.88830  0.11170  0.08830  1.0000 0.1308712766
H   H34       1.0  0.11170  0.88830  0.91170  1.0000 0.1308712766
H   H35       1.0  0.19600  0.56080  0.19300  1.0000 0.1308712766
H   H36       1.0  0.56080  0.19600  0.80700  1.0000 0.1308712766
H   H37       1.0  0.80400  0.43920  0.80700  1.0000 0.1308712766
H   H38       1.0  0.43920  0.80400  0.19300  1.0000 0.1308712766
H   H39       1.0  0.24980  0.34260  0.24240  1.0000 0.1023237682
H   H40       1.0  0.34260  0.24980  0.75760  1.0000 0.1023237682
H   H41       1.0  0.75020  0.65740  0.75760  1.0000 0.1023237682
H   H42       1.0  0.65740  0.75020  0.24240  1.0000 0.1023237682
H   H43       1.0  0.27940  0.43320  0.10160  1.0000 0.1308712766
H   H44       1.0  0.43320  0.27940  0.89840  1.0000 0.1308712766
H   H45       1.0  0.72060  0.56680  0.89840  1.0000 0.1308712766
H   H46       1.0  0.56680  0.72060  0.10160  1.0000 0.1308712766
H   H47       1.0  0.79490  0.20510  0.77860  1.0000 0.1308712766
H   H48       1.0  0.20510  0.79490  0.22140  1.0000 0.1308712766
H   H49       1.0  0.60890  0.18810  0.44440  1.0000 0.1023237682
H   H50       1.0  0.18810  0.60890  0.55560  1.0000 0.1023237682
H   H51       1.0  0.39110  0.81190  0.55560  1.0000 0.1023237682
H   H52       1.0  0.81190  0.39110  0.44440  1.0000 0.1023237682
H   H53       1.0  0.17110  0.46570  0.33400  1.0000 0.0944763043
H   H54       1.0  0.46570  0.17110  0.66600  1.0000 0.0944763043
H   H55       1.0  0.82890  0.53430  0.66600  1.0000 0.0944763043
H   H56       1.0  0.53430  0.82890  0.33400  1.0000 0.0944763043
H   H57       1.0  0.73860  0.26140  0.85120  1.0000 0.1084880155
H   H58       1.0  0.26140  0.73860  0.14880  1.0000 0.1084880155
H   H59       1.0  0.82720  0.17280  0.14510  1.0000 0.1023237682
H   H60       1.0  0.17280  0.82720  0.85490  1.0000 0.1023237682
H   H61       1.0  0.49460  0.16800  0.48260  1.0000 0.1234722652
H   H62       1.0  0.16800  0.49460  0.51740  1.0000 0.1234722652
H   H63       1.0  0.50540  0.83200  0.51740  1.0000 0.1234722652
H   H64       1.0  0.83200  0.50540  0.48260  1.0000 0.1234722652
H   H65       1.0  0.45890  0.34890  0.25330  1.0000 0.1308712766
H   H66       1.0  0.34890  0.45890  0.74670  1.0000 0.1308712766
H   H67       1.0  0.54110  0.65110  0.74670  1.0000 0.1308712766
H   H68       1.0  0.65110  0.54110  0.25330  1.0000 0.1308712766
H   H69       1.0  0.56060  0.34460  0.20600  1.0000 0.1084880155
H   H70       1.0  0.34460  0.56060  0.79400  1.0000 0.1084880155
H   H71       1.0  0.43940  0.65540  0.79400  1.0000 0.1084880155
H   H72       1.0  0.65540  0.43940  0.20600  1.0000 0.1084880155
C   C1        1.0  0.88720  0.11280  0.88510  1.0000 0.5520024864
C   C2        1.0  0.11280  0.88720  0.11490  1.0000 0.5520024864
C   C3        1.0  0.18237  0.18003  0.35540  1.0000 0.5759064325
C   C4        1.0  0.18003  0.18237  0.64460  1.0000 0.5759064325
C   C5        1.0  0.81763  0.81997  0.64460  1.0000 0.5759064325
C   C6        1.0  0.81997  0.81763  0.35540  1.0000 0.5759064325
C   C7        1.0  0.68705  0.07315  0.30180  1.0000 0.0285920691
C   C8        1.0  0.07315  0.68705  0.69820  1.0000 0.0285920691
C   C9        1.0  0.31295  0.92685  0.69820  1.0000 0.0285920691
C   C10       1.0  0.92685  0.31295  0.30180  1.0000 0.0285920691
C   C11       1.0  0.14279  0.13841  0.27110  1.0000 0.0285920691
C   C12       1.0  0.13841  0.14279  0.72890  1.0000 0.0285920691
C   C13       1.0  0.85721  0.86159  0.72890  1.0000 0.0285920691
C   C14       1.0  0.86159  0.85721  0.27110  1.0000 0.0285920691
C   C15       1.0  0.68300  0.03860  0.40760  1.0000 -0.158526394
C   C16       1.0  0.03860  0.68300  0.59240  1.0000 -0.158526394
C   C17       1.0  0.31700  0.96140  0.59240  1.0000 -0.158526394
C   C18       1.0  0.96140  0.31700  0.40760  1.0000 -0.158526394
C   C19       1.0  0.69516  0.15424  0.26410  1.0000 0.5711416968
C   C20       1.0  0.15424  0.69516  0.73590  1.0000 0.5711416968
C   C21       1.0  0.30484  0.84576  0.73590  1.0000 0.5711416968
C   C22       1.0  0.84576  0.30484  0.26410  1.0000 0.5711416968
C   C23       1.0  0.84880  0.15120  0.92620  1.0000 0.0159288288
C   C24       1.0  0.15120  0.84880  0.07380  1.0000 0.0145885211
C   C25       1.0  0.06262  0.12898  0.09840  1.0000 0.0800243274
C   C26       1.0  0.12898  0.06262  0.90160  1.0000 0.0800243274
C   C27       1.0  0.93738  0.87102  0.90160  1.0000 0.0800243274
C   C28       1.0  0.87102  0.93738  0.09840  1.0000 0.0800243274
C   C29       1.0  0.10929  0.03251  0.21310  1.0000 0.0543185242
C   C30       1.0  0.03251  0.10929  0.78690  1.0000 0.0543185242
C   C31       1.0  0.89071  0.96749  0.78690  1.0000 0.0543185242
C   C32       1.0  0.96749  0.89071  0.21310  1.0000 0.0543185242
C   C33       1.0  0.68621  0.03319  0.23320  1.0000 -0.158526394
C   C34       1.0  0.03319  0.68621  0.76680  1.0000 -0.158526394
C   C35       1.0  0.31379  0.96681  0.76680  1.0000 -0.158526394
C   C36       1.0  0.96681  0.31379  0.23320  1.0000 -0.158526394
C   C37       1.0  0.09872  0.17028  0.17130  1.0000 -0.1784602068
C   C38       1.0  0.17028  0.09872  0.82870  1.0000 -0.1784602068
C   C39       1.0  0.90128  0.82972  0.82870  1.0000 -0.1784602068
C   C40       1.0  0.82972  0.90128  0.17130  1.0000 -0.1784602068
C   C41       1.0  0.14796  0.07024  0.28860  1.0000 -0.146610584
C   C42       1.0  0.07024  0.14796  0.71140  1.0000 -0.146610584
C   C43       1.0  0.85204  0.92976  0.71140  1.0000 -0.146610584
C   C44       1.0  0.92976  0.85204  0.28860  1.0000 -0.146610584
C   C45       1.0  0.67965  0.96515  0.44040  1.0000 0.1023237682
C   C46       1.0  0.96515  0.67965  0.55960  1.0000 0.1023237682
C   C47       1.0  0.32035  0.03485  0.55960  1.0000 0.1023237682
C   C48       1.0  0.03485  0.32035  0.44040  1.0000 0.1023237682
C   C49       1.0  0.68271  0.96089  0.27140  1.0000 0.0800243274
C   C50       1.0  0.96089  0.68271  0.72860  1.0000 0.0800243274
C   C51       1.0  0.31729  0.03911  0.72860  1.0000 0.0800243274
C   C52       1.0  0.03911  0.31729  0.27140  1.0000 0.0800243274
C   C53       1.0  0.85800  0.14200  0.03680  1.0000 -0.1687033556
C   C54       1.0  0.14200  0.85800  0.96320  1.0000 -0.1687033556
C   C55       1.0  0.20848  0.51712  0.20180  1.0000 -0.158526394
C   C56       1.0  0.51712  0.20848  0.79820  1.0000 -0.158526394
C   C57       1.0  0.79152  0.48288  0.79820  1.0000 -0.158526394
C   C58       1.0  0.48288  0.79152  0.20180  1.0000 -0.158526394
C   C59       1.0  0.24240  0.50740  0.13290  1.0000 0.0285920691
C   C60       1.0  0.50740  0.24240  0.86710  1.0000 0.0285920691
C   C61       1.0  0.75760  0.49260  0.86710  1.0000 0.0285920691
C   C62       1.0  0.49260  0.75760  0.13290  1.0000 0.0285920691
C   C63       1.0  0.23900  0.38720  0.23350  1.0000 0.0800243274
C   C64       1.0  0.38720  0.23900  0.76650  1.0000 0.0800243274
C   C65       1.0  0.76100  0.61280  0.76650  1.0000 0.0800243274
C   C66       1.0  0.61280  0.76100  0.23350  1.0000 0.0800243274
C   C67       1.0  0.25720  0.44160  0.14820  1.0000 -0.146610584
C   C68       1.0  0.44160  0.25720  0.85180  1.0000 -0.1448371343
C   C69       1.0  0.74280  0.55840  0.85180  1.0000 -0.1448371343
C   C70       1.0  0.55840  0.74280  0.14820  1.0000 -0.146610584
C   C71       1.0  0.80310  0.19690  0.85430  1.0000 -0.158526394
C   C72       1.0  0.19690  0.80310  0.14570  1.0000 -0.158526394
C   C73       1.0  0.46760  0.25980  0.37660  1.0000 0.0159288288
C   C74       1.0  0.25980  0.46760  0.62340  1.0000 0.0159288288
C   C75       1.0  0.53240  0.74020  0.62340  1.0000 0.0159288288
C   C76       1.0  0.74020  0.53240  0.37660  1.0000 0.0159288288
C   C77       1.0  0.57830  0.22130  0.40570  1.0000 0.062464542
C   C78       1.0  0.22130  0.57830  0.59430  1.0000 0.062464542
C   C79       1.0  0.42170  0.77870  0.59430  1.0000 0.062464542
C   C80       1.0  0.77870  0.42170  0.40570  1.0000 0.062464542
C   C81       1.0  0.19320  0.45860  0.28620  1.0000 0.0661361459
C   C82       1.0  0.45860  0.19320  0.71380  1.0000 0.0661361459
C   C83       1.0  0.80680  0.54140  0.71380  1.0000 0.0661361459
C   C84       1.0  0.54140  0.80680  0.28620  1.0000 0.0661361459
C   C85       1.0  0.26230  0.56990  0.04160  1.0000 0.5520024864
C   C86       1.0  0.56990  0.26230  0.95840  1.0000 0.5520024864
C   C87       1.0  0.73770  0.43010  0.95840  1.0000 0.5520024864
C   C88       1.0  0.43010  0.73770  0.04160  1.0000 0.5520024864
C   C89       1.0  0.76940  0.23060  0.90030  1.0000 0.1084880155
C   C90       1.0  0.23060  0.76940  0.09970  1.0000 0.1084880155
C   C91       1.0  0.82080  0.17920  0.07010  1.0000 0.0661361459
C   C92       1.0  0.17920  0.82080  0.92990  1.0000 0.0661361459
C   C93       1.0  0.50890  0.20850  0.43190  1.0000 -0.158526394
C   C94       1.0  0.20850  0.50890  0.56810  1.0000 -0.158526394
C   C95       1.0  0.49110  0.79150  0.56810  1.0000 -0.158526394
C   C96       1.0  0.79150  0.49110  0.43190  1.0000 -0.158526394
C   C97       1.0  0.39880  0.25140  0.40990  1.0000 0.5328099945
C   C98       1.0  0.25140  0.39880  0.59010  1.0000 0.5328099945
C   C99       1.0  0.60120  0.74860  0.59010  1.0000 0.5328099945
C   C100      1.0  0.74860  0.60120  0.40990  1.0000 0.5328099945
C   C101      1.0  0.48700  0.31380  0.29350  1.0000 -0.146610584
C   C102      1.0  0.31380  0.48700  0.70650  1.0000 -0.146610584
C   C103      1.0  0.51300  0.68620  0.70650  1.0000 -0.146610584
C   C104      1.0  0.68620  0.51300  0.29350  1.0000 -0.146610584
C   C105      1.0  0.55220  0.31400  0.27130  1.0000 0.1023237682
C   C106      1.0  0.31400  0.55220  0.72870  1.0000 0.1023237682
C   C107      1.0  0.44780  0.68600  0.72870  1.0000 0.1023237682
C   C108      1.0  0.68600  0.44780  0.27130  1.0000 0.1023237682
N   N1        1.0  0.20712  0.39432  0.30380  1.0000 -0.252759055
N   N2        1.0  0.39432  0.20712  0.69620  1.0000 -0.252759055
N   N3        1.0  0.79288  0.60568  0.69620  1.0000 -0.252759055
N   N4        1.0  0.60568  0.79288  0.30380  1.0000 -0.252759055
N   N5        1.0  0.67971  0.92781  0.37460  1.0000 -0.2289357515
N   N6        1.0  0.92781  0.67971  0.62540  1.0000 -0.2289357515
N   N7        1.0  0.32029  0.07219  0.62540  1.0000 -0.2289357515
N   N8        1.0  0.07219  0.32029  0.37460  1.0000 -0.2289357515
N   N9        1.0  0.06536  0.06112  0.11670  1.0000 -0.2216405056
N   N10       1.0  0.06112  0.06536  0.88330  1.0000 -0.2216405056
N   N11       1.0  0.93464  0.93888  0.88330  1.0000 -0.2216405056
N   N12       1.0  0.93888  0.93464  0.11670  1.0000 -0.2216405056
N   N13       1.0  0.77669  0.22331  0.00090  1.0000 -0.2289357515
N   N14       1.0  0.22331  0.77669  0.99910  1.0000 -0.2289357515
N   N15       1.0  0.60020  0.27680  0.33080  1.0000 -0.252759055
N   N16       1.0  0.27680  0.60020  0.66920  1.0000 -0.252759055
N   N17       1.0  0.39980  0.72320  0.66920  1.0000 -0.252759055
N   N18       1.0  0.72320  0.39980  0.33080  1.0000 -0.252759055
O   O1        1.0  0.92799  0.07201  0.95590  1.0000 -0.5741763047
O   O2        1.0  0.07201  0.92799  0.04410  1.0000 -0.5741763047
O   O3        1.0  0.67422  0.32578  0.14880  1.0000 -0.1784602068
O   O4        1.0  0.32578  0.67422  0.85120  1.0000 -0.1888559393
O   O5        1.0  0.22604  0.15140  0.43630  1.0000 -0.5298395387
O   O6        1.0  0.15140  0.22604  0.56370  1.0000 -0.5298395387
O   O7        1.0  0.77396  0.84860  0.56370  1.0000 -0.5298395387
O   O8        1.0  0.84860  0.77396  0.43630  1.0000 -0.5298395387
O   O9        1.0  0.29144  0.29144  0.50000  1.0000 -0.1119410253
O   O10       1.0  0.70856  0.70856  0.50000  1.0000 -0.1119410253
O   O11       1.0  0.16638  0.24126  0.33600  1.0000 -0.5592641166
O   O12       1.0  0.24126  0.16638  0.66400  1.0000 -0.5592641166
O   O13       1.0  0.83362  0.75874  0.66400  1.0000 -0.5592641166
O   O14       1.0  0.75874  0.83362  0.33600  1.0000 -0.5592641166
O   O15       1.0  0.69396  0.18646  0.32870  1.0000 -0.523981475
O   O16       1.0  0.18646  0.69396  0.67130  1.0000 -0.523981475
O   O17       1.0  0.30604  0.81354  0.67130  1.0000 -0.523981475
O   O18       1.0  0.81354  0.30604  0.32870  1.0000 -0.523981475
O   O19       1.0  0.38039  0.20001  0.47130  1.0000 -0.5002849332
O   O20       1.0  0.20001  0.38039  0.52870  1.0000 -0.5002849332
O   O21       1.0  0.61961  0.79999  0.52870  1.0000 -0.5002849332
O   O22       1.0  0.79999  0.61961  0.47130  1.0000 -0.5002849332
O   O23       1.0  0.25550  0.62828  0.04380  1.0000 -0.5298395387
O   O24       1.0  0.62828  0.25550  0.95620  1.0000 -0.5298395387
O   O25       1.0  0.74450  0.37172  0.95620  1.0000 -0.5298395387
O   O26       1.0  0.37172  0.74450  0.04380  1.0000 -0.5298395387
O   O27       1.0  0.70163  0.17901  0.16890  1.0000 -0.5298395387
O   O28       1.0  0.17901  0.70163  0.83110  1.0000 -0.5298395387
O   O29       1.0  0.29837  0.82099  0.83110  1.0000 -0.5298395387
O   O30       1.0  0.82099  0.29837  0.16890  1.0000 -0.5298395387
O   O31       1.0  0.87703  0.12297  0.78460  1.0000 -0.5473605028
O   O32       1.0  0.12297  0.87703  0.21540  1.0000 -0.5473605028
O   O33       1.0  0.28590  0.55550  0.97450  1.0000 -0.5002849332
O   O34       1.0  0.55550  0.28590  0.02550  1.0000 -0.5002849332
O   O35       1.0  0.71410  0.44450  0.02550  1.0000 -0.5002849332
O   O36       1.0  0.44450  0.71410  0.97450  1.0000 -0.5002849332
O   O37       1.0  0.37093  0.30727  0.37540  1.0000 -0.4747041098
O   O38       1.0  0.30727  0.37093  0.62460  1.0000 -0.4747041098
O   O39       1.0  0.62907  0.69273  0.62460  1.0000 -0.4747041098
O   O40       1.0  0.69273  0.62907  0.37540  1.0000 -0.4747041098
