# DDEC6 charges by PACMAN v1.1 (https://github.com/mtap-research/PACMAN-charge/)
data_2014[Cu][bcu]3[ASR]6
_chemical_formula_sum              "Cu6 H32 C48 N52"
_cell_length_a       13.09
_cell_length_b       14.744
_cell_length_c       20.0562
_cell_angle_alpha    90
_cell_angle_beta     129.082
_cell_angle_gamma    90

_symmetry_space_group_name_H-M    "P 1"
_symmetry_Int_Tables_number       1

loop_
  _symmetry_equiv_pos_as_xyz
  'x, y, z'

loop_
  _atom_site_type_symbol
  _atom_site_label
  _atom_site_symmetry_multiplicity
  _atom_site_fract_x
  _atom_site_fract_y
  _atom_site_fract_z
  _atom_site_occupancy
  _atom_site_charge
Cu  Cu1       1.0  0.00000  0.00000  0.00000  1.0000 0.576750336
Cu  Cu2       1.0  0.00000  0.50000  0.50000  1.0000 0.576750336
Cu  Cu3       1.0  0.12253  0.20445  0.10106  1.0000 0.5176541934
Cu  Cu4       1.0  0.87747  0.70445  0.39894  1.0000 0.5176541934
Cu  Cu5       1.0  0.87747  0.79555  0.89894  1.0000 0.5176541934
Cu  Cu6       1.0  0.12253  0.29555  0.60106  1.0000 0.5176541934
H   H1        1.0  0.17050  0.37010  0.75440  1.0000 0.1088571933
H   H2        1.0  0.82950  0.87010  0.74560  1.0000 0.1088571933
H   H3        1.0  0.82950  0.62990  0.24560  1.0000 0.1088571933
H   H4        1.0  0.17050  0.12990  0.25440  1.0000 0.1088571933
H   H5        1.0  0.16770  0.33110  0.86290  1.0000 0.1430954019
H   H6        1.0  0.83230  0.83110  0.63710  1.0000 0.1430954019
H   H7        1.0  0.83230  0.66890  0.13710  1.0000 0.1430954019
H   H8        1.0  0.16770  0.16890  0.36290  1.0000 0.1430954019
H   H9        1.0  0.04570  0.08520  0.75560  1.0000 0.1494369486
H   H10       1.0  0.95430  0.58520  0.74440  1.0000 0.1494369486
H   H11       1.0  0.95430  0.91480  0.24440  1.0000 0.1494369486
H   H12       1.0  0.04570  0.41480  0.25560  1.0000 0.1494369486
H   H13       1.0  0.04730  0.13460  0.64930  1.0000 0.1088571933
H   H14       1.0  0.95270  0.63460  0.85070  1.0000 0.1088571933
H   H15       1.0  0.95270  0.86540  0.35070  1.0000 0.1088571933
H   H16       1.0  0.04730  0.36540  0.14930  1.0000 0.1088571933
H   H17       1.0  0.39080  0.28830  0.75790  1.0000 0.1088571933
H   H18       1.0  0.60920  0.78830  0.74210  1.0000 0.1088571933
H   H19       1.0  0.60920  0.71170  0.24210  1.0000 0.1088571933
H   H20       1.0  0.39080  0.21170  0.25790  1.0000 0.1088571933
H   H21       1.0  0.57350  0.20070  0.83230  1.0000 0.1494369486
H   H22       1.0  0.42650  0.70070  0.66770  1.0000 0.1494369486
H   H23       1.0  0.42650  0.79930  0.16770  1.0000 0.1494369486
H   H24       1.0  0.57350  0.29930  0.33230  1.0000 0.1494369486
H   H25       1.0  0.39020  0.03310  0.63040  1.0000 0.1430954019
H   H26       1.0  0.60980  0.53310  0.86960  1.0000 0.1430954019
H   H27       1.0  0.60980  0.96690  0.36960  1.0000 0.1430954019
H   H28       1.0  0.39020  0.46690  0.13040  1.0000 0.1430954019
H   H29       1.0  0.20950  0.12630  0.56210  1.0000 0.1088571933
H   H30       1.0  0.79050  0.62630  0.93790  1.0000 0.1088571933
H   H31       1.0  0.79050  0.87370  0.43790  1.0000 0.1088571933
H   H32       1.0  0.20950  0.37370  0.06210  1.0000 0.1088571933
C   C1        1.0  0.14630  0.31120  0.75540  1.0000 0.090504535
C   C2        1.0  0.85370  0.81120  0.74460  1.0000 0.090504535
C   C3        1.0  0.85370  0.68880  0.24460  1.0000 0.090504535
C   C4        1.0  0.14630  0.18880  0.25540  1.0000 0.090504535
C   C5        1.0  0.14370  0.28900  0.82070  1.0000 -0.1775516665
C   C6        1.0  0.85630  0.78900  0.67930  1.0000 -0.1775516665
C   C7        1.0  0.85630  0.71100  0.17930  1.0000 -0.1775516665
C   C8        1.0  0.14370  0.21100  0.32070  1.0000 -0.1775516665
C   C9        1.0  0.10490  0.20330  0.82250  1.0000 0.090504535
C   C10       1.0  0.89510  0.70330  0.67750  1.0000 0.090504535
C   C11       1.0  0.89510  0.79670  0.17750  1.0000 0.090504535
C   C12       1.0  0.10490  0.29670  0.32250  1.0000 0.090504535
C   C13       1.0  0.07100  0.14440  0.75660  1.0000 -0.1619824405
C   C14       1.0  0.92900  0.64440  0.74340  1.0000 -0.1619824405
C   C15       1.0  0.92900  0.85560  0.24340  1.0000 -0.1619824405
C   C16       1.0  0.07100  0.35560  0.25660  1.0000 -0.1619824405
C   C17       1.0  0.07510  0.17360  0.69440  1.0000 0.0377018636
C   C18       1.0  0.92490  0.67360  0.80560  1.0000 0.0377018636
C   C19       1.0  0.92490  0.82640  0.30560  1.0000 0.0377018636
C   C20       1.0  0.07510  0.32640  0.19440  1.0000 0.0377018636
C   C21       1.0  0.09610  0.17350  0.88800  1.0000 0.220131846
C   C22       1.0  0.90390  0.67350  0.61200  1.0000 0.220131846
C   C23       1.0  0.90390  0.82650  0.11200  1.0000 0.220131846
C   C24       1.0  0.09610  0.32650  0.38800  1.0000 0.220131846
C   C25       1.0  0.39070  0.23610  0.73180  1.0000 0.0721497675
C   C26       1.0  0.60930  0.73610  0.76820  1.0000 0.0721497675
C   C27       1.0  0.60930  0.76390  0.26820  1.0000 0.0721497675
C   C28       1.0  0.39070  0.26390  0.23180  1.0000 0.0755745301
C   C29       1.0  0.50110  0.18400  0.77700  1.0000 -0.1619824405
C   C30       1.0  0.49890  0.68400  0.72300  1.0000 -0.1619824405
C   C31       1.0  0.49890  0.81600  0.22300  1.0000 -0.1619824405
C   C32       1.0  0.50110  0.31600  0.27700  1.0000 -0.1650721898
C   C33       1.0  0.50530  0.10620  0.74050  1.0000 0.090504535
C   C34       1.0  0.49470  0.60620  0.75950  1.0000 0.090504535
C   C35       1.0  0.49470  0.89380  0.25950  1.0000 0.090504535
C   C36       1.0  0.50530  0.39380  0.24050  1.0000 0.090504535
C   C37       1.0  0.39260  0.08490  0.65780  1.0000 -0.1775516665
C   C38       1.0  0.60740  0.58490  0.84220  1.0000 -0.1775516665
C   C39       1.0  0.60740  0.91510  0.34220  1.0000 -0.1775516665
C   C40       1.0  0.39260  0.41510  0.15780  1.0000 -0.1775516665
C   C41       1.0  0.28440  0.14170  0.61700  1.0000 0.0721497675
C   C42       1.0  0.71560  0.64170  0.88300  1.0000 0.0721497675
C   C43       1.0  0.71560  0.85830  0.38300  1.0000 0.0721497675
C   C44       1.0  0.28440  0.35830  0.11700  1.0000 0.0721497675
C   C45       1.0  0.62090  0.04720  0.78750  1.0000 0.220131846
C   C46       1.0  0.37910  0.54720  0.71250  1.0000 0.220131846
C   C47       1.0  0.37910  0.95280  0.21250  1.0000 0.220131846
C   C48       1.0  0.62090  0.45280  0.28750  1.0000 0.220131846
N   N1        1.0  0.11810  0.25720  0.69540  1.0000 -0.1990621047
N   N2        1.0  0.88190  0.75720  0.80460  1.0000 -0.1928043684
N   N3        1.0  0.88190  0.74280  0.30460  1.0000 -0.1990621047
N   N4        1.0  0.11810  0.24280  0.19540  1.0000 -0.1990621047
N   N5        1.0  0.04940  0.09330  0.88750  1.0000 -0.2572545504
N   N6        1.0  0.95060  0.59330  0.61250  1.0000 -0.2572545504
N   N7        1.0  0.95060  0.90670  0.11250  1.0000 -0.2572545504
N   N8        1.0  0.04940  0.40670  0.38750  1.0000 -0.2572545504
N   N9        1.0  0.05920  0.09450  0.95790  1.0000 -0.0219284756
N   N10       1.0  0.94080  0.59450  0.54210  1.0000 -0.0219284756
N   N11       1.0  0.94080  0.90550  0.04210  1.0000 -0.0219284756
N   N12       1.0  0.05920  0.40550  0.45790  1.0000 -0.0219284756
N   N13       1.0  0.11010  0.17170  0.99810  1.0000 -0.0219284756
N   N14       1.0  0.88990  0.67170  0.50190  1.0000 -0.0219284756
N   N15       1.0  0.88990  0.82830  0.00190  1.0000 -0.0219284756
N   N16       1.0  0.11010  0.32830  0.49810  1.0000 -0.0219284756
N   N17       1.0  0.13590  0.22320  0.95640  1.0000 -0.2669703534
N   N18       1.0  0.86410  0.72320  0.54360  1.0000 -0.2669703534
N   N19       1.0  0.86410  0.77680  0.04360  1.0000 -0.2669703534
N   N20       1.0  0.13590  0.27680  0.45640  1.0000 -0.2669703534
N   N21       1.0  0.28260  0.21720  0.65270  1.0000 -0.1990621047
N   N22       1.0  0.71740  0.71720  0.84730  1.0000 -0.1990621047
N   N23       1.0  0.71740  0.78280  0.34730  1.0000 -0.1990621047
N   N24       1.0  0.28260  0.28280  0.15270  1.0000 -0.1990621047
N   N25       1.0  0.73650  0.07600  0.86090  1.0000 -0.247812154
N   N26       1.0  0.26350  0.57600  0.63910  1.0000 -0.247812154
N   N27       1.0  0.26350  0.92400  0.13910  1.0000 -0.247812154
N   N28       1.0  0.73650  0.42400  0.36090  1.0000 -0.247812154
N   N29       1.0  0.81470  0.00530  0.88620  1.0000 -0.0219284756
N   N30       1.0  0.18530  0.50530  0.61380  1.0000 -0.0219284756
N   N31       1.0  0.18530  0.99470  0.11380  1.0000 -0.0219284756
N   N32       1.0  0.81470  0.49470  0.38620  1.0000 -0.0219284756
N   N33       1.0  0.75090  0.93660  0.83300  1.0000 -0.1038248224
N   N34       1.0  0.24910  0.43660  0.66700  1.0000 -0.1038248224
N   N35       1.0  0.24910  0.06340  0.16700  1.0000 -0.1038248224
N   N36       1.0  0.75090  0.56340  0.33300  1.0000 -0.1038248224
N   N37       1.0  0.62710  0.96280  0.76890  1.0000 -0.2811401879
N   N38       1.0  0.37290  0.46280  0.73110  1.0000 -0.2811401879
N   N39       1.0  0.37290  0.03720  0.23110  1.0000 -0.2811401879
N   N40       1.0  0.62710  0.53720  0.26890  1.0000 -0.2811401879
N   N41       1.0  0.96890  0.12400  0.05260  1.0000 -0.4887251204
N   N42       1.0  0.03110  0.62400  0.44740  1.0000 -0.4887251204
N   N43       1.0  0.03110  0.87600  0.94740  1.0000 -0.4887251204
N   N44       1.0  0.96890  0.37600  0.55260  1.0000 -0.4887251204
N   N45       1.0  0.88650  0.13840  0.05610  1.0000 0.4155136624
N   N46       1.0  0.11350  0.63840  0.44390  1.0000 0.414314864
N   N47       1.0  0.11350  0.86160  0.94390  1.0000 0.4155136624
N   N48       1.0  0.88650  0.36160  0.55610  1.0000 0.414314864
N   N49       1.0  0.80360  0.15330  0.05930  1.0000 -0.3481589427
N   N50       1.0  0.19640  0.65330  0.44070  1.0000 -0.3481589427
N   N51       1.0  0.19640  0.84670  0.94070  1.0000 -0.3481589427
N   N52       1.0  0.80360  0.34670  0.55930  1.0000 -0.3481589427
