# DDEC6 charges by PACMAN v1.1 (https://github.com/mtap-research/PACMAN-charge/)
data_2014[Eu][nan]3[ASR]4
_chemical_formula_sum              "Eu8 H88 C168 N16 O60"
_cell_length_a       21.3005
_cell_length_b       21.3005
_cell_length_c       21.3005
_cell_angle_alpha    93.4855
_cell_angle_beta     93.4855
_cell_angle_gamma    151.451

_symmetry_space_group_name_H-M    "P 1"
_symmetry_Int_Tables_number       1

loop_
  _symmetry_equiv_pos_as_xyz
  'x, y, z'

loop_
  _atom_site_type_symbol
  _atom_site_label
  _atom_site_symmetry_multiplicity
  _atom_site_fract_x
  _atom_site_fract_y
  _atom_site_fract_z
  _atom_site_occupancy
  _atom_site_charge
Eu  Eu1       1.0  0.60629  0.89776  0.07515  1.0000 1.9477036546
Eu  Eu2       1.0  0.82261  0.53114  0.92485  1.0000 1.9477036546
Eu  Eu3       1.0  0.46886  0.39371  0.29147  1.0000 1.9477036546
Eu  Eu4       1.0  0.10224  0.17739  0.70853  1.0000 1.9477036546
Eu  Eu5       1.0  0.64371  0.21886  0.79147  1.0000 1.9477036546
Eu  Eu6       1.0  0.42739  0.85224  0.20853  1.0000 1.9477036546
Eu  Eu7       1.0  0.78114  0.57261  0.42485  1.0000 1.9477036546
Eu  Eu8       1.0  0.14776  0.35629  0.57515  1.0000 1.9477036546
H   H1        1.0  0.49970  0.83660  0.83250  1.0000 0.1415548727
H   H2        1.0  0.00410  0.66720  0.16750  1.0000 0.1415548727
H   H3        1.0  0.33280  0.50030  0.33690  1.0000 0.1415548727
H   H4        1.0  0.16340  0.99590  0.66310  1.0000 0.1415548727
H   H5        1.0  0.75030  0.08280  0.83690  1.0000 0.1415548727
H   H6        1.0  0.24590  0.91340  0.16310  1.0000 0.1415548727
H   H7        1.0  0.91720  0.75410  0.66750  1.0000 0.1415548727
H   H8        1.0  0.08660  0.24970  0.33250  1.0000 0.1415548727
H   H9        1.0  0.38460  0.67610  0.72570  1.0000 0.1314786016
H   H10       1.0  0.95040  0.65890  0.27430  1.0000 0.1314786016
H   H11       1.0  0.34110  0.61540  0.29150  1.0000 0.1314786016
H   H12       1.0  0.32390  0.04960  0.70850  1.0000 0.1314786016
H   H13       1.0  0.86540  0.09110  0.79150  1.0000 0.1314786016
H   H14       1.0  0.29960  0.07390  0.20850  1.0000 0.1314786016
H   H15       1.0  0.90890  0.70040  0.77430  1.0000 0.1314786016
H   H16       1.0  0.92610  0.13460  0.22570  1.0000 0.1314786016
H   H17       1.0  0.60050  0.18100  0.15450  1.0000 0.1516848269
H   H18       1.0  0.02650  0.44600  0.84550  1.0000 0.1516848269
H   H19       1.0  0.55400  0.39950  0.58050  1.0000 0.1516848269
H   H20       1.0  0.81900  0.97350  0.41950  1.0000 0.1516848269
H   H21       1.0  0.64950  0.30400  0.08050  1.0000 0.1516848269
H   H22       1.0  0.22350  0.56900  0.91950  1.0000 0.1516848269
H   H23       1.0  0.69600  0.77650  0.34550  1.0000 0.1516848269
H   H24       1.0  0.43100  0.35050  0.65450  1.0000 0.1516848269
H   H25       1.0  0.65070  0.78410  0.10960  1.0000 0.1195573953
H   H26       1.0  0.67450  0.54110  0.89040  1.0000 0.1195573953
H   H27       1.0  0.45890  0.34930  0.13340  1.0000 0.1195573953
H   H28       1.0  0.21590  0.32550  0.86660  1.0000 0.1195573953
H   H29       1.0  0.59930  0.20890  0.63340  1.0000 0.1195573953
H   H30       1.0  0.57550  0.96590  0.36660  1.0000 0.1195573953
H   H31       1.0  0.79110  0.42450  0.39040  1.0000 0.1195573953
H   H32       1.0  0.03410  0.40070  0.60960  1.0000 0.1195573953
H   H33       1.0  0.80970  0.84480  0.14350  1.0000 0.1314786016
H   H34       1.0  0.70130  0.66620  0.85650  1.0000 0.1314786016
H   H35       1.0  0.33380  0.19030  0.03510  1.0000 0.1314786016
H   H36       1.0  0.15520  0.29870  0.96490  1.0000 0.1314786016
H   H37       1.0  0.44030  0.08380  0.53510  1.0000 0.1314786016
H   H38       1.0  0.54870  0.90520  0.46490  1.0000 0.1314786016
H   H39       1.0  0.91620  0.45130  0.35650  1.0000 0.1314786016
H   H40       1.0  0.09480  0.55970  0.64350  1.0000 0.1314786016
H   H41       1.0  0.03850  0.06570  0.14340  1.0000 0.1195573953
H   H42       1.0  0.92230  0.89510  0.85660  1.0000 0.1195573953
H   H43       1.0  0.10490  0.96150  0.02720  1.0000 0.1195573953
H   H44       1.0  0.93430  0.07770  0.97280  1.0000 0.1195573953
H   H45       1.0  0.21150  0.85490  0.52720  1.0000 0.1195573953
H   H46       1.0  0.32770  0.68430  0.47280  1.0000 0.1195573953
H   H47       1.0  0.14510  0.67230  0.35660  1.0000 0.1195573953
H   H48       1.0  0.31570  0.78850  0.64340  1.0000 0.1195573953
H   H49       1.0  0.21960  0.30130  0.12750  1.0000 0.1415548727
H   H50       1.0  0.17380  0.09210  0.87250  1.0000 0.1415548727
H   H51       1.0  0.90790  0.78040  0.08170  1.0000 0.1415548727
H   H52       1.0  0.69870  0.82620  0.91830  1.0000 0.1415548727
H   H53       1.0  0.03040  0.65790  0.58170  1.0000 0.1415548727
H   H54       1.0  0.07620  0.44870  0.41830  1.0000 0.1415548727
H   H55       1.0  0.34210  0.92380  0.37250  1.0000 0.1415548727
H   H56       1.0  0.55130  0.96960  0.62750  1.0000 0.1415548727
H   H57       1.0  0.27090  0.43870  0.09480  1.0000 0.1415548727
H   H58       1.0  0.34390  0.17610  0.90520  1.0000 0.1415548727
H   H59       1.0  0.82390  0.72910  0.16780  1.0000 0.1415548727
H   H60       1.0  0.56130  0.65610  0.83220  1.0000 0.1415548727
H   H61       1.0  0.97910  0.57390  0.66780  1.0000 0.1415548727
H   H62       1.0  0.90610  0.31130  0.33220  1.0000 0.1415548727
H   H63       1.0  0.42610  0.09390  0.40520  1.0000 0.1415548727
H   H64       1.0  0.68870  0.02090  0.59480  1.0000 0.1415548727
H   H65       1.0  0.19720  0.48200  0.05440  1.0000 0.1415548727
H   H66       1.0  0.42760  0.14280  0.94560  1.0000 0.1415548727
H   H67       1.0  0.85720  0.80280  0.28480  1.0000 0.1415548727
H   H68       1.0  0.51800  0.57240  0.71520  1.0000 0.1415548727
H   H69       1.0  0.05280  0.60720  0.78480  1.0000 0.1415548727
H   H70       1.0  0.82240  0.26800  0.21520  1.0000 0.1415548727
H   H71       1.0  0.39280  0.17760  0.44560  1.0000 0.1415548727
H   H72       1.0  0.73200  0.94720  0.55440  1.0000 0.1415548727
H   H73       1.0  0.02220  0.39690  0.01770  1.0000 0.1314786016
H   H74       1.0  0.37920  0.00450  0.98230  1.0000 0.1314786016
H   H75       1.0  0.99550  0.97780  0.37470  1.0000 0.1314786016
H   H76       1.0  0.60310  0.62080  0.62530  1.0000 0.1314786016
H   H77       1.0  0.22780  0.74550  0.87470  1.0000 0.1314786016
H   H78       1.0  0.87080  0.35310  0.12530  1.0000 0.1314786016
H   H79       1.0  0.25450  0.12920  0.48230  1.0000 0.1314786016
H   H80       1.0  0.64690  0.77220  0.51770  1.0000 0.1314786016
H   H81       1.0  0.80370  0.17770  0.02780  1.0000 0.1195573953
H   H82       1.0  0.14990  0.77590  0.97220  1.0000 0.1195573953
H   H83       1.0  0.22410  0.19630  0.37400  1.0000 0.1195573953
H   H84       1.0  0.82230  0.85010  0.62600  1.0000 0.1195573953
H   H85       1.0  0.44630  0.97410  0.87400  1.0000 0.1195573953
H   H86       1.0  0.10010  0.57230  0.12600  1.0000 0.1195573953
H   H87       1.0  0.02590  0.89990  0.47220  1.0000 0.1195573953
H   H88       1.0  0.42770  0.55370  0.52780  1.0000 0.1195573953
C   C1        1.0  0.53020  0.78980  0.94340  1.0000 0.5192966561
C   C2        1.0  0.84640  0.58680  0.05660  1.0000 0.5192966561
C   C3        1.0  0.41320  0.46980  0.25960  1.0000 0.5192966561
C   C4        1.0  0.21020  0.15360  0.74040  1.0000 0.5192966561
C   C5        1.0  0.71980  0.16320  0.75960  1.0000 0.5192966561
C   C6        1.0  0.40360  0.96020  0.24040  1.0000 0.5192966561
C   C7        1.0  0.83680  0.59640  0.55660  1.0000 0.5192966561
C   C8        1.0  0.03980  0.28020  0.44340  1.0000 0.5192966561
C   C9        1.0  0.46870  0.72750  0.87440  1.0000 0.0704071398
C   C10       1.0  0.85310  0.59430  0.12560  1.0000 0.0704071398
C   C11       1.0  0.40570  0.53130  0.25880  1.0000 0.0704071398
C   C12       1.0  0.27250  0.14690  0.74120  1.0000 0.0704071398
C   C13       1.0  0.78130  0.15570  0.75880  1.0000 0.0704071398
C   C14       1.0  0.39690  0.02250  0.24120  1.0000 0.0704071398
C   C15       1.0  0.84430  0.60310  0.62560  1.0000 0.0704071398
C   C16       1.0  0.97750  0.21870  0.37440  1.0000 0.0704071398
C   C17       1.0  0.46510  0.76430  0.82700  1.0000 -0.1657988423
C   C18       1.0  0.93730  0.63810  0.17300  1.0000 -0.1657988423
C   C19       1.0  0.36190  0.53490  0.29920  1.0000 -0.1657988423
C   C20       1.0  0.23570  0.06270  0.70080  1.0000 -0.1657988423
C   C21       1.0  0.78490  0.11190  0.79920  1.0000 -0.1657988423
C   C22       1.0  0.31270  0.98570  0.20080  1.0000 -0.1657988423
C   C23       1.0  0.88810  0.68730  0.67300  1.0000 -0.1657988423
C   C24       1.0  0.01430  0.21510  0.32700  1.0000 -0.1657988423
C   C25       1.0  0.40020  0.67470  0.76790  1.0000 -0.1798325463
C   C26       1.0  0.90680  0.63230  0.23210  1.0000 -0.1798325463
C   C27       1.0  0.36770  0.59980  0.27450  1.0000 -0.1798325463
C   C28       1.0  0.32530  0.09320  0.72550  1.0000 -0.1798325463
C   C29       1.0  0.84980  0.11770  0.77450  1.0000 -0.1798325463
C   C30       1.0  0.34320  0.07530  0.22550  1.0000 -0.1798325463
C   C31       1.0  0.88230  0.65680  0.73210  1.0000 -0.1798325463
C   C32       1.0  0.92470  0.15020  0.26790  1.0000 -0.1798325463
C   C33       1.0  0.36470  0.58630  0.78400  1.0000 0.0809770559
C   C34       1.0  0.80230  0.58070  0.21600  1.0000 0.0809770559
C   C35       1.0  0.41930  0.63530  0.22160  1.0000 0.0809770559
C   C36       1.0  0.41370  0.19770  0.77840  1.0000 0.0809770559
C   C37       1.0  0.88530  0.16930  0.72160  1.0000 0.0809770559
C   C38       1.0  0.44770  0.16370  0.27840  1.0000 0.0809770559
C   C39       1.0  0.83070  0.55230  0.71600  1.0000 0.0809770559
C   C40       1.0  0.83630  0.11470  0.28400  1.0000 0.0809770559
C   C41       1.0  0.29240  0.46930  0.74210  1.0000 0.6012643377
C   C42       1.0  0.72720  0.55030  0.25790  1.0000 0.6012643377
C   C43       1.0  0.44970  0.70760  0.17690  1.0000 0.6012643377
C   C44       1.0  0.53070  0.27280  0.82310  1.0000 0.6012643377
C   C45       1.0  0.95760  0.19970  0.67690  1.0000 0.6012643377
C   C46       1.0  0.52280  0.28070  0.32310  1.0000 0.6012643377
C   C47       1.0  0.80030  0.47720  0.75790  1.0000 0.6012643377
C   C48       1.0  0.71930  0.04240  0.24210  1.0000 0.6012643377
C   C49       1.0  0.59210  0.04430  0.10040  1.0000 0.5926067035
C   C50       1.0  0.94390  0.49170  0.89960  1.0000 0.5926067035
C   C51       1.0  0.50830  0.40790  0.45220  1.0000 0.5926067035
C   C52       1.0  0.95570  0.05610  0.54780  1.0000 0.5926067035
C   C53       1.0  0.65790  0.25830  0.95220  1.0000 0.5926067035
C   C54       1.0  0.30610  0.70570  0.04780  1.0000 0.5926067035
C   C55       1.0  0.74170  0.69390  0.39960  1.0000 0.5926067035
C   C56       1.0  0.29430  0.34210  0.60040  1.0000 0.5926067035
C   C57       1.0  0.60760  0.12160  0.07960  1.0000 0.0704071398
C   C58       1.0  0.04200  0.52800  0.92040  1.0000 0.0704071398
C   C59       1.0  0.47200  0.39240  0.51400  1.0000 0.0704071398
C   C60       1.0  0.87840  0.95800  0.48600  1.0000 0.0704071398
C   C61       1.0  0.64240  0.22200  0.01400  1.0000 0.0704071398
C   C62       1.0  0.20800  0.62840  0.98600  1.0000 0.0704071398
C   C63       1.0  0.77800  0.79200  0.42040  1.0000 0.0704071398
C   C64       1.0  0.37160  0.35760  0.57960  1.0000 0.0704071398
C   C65       1.0  0.61230  0.18320  0.11190  1.0000 -0.1798325463
C   C66       1.0  0.07130  0.50040  0.88810  1.0000 -0.1798325463
C   C67       1.0  0.49960  0.38770  0.57090  1.0000 -0.1798325463
C   C68       1.0  0.81680  0.92870  0.42910  1.0000 -0.1798325463
C   C69       1.0  0.63770  0.24960  0.07090  1.0000 -0.1798325463
C   C70       1.0  0.17870  0.56680  0.92910  1.0000 -0.1798325463
C   C71       1.0  0.75040  0.82130  0.38810  1.0000 -0.1798325463
C   C72       1.0  0.43320  0.36230  0.61190  1.0000 -0.1798325463
C   C73       1.0  0.74370  0.87430  0.11260  1.0000 0.1314786016
C   C74       1.0  0.76170  0.63110  0.88740  1.0000 0.1314786016
C   C75       1.0  0.36890  0.25630  0.13060  1.0000 0.1314786016
C   C76       1.0  0.12570  0.23830  0.86940  1.0000 0.1314786016
C   C77       1.0  0.50630  0.11890  0.63060  1.0000 0.1314786016
C   C78       1.0  0.48830  0.87570  0.36940  1.0000 0.1314786016
C   C79       1.0  0.88110  0.51170  0.38740  1.0000 0.1314786016
C   C80       1.0  0.12430  0.49370  0.61260  1.0000 0.1314786016
C   C81       1.0  0.83730  0.90830  0.13160  1.0000 -0.1433128429
C   C82       1.0  0.77670  0.70570  0.86840  1.0000 -0.1433128429
C   C83       1.0  0.29430  0.16270  0.07100  1.0000 -0.1433128429
C   C84       1.0  0.09170  0.22330  0.92900  1.0000 -0.1433128429
C   C85       1.0  0.41270  0.04430  0.57100  1.0000 -0.1433128429
C   C86       1.0  0.47330  0.84170  0.42900  1.0000 -0.1433128429
C   C87       1.0  0.95570  0.52670  0.36840  1.0000 -0.1433128429
C   C88       1.0  0.15830  0.58730  0.63160  1.0000 -0.1433128429
C   C89       1.0  0.97320  0.04010  0.13230  1.0000 -0.0900555451
C   C90       1.0  0.90780  0.84090  0.86770  1.0000 -0.0900555451
C   C91       1.0  0.15910  0.02680  0.06690  1.0000 -0.0900555451
C   C92       1.0  0.95990  0.09220  0.93310  1.0000 -0.0900555451
C   C93       1.0  0.27680  0.90910  0.56690  1.0000 -0.0900555451
C   C94       1.0  0.34220  0.70990  0.43310  1.0000 -0.0900555451
C   C95       1.0  0.09090  0.65780  0.36770  1.0000 -0.0900555451
C   C96       1.0  0.29010  0.72320  0.63230  1.0000 -0.0900555451
C   C97       1.0  0.01360  0.13460  0.11680  1.0000 0.0424294844
C   C98       1.0  0.01780  0.89680  0.88320  1.0000 0.0424294844
C   C99       1.0  0.10320  0.98640  0.12100  1.0000 0.0424294844
C   C100      1.0  0.86540  0.98220  0.87900  1.0000 0.0424294844
C   C101      1.0  0.23640  0.85320  0.62100  1.0000 0.0424294844
C   C102      1.0  0.23220  0.61540  0.37900  1.0000 0.0424294844
C   C103      1.0  0.14680  0.76780  0.38320  1.0000 0.0424294844
C   C104      1.0  0.38460  0.76360  0.61680  1.0000 0.0424294844
C   C105      1.0  0.15020  0.27010  0.11490  1.0000 -0.1284964265
C   C106      1.0  0.15520  0.03530  0.88510  1.0000 -0.1284964265
C   C107      1.0  0.96470  0.84980  0.11990  1.0000 -0.1284964265
C   C108      1.0  0.72990  0.84480  0.88010  1.0000 -0.1284964265
C   C109      1.0  0.09980  0.71470  0.61990  1.0000 -0.1284964265
C   C110      1.0  0.09480  0.47990  0.38010  1.0000 -0.1284964265
C   C111      1.0  0.28530  0.90520  0.38510  1.0000 -0.1284964265
C   C112      1.0  0.52010  0.90020  0.61490  1.0000 -0.1284964265
C   C113      1.0  0.18010  0.35040  0.09610  1.0000 -0.1284964265
C   C114      1.0  0.25430  0.08400  0.90390  1.0000 -0.1284964265
C   C115      1.0  0.91600  0.81990  0.17030  1.0000 -0.1284964265
C   C116      1.0  0.64960  0.74570  0.82970  1.0000 -0.1284964265
C   C117      1.0  0.06990  0.66600  0.67030  1.0000 -0.1284964265
C   C118      1.0  0.99570  0.39960  0.32970  1.0000 -0.1284964265
C   C119      1.0  0.33400  0.00430  0.40390  1.0000 -0.1284964265
C   C120      1.0  0.60040  0.93010  0.59610  1.0000 -0.1284964265
C   C121      1.0  0.08180  0.31070  0.07750  1.0000 0.0424294844
C   C122      1.0  0.23320  0.00430  0.92250  1.0000 0.0424294844
C   C123      1.0  0.99570  0.91820  0.22890  1.0000 0.0424294844
C   C124      1.0  0.68930  0.76680  0.77110  1.0000 0.0424294844
C   C125      1.0  0.16820  0.74570  0.72890  1.0000 0.0424294844
C   C126      1.0  0.01680  0.43930  0.27110  1.0000 0.0424294844
C   C127      1.0  0.25430  0.98320  0.42250  1.0000 0.0424294844
C   C128      1.0  0.56070  0.83180  0.57750  1.0000 0.0424294844
C   C129      1.0  0.10740  0.39200  0.05540  1.0000 -0.0791937274
C   C130      1.0  0.33660  0.05200  0.94460  1.0000 -0.0791937274
C   C131      1.0  0.94800  0.89260  0.28460  1.0000 -0.0791937274
C   C132      1.0  0.60800  0.66340  0.71540  1.0000 -0.0791937274
C   C133      1.0  0.14260  0.69800  0.78460  1.0000 -0.0791937274
C   C134      1.0  0.91340  0.35800  0.21540  1.0000 -0.0791937274
C   C135      1.0  0.30200  0.08660  0.44460  1.0000 -0.0791937274
C   C136      1.0  0.64200  0.85740  0.55540  1.0000 -0.0791937274
C   C137      1.0  0.00610  0.34430  0.03520  1.0000 -0.1284964265
C   C138      1.0  0.30910  0.97090  0.96480  1.0000 -0.1284964265
C   C139      1.0  0.02910  0.99390  0.33820  1.0000 -0.1284964265
C   C140      1.0  0.65570  0.69090  0.66180  1.0000 -0.1284964265
C   C141      1.0  0.24390  0.77910  0.83820  1.0000 -0.1284964265
C   C142      1.0  0.94090  0.40570  0.16180  1.0000 -0.1284964265
C   C143      1.0  0.22090  0.05910  0.46480  1.0000 -0.1284964265
C   C144      1.0  0.59430  0.75610  0.53520  1.0000 -0.1284964265
C   C145      1.0  0.87550  0.21250  0.04120  1.0000 0.1195573953
C   C146      1.0  0.17130  0.83430  0.95880  1.0000 0.1195573953
C   C147      1.0  0.16570  0.12450  0.33700  1.0000 0.1195573953
C   C148      1.0  0.78750  0.82870  0.66300  1.0000 0.1195573953
C   C149      1.0  0.37450  0.91570  0.83700  1.0000 0.1195573953
C   C150      1.0  0.07870  0.53750  0.16300  1.0000 0.1195573953
C   C151      1.0  0.08430  0.92130  0.45880  1.0000 0.1195573953
C   C152      1.0  0.46250  0.62550  0.54120  1.0000 0.1195573953
C   C153      1.0  0.94700  0.18000  0.08120  1.0000 0.1314786016
C   C154      1.0  0.09880  0.86580  0.91880  1.0000 0.1314786016
C   C155      1.0  0.13420  0.05300  0.23300  1.0000 0.1314786016
C   C156      1.0  0.82000  0.90120  0.76700  1.0000 0.1314786016
C   C157      1.0  0.30300  0.88420  0.73300  1.0000 0.1314786016
C   C158      1.0  0.15120  0.57000  0.26700  1.0000 0.1314786016
C   C159      1.0  0.11580  0.84880  0.41880  1.0000 0.1314786016
C   C160      1.0  0.43000  0.69700  0.58120  1.0000 0.1314786016
C   C161      1.0  0.91260  0.08960  0.10020  1.0000 0.1045531283
C   C162      1.0  0.98940  0.81240  0.89980  1.0000 0.1045531283
C   C163      1.0  0.18760  0.08740  0.17700  1.0000 0.1045531283
C   C164      1.0  0.91040  0.01060  0.82300  1.0000 0.1045531283
C   C165      1.0  0.33740  0.93760  0.67700  1.0000 0.1045531283
C   C166      1.0  0.26060  0.66040  0.32300  1.0000 0.1045531283
C   C167      1.0  0.06240  0.73940  0.39980  1.0000 0.1045531283
C   C168      1.0  0.33960  0.66260  0.60020  1.0000 0.1045531283
N   N1        1.0  0.77840  0.96030  0.09890  1.0000 -0.3654058476
N   N2        1.0  0.86140  0.67950  0.90110  1.0000 -0.3654058476
N   N3        1.0  0.32050  0.22160  0.18190  1.0000 -0.3654058476
N   N4        1.0  0.03970  0.13860  0.81810  1.0000 -0.3654058476
N   N5        1.0  0.47160  0.07050  0.68190  1.0000 -0.3654058476
N   N6        1.0  0.38860  0.78970  0.31810  1.0000 -0.3654058476
N   N7        1.0  0.92950  0.61140  0.40110  1.0000 -0.3654058476
N   N8        1.0  0.21030  0.52840  0.59890  1.0000 -0.3654058476
N   N9        1.0  0.84830  0.13550  0.06480  1.0000 -0.3457244833
N   N10       1.0  0.07070  0.78350  0.93520  1.0000 -0.3457244833
N   N11       1.0  0.21650  0.15170  0.28720  1.0000 -0.3457244833
N   N12       1.0  0.86450  0.92930  0.71280  1.0000 -0.3457244833
N   N13       1.0  0.40170  0.96650  0.78720  1.0000 -0.3457244833
N   N14       1.0  0.17930  0.61450  0.21280  1.0000 -0.3457244833
N   N15       1.0  0.03350  0.82070  0.43520  1.0000 -0.3457244833
N   N16       1.0  0.38550  0.59830  0.56480  1.0000 -0.3457244833
O   O1        1.0  0.26401  0.39671  0.76752  1.0000 -0.6025985569
O   O2        1.0  0.62919  0.49649  0.23248  1.0000 -0.6025985569
O   O3        1.0  0.50351  0.73599  0.13270  1.0000 -0.6069428615
O   O4        1.0  0.60329  0.37081  0.86730  1.0000 -0.6069428615
O   O5        1.0  0.98599  0.25351  0.63270  1.0000 -0.6069428615
O   O6        1.0  0.62081  0.35329  0.36730  1.0000 -0.6069428615
O   O7        1.0  0.74649  0.37919  0.73248  1.0000 -0.6069428615
O   O8        1.0  0.64671  0.01401  0.26752  1.0000 -0.6025985569
O   O9        1.0  0.26304  0.45174  0.68098  1.0000 -0.7159565364
O   O10       1.0  0.77076  0.58206  0.31902  1.0000 -0.7159565364
O   O11       1.0  0.41794  0.73696  0.18870  1.0000 -0.7159565364
O   O12       1.0  0.54826  0.22924  0.81130  1.0000 -0.7159565364
O   O13       1.0  0.98696  0.16794  0.68870  1.0000 -0.7159565364
O   O14       1.0  0.47924  0.29826  0.31130  1.0000 -0.7159565364
O   O15       1.0  0.83206  0.52076  0.81902  1.0000 -0.7159565364
O   O16       1.0  0.70174  0.01304  0.18098  1.0000 -0.7159565364
O   O17       1.0  0.40506  0.61611  0.84857  1.0000 -0.1059038651
O   O18       1.0  0.76754  0.55649  0.15143  1.0000 -0.1059038651
O   O19       1.0  0.44351  0.59494  0.21105  1.0000 -0.1059038651
O   O20       1.0  0.38389  0.23246  0.78895  1.0000 -0.1059038651
O   O21       1.0  0.84494  0.19351  0.71105  1.0000 -0.1059038651
O   O22       1.0  0.48246  0.13389  0.28895  1.0000 -0.1059038651
O   O23       1.0  0.80649  0.51754  0.65143  1.0000 -0.1059038651
O   O24       1.0  0.86611  0.15506  0.34857  1.0000 -0.1059038651
O   O25       1.0  0.51912  0.73875  0.98267  1.0000 -0.6069428615
O   O26       1.0  0.75608  0.53645  0.01733  1.0000 -0.6069428615
O   O27       1.0  0.46355  0.48088  0.21963  1.0000 -0.6069428615
O   O28       1.0  0.26125  0.24392  0.78037  1.0000 -0.6069428615
O   O29       1.0  0.73088  0.21355  0.71963  1.0000 -0.6069428615
O   O30       1.0  0.49392  0.01125  0.28037  1.0000 -0.6069428615
O   O31       1.0  0.78645  0.50608  0.51733  1.0000 -0.6069428615
O   O32       1.0  0.98875  0.26912  0.48267  1.0000 -0.6069428615
O   O33       1.0  0.59270  0.89750  0.96320  1.0000 -0.6360510041
O   O34       1.0  0.93430  0.62950  0.03680  1.0000 -0.6360510041
O   O35       1.0  0.37050  0.40730  0.30480  1.0000 -0.6360510041
O   O36       1.0  0.10250  0.06570  0.69520  1.0000 -0.6360510041
O   O37       1.0  0.65730  0.12050  0.80480  1.0000 -0.6360510041
O   O38       1.0  0.31570  0.85250  0.19520  1.0000 -0.6360510041
O   O39       1.0  0.87950  0.68430  0.53680  1.0000 -0.6360510041
O   O40       1.0  0.14750  0.34270  0.46320  1.0000 -0.6360510041
O   O41       1.0  0.60364  0.00757  0.06461  1.0000 -0.6025985569
O   O42       1.0  0.94296  0.53903  0.93539  1.0000 -0.6025985569
O   O43       1.0  0.46097  0.39636  0.40393  1.0000 -0.6025985569
O   O44       1.0  0.99243  0.05704  0.59607  1.0000 -0.6025985569
O   O45       1.0  0.64636  0.21097  0.90393  1.0000 -0.6025985569
O   O46       1.0  0.30704  0.74243  0.09607  1.0000 -0.6025985569
O   O47       1.0  0.78903  0.69296  0.43539  1.0000 -0.6025985569
O   O48       1.0  0.25757  0.35364  0.56461  1.0000 -0.6025985569
O   O49       1.0  0.57269  0.02639  0.15728  1.0000 -0.6679528554
O   O50       1.0  0.86911  0.41541  0.84272  1.0000 -0.6679528554
O   O51       1.0  0.58459  0.42731  0.45370  1.0000 -0.6679528554
O   O52       1.0  0.97361  0.13089  0.54630  1.0000 -0.6679528554
O   O53       1.0  0.67731  0.33459  0.95370  1.0000 -0.6679528554
O   O54       1.0  0.38089  0.72361  0.04630  1.0000 -0.6679528554
O   O55       1.0  0.66541  0.61911  0.34272  1.0000 -0.6679528554
O   O56       1.0  0.27639  0.32269  0.65728  1.0000 -0.6679528554
O   O57       1.0  0.62500  0.14420  0.01920  1.0000 -0.1004732077
O   O58       1.0  0.12500  0.60580  0.98080  1.0000 -0.1004732077
O   O59       1.0  0.39420  0.37500  0.51920  1.0000 -0.1004732077
O   O60       1.0  0.85580  0.87500  0.48080  1.0000 -0.1004732077
