# DDEC6 charges by PACMAN v1.1 (https://github.com/mtap-research/PACMAN-charge/)
data_2014[Cd][nan]3[ASR]6
_chemical_formula_sum              "Cd8 H96 C144 N24 O48"
_cell_length_a       12.641
_cell_length_b       15.446
_cell_length_c       24.542
_cell_angle_alpha    90
_cell_angle_beta     90
_cell_angle_gamma    90

_symmetry_space_group_name_H-M    "P 1"
_symmetry_Int_Tables_number       1

loop_
  _symmetry_equiv_pos_as_xyz
  'x, y, z'

loop_
  _atom_site_type_symbol
  _atom_site_label
  _atom_site_symmetry_multiplicity
  _atom_site_fract_x
  _atom_site_fract_y
  _atom_site_fract_z
  _atom_site_occupancy
  _atom_site_charge
Cd  Cd1       1.0  0.67365  0.43249  0.73548  1.0000 0.902161207
Cd  Cd2       1.0  0.82635  0.93249  0.76452  1.0000 0.902161207
Cd  Cd3       1.0  0.82635  0.56751  0.23548  1.0000 0.902161207
Cd  Cd4       1.0  0.67365  0.06751  0.26452  1.0000 0.902161207
Cd  Cd5       1.0  0.32635  0.56751  0.26452  1.0000 0.902161207
Cd  Cd6       1.0  0.17365  0.06751  0.23548  1.0000 0.902161207
Cd  Cd7       1.0  0.17365  0.43249  0.76452  1.0000 0.902161207
Cd  Cd8       1.0  0.32635  0.93249  0.73548  1.0000 0.902161207
H   H1        1.0  0.51720  0.97170  0.61280  1.0000 0.1398961731
H   H2        1.0  0.98280  0.47170  0.88720  1.0000 0.1398961731
H   H3        1.0  0.98280  0.02830  0.11280  1.0000 0.1398961731
H   H4        1.0  0.51720  0.52830  0.38720  1.0000 0.1398961731
H   H5        1.0  0.48280  0.02830  0.38720  1.0000 0.1398961731
H   H6        1.0  0.01720  0.52830  0.11280  1.0000 0.1398961731
H   H7        1.0  0.01720  0.97170  0.88720  1.0000 0.1398961731
H   H8        1.0  0.48280  0.47170  0.61280  1.0000 0.1398961731
H   H9        1.0  0.58540  0.07320  0.55420  1.0000 0.1305662967
H   H10       1.0  0.91460  0.57320  0.94580  1.0000 0.1305662967
H   H11       1.0  0.91460  0.92680  0.05420  1.0000 0.1305662967
H   H12       1.0  0.58540  0.42680  0.44580  1.0000 0.1305662967
H   H13       1.0  0.41460  0.92680  0.44580  1.0000 0.1305662967
H   H14       1.0  0.08540  0.42680  0.05420  1.0000 0.1305662967
H   H15       1.0  0.08540  0.07320  0.94580  1.0000 0.1305662967
H   H16       1.0  0.41460  0.57320  0.55420  1.0000 0.1305662967
H   H17       1.0  0.63090  0.20910  0.58710  1.0000 0.1305662967
H   H18       1.0  0.86910  0.70910  0.91290  1.0000 0.1305662967
H   H19       1.0  0.86910  0.79090  0.08710  1.0000 0.1305662967
H   H20       1.0  0.63090  0.29090  0.41290  1.0000 0.1305662967
H   H21       1.0  0.36910  0.79090  0.41290  1.0000 0.1305662967
H   H22       1.0  0.13090  0.29090  0.08710  1.0000 0.1305662967
H   H23       1.0  0.13090  0.20910  0.91290  1.0000 0.1305662967
H   H24       1.0  0.36910  0.70910  0.58710  1.0000 0.1305662967
H   H25       1.0  0.59900  0.11230  0.88220  1.0000 0.1217115807
H   H26       1.0  0.90100  0.61230  0.61780  1.0000 0.1217115807
H   H27       1.0  0.90100  0.88770  0.38220  1.0000 0.1217115807
H   H28       1.0  0.59900  0.38770  0.11780  1.0000 0.1217115807
H   H29       1.0  0.40100  0.88770  0.11780  1.0000 0.1217115807
H   H30       1.0  0.09900  0.38770  0.38220  1.0000 0.1217115807
H   H31       1.0  0.09900  0.11230  0.61780  1.0000 0.1217115807
H   H32       1.0  0.40100  0.61230  0.88220  1.0000 0.1217115807
H   H33       1.0  0.44240  0.18930  0.89740  1.0000 0.1217115807
H   H34       1.0  0.05760  0.68930  0.60260  1.0000 0.1217115807
H   H35       1.0  0.05760  0.81070  0.39740  1.0000 0.1217115807
H   H36       1.0  0.44240  0.31070  0.10260  1.0000 0.1217115807
H   H37       1.0  0.55760  0.81070  0.10260  1.0000 0.1217115807
H   H38       1.0  0.94240  0.31070  0.39740  1.0000 0.1217115807
H   H39       1.0  0.94240  0.18930  0.60260  1.0000 0.1217115807
H   H40       1.0  0.55760  0.68930  0.89740  1.0000 0.1217115807
H   H41       1.0  0.33560  0.22440  0.82580  1.0000 0.1305662967
H   H42       1.0  0.16440  0.72440  0.67420  1.0000 0.1305662967
H   H43       1.0  0.16440  0.77560  0.32580  1.0000 0.1305662967
H   H44       1.0  0.33560  0.27560  0.17420  1.0000 0.1305662967
H   H45       1.0  0.66440  0.77560  0.17420  1.0000 0.1305662967
H   H46       1.0  0.83560  0.27560  0.32580  1.0000 0.1305662967
H   H47       1.0  0.83560  0.22440  0.67420  1.0000 0.1305662967
H   H48       1.0  0.66440  0.72440  0.82580  1.0000 0.1305662967
H   H49       1.0  0.47660  0.38840  0.81720  1.0000 0.1139102466
H   H50       1.0  0.02340  0.88840  0.68280  1.0000 0.1139102466
H   H51       1.0  0.02340  0.61160  0.31720  1.0000 0.1139102466
H   H52       1.0  0.47660  0.11160  0.18280  1.0000 0.1139102466
H   H53       1.0  0.52340  0.61160  0.18280  1.0000 0.1139102466
H   H54       1.0  0.97660  0.11160  0.31720  1.0000 0.1139102466
H   H55       1.0  0.97660  0.38840  0.68280  1.0000 0.1139102466
H   H56       1.0  0.52340  0.88840  0.81720  1.0000 0.1139102466
H   H57       1.0  0.42520  0.38870  0.90580  1.0000 0.1495667659
H   H58       1.0  0.07480  0.88870  0.59420  1.0000 0.1495667659
H   H59       1.0  0.07480  0.61130  0.40580  1.0000 0.1495667659
H   H60       1.0  0.42520  0.11130  0.09420  1.0000 0.1495667659
H   H61       1.0  0.57480  0.61130  0.09420  1.0000 0.1495667659
H   H62       1.0  0.92520  0.11130  0.40580  1.0000 0.1495667659
H   H63       1.0  0.92520  0.38870  0.59420  1.0000 0.1495667659
H   H64       1.0  0.57480  0.88870  0.90580  1.0000 0.1495667659
H   H65       1.0  0.69990  0.50110  0.94290  1.0000 0.1305662967
H   H66       1.0  0.80010  0.00110  0.55710  1.0000 0.1305662967
H   H67       1.0  0.80010  0.49890  0.44290  1.0000 0.1305662967
H   H68       1.0  0.69990  0.99890  0.05710  1.0000 0.1305662967
H   H69       1.0  0.30010  0.49890  0.05710  1.0000 0.1305662967
H   H70       1.0  0.19990  0.99890  0.44290  1.0000 0.1305662967
H   H71       1.0  0.19990  0.50110  0.55710  1.0000 0.1305662967
H   H72       1.0  0.30010  0.00110  0.94290  1.0000 0.1305662967
H   H73       1.0  0.74120  0.49910  0.85180  1.0000 0.0991897472
H   H74       1.0  0.75880  0.99910  0.64820  1.0000 0.0991897472
H   H75       1.0  0.75880  0.50090  0.35180  1.0000 0.0991897472
H   H76       1.0  0.74120  0.00090  0.14820  1.0000 0.0991897472
H   H77       1.0  0.25880  0.50090  0.14820  1.0000 0.0991897472
H   H78       1.0  0.24120  0.00090  0.35180  1.0000 0.0991897472
H   H79       1.0  0.24120  0.49910  0.64820  1.0000 0.0991897472
H   H80       1.0  0.25880  0.99910  0.85180  1.0000 0.0991897472
H   H81       1.0  0.58520  0.44470  0.01620  1.0000 0.1305662967
H   H82       1.0  0.91480  0.94470  0.48380  1.0000 0.1305662967
H   H83       1.0  0.91480  0.55530  0.51620  1.0000 0.1305662967
H   H84       1.0  0.58520  0.05530  0.98380  1.0000 0.1305662967
H   H85       1.0  0.41480  0.55530  0.98380  1.0000 0.1305662967
H   H86       1.0  0.08520  0.05530  0.51620  1.0000 0.1305662967
H   H87       1.0  0.08520  0.44470  0.48380  1.0000 0.1305662967
H   H88       1.0  0.41480  0.94470  0.01620  1.0000 0.1305662967
H   H89       1.0  0.47160  0.41040  0.00210  1.0000 0.1217115807
H   H90       1.0  0.02840  0.91040  0.49790  1.0000 0.1217115807
H   H91       1.0  0.02840  0.58960  0.50210  1.0000 0.1217115807
H   H92       1.0  0.47160  0.08960  0.99790  1.0000 0.1217115807
H   H93       1.0  0.52840  0.58960  0.99790  1.0000 0.1217115807
H   H94       1.0  0.97160  0.08960  0.50210  1.0000 0.1217115807
H   H95       1.0  0.97160  0.41040  0.49790  1.0000 0.1217115807
H   H96       1.0  0.52840  0.91040  0.00210  1.0000 0.1217115807
C   C1        1.0  0.53540  0.02630  0.62560  1.0000 -0.0303004682
C   C2        1.0  0.96460  0.52630  0.87440  1.0000 -0.0303004682
C   C3        1.0  0.96460  0.97370  0.12560  1.0000 -0.0303004682
C   C4        1.0  0.53540  0.47370  0.37440  1.0000 -0.0303004682
C   C5        1.0  0.46460  0.97370  0.37440  1.0000 -0.0303004682
C   C6        1.0  0.03540  0.47370  0.12560  1.0000 -0.0303004682
C   C7        1.0  0.03540  0.02630  0.87440  1.0000 -0.0303004682
C   C8        1.0  0.46460  0.52630  0.62560  1.0000 -0.0303004682
C   C9        1.0  0.57570  0.08650  0.59080  1.0000 -0.1584298797
C   C10       1.0  0.92430  0.58650  0.90920  1.0000 -0.1584298797
C   C11       1.0  0.92430  0.91350  0.09080  1.0000 -0.1584298797
C   C12       1.0  0.57570  0.41350  0.40920  1.0000 -0.1584298797
C   C13       1.0  0.42430  0.91350  0.40920  1.0000 -0.1584298797
C   C14       1.0  0.07570  0.41350  0.09080  1.0000 -0.1584298797
C   C15       1.0  0.07570  0.08650  0.90920  1.0000 -0.1584298797
C   C16       1.0  0.42430  0.58650  0.59080  1.0000 -0.1584298797
C   C17       1.0  0.60220  0.16810  0.61060  1.0000 -0.0833099782
C   C18       1.0  0.89780  0.66810  0.88940  1.0000 -0.0833099782
C   C19       1.0  0.89780  0.83190  0.11060  1.0000 -0.0833099782
C   C20       1.0  0.60220  0.33190  0.38940  1.0000 -0.0833099782
C   C21       1.0  0.39780  0.83190  0.38940  1.0000 -0.0833099782
C   C22       1.0  0.10220  0.33190  0.11060  1.0000 -0.0833099782
C   C23       1.0  0.10220  0.16810  0.88940  1.0000 -0.0833099782
C   C24       1.0  0.39780  0.66810  0.61060  1.0000 -0.0833099782
C   C25       1.0  0.58680  0.18890  0.66410  1.0000 -0.0642195135
C   C26       1.0  0.91320  0.68890  0.83590  1.0000 -0.0642195135
C   C27       1.0  0.91320  0.81110  0.16410  1.0000 -0.0642195135
C   C28       1.0  0.58680  0.31110  0.33590  1.0000 -0.0642195135
C   C29       1.0  0.41320  0.81110  0.33590  1.0000 -0.0642195135
C   C30       1.0  0.08680  0.31110  0.16410  1.0000 -0.0642195135
C   C31       1.0  0.08680  0.18890  0.83590  1.0000 -0.0642195135
C   C32       1.0  0.41320  0.68890  0.66410  1.0000 -0.0642195135
C   C33       1.0  0.54560  0.12630  0.69850  1.0000 0.0898061125
C   C34       1.0  0.95440  0.62630  0.80150  1.0000 0.0898061125
C   C35       1.0  0.95440  0.87370  0.19850  1.0000 0.0898061125
C   C36       1.0  0.54560  0.37370  0.30150  1.0000 0.0898061125
C   C37       1.0  0.45440  0.87370  0.30150  1.0000 0.0898061125
C   C38       1.0  0.04560  0.37370  0.19850  1.0000 0.0898061125
C   C39       1.0  0.04560  0.12630  0.80150  1.0000 0.0898061125
C   C40       1.0  0.45440  0.62630  0.69850  1.0000 0.0898061125
C   C41       1.0  0.52420  0.13920  0.75770  1.0000 0.0692112781
C   C42       1.0  0.97580  0.63920  0.74230  1.0000 0.0692112781
C   C43       1.0  0.97580  0.86080  0.25770  1.0000 0.0692112781
C   C44       1.0  0.52420  0.36080  0.24230  1.0000 0.0692112781
C   C45       1.0  0.47580  0.86080  0.24230  1.0000 0.0692112781
C   C46       1.0  0.02420  0.36080  0.25770  1.0000 0.0692112781
C   C47       1.0  0.02420  0.13920  0.74230  1.0000 0.0692112781
C   C48       1.0  0.47580  0.63920  0.75770  1.0000 0.0692112781
C   C49       1.0  0.58840  0.11280  0.80060  1.0000 -0.0501080272
C   C50       1.0  0.91160  0.61280  0.69940  1.0000 -0.0501080272
C   C51       1.0  0.91160  0.88720  0.30060  1.0000 -0.0501080272
C   C52       1.0  0.58840  0.38720  0.19940  1.0000 -0.0501080272
C   C53       1.0  0.41160  0.88720  0.19940  1.0000 -0.0501080272
C   C54       1.0  0.08840  0.38720  0.30060  1.0000 -0.0501080272
C   C55       1.0  0.08840  0.11280  0.69940  1.0000 -0.0501080272
C   C56       1.0  0.41160  0.61280  0.80060  1.0000 -0.0501080272
C   C57       1.0  0.55740  0.13010  0.85290  1.0000 -0.0965833329
C   C58       1.0  0.94260  0.63010  0.64710  1.0000 -0.0965833329
C   C59       1.0  0.94260  0.86990  0.35290  1.0000 -0.0965833329
C   C60       1.0  0.55740  0.36990  0.14710  1.0000 -0.0965833329
C   C61       1.0  0.44260  0.86990  0.14710  1.0000 -0.0965833329
C   C62       1.0  0.05740  0.36990  0.35290  1.0000 -0.0965833329
C   C63       1.0  0.05740  0.13010  0.64710  1.0000 -0.0965833329
C   C64       1.0  0.44260  0.63010  0.85290  1.0000 -0.0965833329
C   C65       1.0  0.46240  0.17490  0.86210  1.0000 -0.1432906613
C   C66       1.0  0.03760  0.67490  0.63790  1.0000 -0.1432906613
C   C67       1.0  0.03760  0.82510  0.36210  1.0000 -0.1432906613
C   C68       1.0  0.46240  0.32510  0.13790  1.0000 -0.1432906613
C   C69       1.0  0.53760  0.82510  0.13790  1.0000 -0.1432906613
C   C70       1.0  0.96240  0.32510  0.36210  1.0000 -0.1432906613
C   C71       1.0  0.96240  0.17490  0.63790  1.0000 -0.1432906613
C   C72       1.0  0.53760  0.67490  0.86210  1.0000 -0.1432906613
C   C73       1.0  0.40000  0.19710  0.81960  1.0000 -0.0501080272
C   C74       1.0  0.10000  0.69710  0.68040  1.0000 -0.0501080272
C   C75       1.0  0.10000  0.80290  0.31960  1.0000 -0.0501080272
C   C76       1.0  0.40000  0.30290  0.18040  1.0000 -0.0501080272
C   C77       1.0  0.60000  0.80290  0.18040  1.0000 -0.0501080272
C   C78       1.0  0.90000  0.30290  0.31960  1.0000 -0.0501080272
C   C79       1.0  0.90000  0.19710  0.68040  1.0000 -0.0501080272
C   C80       1.0  0.60000  0.69710  0.81960  1.0000 -0.0501080272
C   C81       1.0  0.61800  0.27750  0.68520  1.0000 0.5600472503
C   C82       1.0  0.88200  0.77750  0.81480  1.0000 0.5600472503
C   C83       1.0  0.88200  0.72250  0.18520  1.0000 0.5600472503
C   C84       1.0  0.61800  0.22250  0.31480  1.0000 0.5600472503
C   C85       1.0  0.38200  0.72250  0.31480  1.0000 0.5600472503
C   C86       1.0  0.11800  0.22250  0.18520  1.0000 0.5600472503
C   C87       1.0  0.11800  0.27750  0.81480  1.0000 0.5600472503
C   C88       1.0  0.38200  0.77750  0.68520  1.0000 0.5600472503
C   C89       1.0  0.68720  0.06040  0.78800  1.0000 0.5600472503
C   C90       1.0  0.81280  0.56040  0.71200  1.0000 0.5600472503
C   C91       1.0  0.81280  0.93960  0.28800  1.0000 0.5600472503
C   C92       1.0  0.68720  0.43960  0.21200  1.0000 0.5600472503
C   C93       1.0  0.31280  0.93960  0.21200  1.0000 0.5600472503
C   C94       1.0  0.18720  0.43960  0.28800  1.0000 0.5600472503
C   C95       1.0  0.18720  0.06040  0.71200  1.0000 0.5600472503
C   C96       1.0  0.31280  0.56040  0.78800  1.0000 0.5600472503
C   C97       1.0  0.52290  0.41120  0.84300  1.0000 0.0991897472
C   C98       1.0  0.97710  0.91120  0.65700  1.0000 0.0991897472
C   C99       1.0  0.97710  0.58880  0.34300  1.0000 0.0991897472
C   C100      1.0  0.52290  0.08880  0.15700  1.0000 0.0991897472
C   C101      1.0  0.47710  0.58880  0.15700  1.0000 0.0991897472
C   C102      1.0  0.02290  0.08880  0.34300  1.0000 0.0991897472
C   C103      1.0  0.02290  0.41120  0.65700  1.0000 0.0991897472
C   C104      1.0  0.47710  0.91120  0.84300  1.0000 0.0991897472
C   C105      1.0  0.49030  0.41220  0.89620  1.0000 -0.1974314563
C   C106      1.0  0.00970  0.91220  0.60380  1.0000 -0.1974314563
C   C107      1.0  0.00970  0.58780  0.39620  1.0000 -0.1974314563
C   C108      1.0  0.49030  0.08780  0.10380  1.0000 -0.1974314563
C   C109      1.0  0.50970  0.58780  0.10380  1.0000 -0.1974314563
C   C110      1.0  0.99030  0.08780  0.39620  1.0000 -0.1974314563
C   C111      1.0  0.99030  0.41220  0.60380  1.0000 -0.1974314563
C   C112      1.0  0.50970  0.91220  0.89620  1.0000 -0.1974314563
C   C113      1.0  0.55410  0.44790  0.93490  1.0000 0.1495667659
C   C114      1.0  0.94590  0.94790  0.56510  1.0000 0.1495667659
C   C115      1.0  0.94590  0.55210  0.43490  1.0000 0.1495667659
C   C116      1.0  0.55410  0.05210  0.06510  1.0000 0.1495667659
C   C117      1.0  0.44590  0.55210  0.06510  1.0000 0.1495667659
C   C118      1.0  0.05410  0.05210  0.43490  1.0000 0.1495667659
C   C119      1.0  0.05410  0.44790  0.56510  1.0000 0.1495667659
C   C120      1.0  0.44590  0.94790  0.93490  1.0000 0.1495667659
C   C121      1.0  0.65210  0.47860  0.91790  1.0000 -0.2119826339
C   C122      1.0  0.84790  0.97860  0.58210  1.0000 -0.2119826339
C   C123      1.0  0.84790  0.52140  0.41790  1.0000 -0.2119826339
C   C124      1.0  0.65210  0.02140  0.08210  1.0000 -0.2119826339
C   C125      1.0  0.34790  0.52140  0.08210  1.0000 -0.2119826339
C   C126      1.0  0.15210  0.02140  0.41790  1.0000 -0.2119826339
C   C127      1.0  0.15210  0.47860  0.58210  1.0000 -0.2119826339
C   C128      1.0  0.34790  0.97860  0.91790  1.0000 -0.2119826339
C   C129      1.0  0.67720  0.47530  0.86300  1.0000 0.0785590373
C   C130      1.0  0.82280  0.97530  0.63700  1.0000 0.0785590373
C   C131      1.0  0.82280  0.52470  0.36300  1.0000 0.0785590373
C   C132      1.0  0.67720  0.02470  0.13700  1.0000 0.0785590373
C   C133      1.0  0.32280  0.52470  0.13700  1.0000 0.0785590373
C   C134      1.0  0.17720  0.02470  0.36300  1.0000 0.0785590373
C   C135      1.0  0.17720  0.47530  0.63700  1.0000 0.0785590373
C   C136      1.0  0.32280  0.97530  0.86300  1.0000 0.0785590373
C   C137      1.0  0.52350  0.45460  0.99360  1.0000 -0.2307402529
C   C138      1.0  0.97650  0.95460  0.50640  1.0000 -0.2307402529
C   C139      1.0  0.97650  0.54540  0.49360  1.0000 -0.2307402529
C   C140      1.0  0.52350  0.04540  0.00640  1.0000 -0.2307402529
C   C141      1.0  0.47650  0.54540  0.00640  1.0000 -0.2307402529
C   C142      1.0  0.02350  0.04540  0.49360  1.0000 -0.2307402529
C   C143      1.0  0.02350  0.45460  0.50640  1.0000 -0.2307402529
C   C144      1.0  0.47650  0.95460  0.99360  1.0000 -0.2307402529
N   N1        1.0  0.61510  0.44010  0.82540  1.0000 -0.2307402529
N   N2        1.0  0.88490  0.94010  0.67460  1.0000 -0.2307402529
N   N3        1.0  0.88490  0.55990  0.32540  1.0000 -0.2307402529
N   N4        1.0  0.61510  0.05990  0.17460  1.0000 -0.2307402529
N   N5        1.0  0.38490  0.55990  0.17460  1.0000 -0.2307402529
N   N6        1.0  0.11510  0.05990  0.32540  1.0000 -0.2307402529
N   N7        1.0  0.11510  0.44010  0.67460  1.0000 -0.2307402529
N   N8        1.0  0.38490  0.94010  0.82540  1.0000 -0.2307402529
N   N9        1.0  0.43100  0.17980  0.76790  1.0000 0.2905769012
N   N10       1.0  0.06900  0.67980  0.73210  1.0000 0.2905769012
N   N11       1.0  0.06900  0.82020  0.26790  1.0000 0.2905769012
N   N12       1.0  0.43100  0.32020  0.23210  1.0000 0.2905769012
N   N13       1.0  0.56900  0.82020  0.23210  1.0000 0.2905769012
N   N14       1.0  0.93100  0.32020  0.26790  1.0000 0.2905769012
N   N15       1.0  0.93100  0.17980  0.73210  1.0000 0.2905769012
N   N16       1.0  0.56900  0.67980  0.76790  1.0000 0.2905769012
N   N17       1.0  0.52220  0.04570  0.67800  1.0000 0.2814315669
N   N18       1.0  0.97780  0.54570  0.82200  1.0000 0.2814315669
N   N19       1.0  0.97780  0.95430  0.17800  1.0000 0.2814315669
N   N20       1.0  0.52220  0.45430  0.32200  1.0000 0.2814315669
N   N21       1.0  0.47780  0.95430  0.32200  1.0000 0.2814315669
N   N22       1.0  0.02220  0.45430  0.17800  1.0000 0.2814315669
N   N23       1.0  0.02220  0.04570  0.82200  1.0000 0.2814315669
N   N24       1.0  0.47780  0.54570  0.67800  1.0000 0.2814315669
O   O1        1.0  0.59210  0.29640  0.73300  1.0000 -0.5170360468
O   O2        1.0  0.90790  0.79640  0.76700  1.0000 -0.5170360468
O   O3        1.0  0.90790  0.70360  0.23300  1.0000 -0.5170360468
O   O4        1.0  0.59210  0.20360  0.26700  1.0000 -0.5170360468
O   O5        1.0  0.40790  0.70360  0.26700  1.0000 -0.5170360468
O   O6        1.0  0.09210  0.20360  0.23300  1.0000 -0.5170360468
O   O7        1.0  0.09210  0.29640  0.76700  1.0000 -0.5170360468
O   O8        1.0  0.40790  0.79640  0.73300  1.0000 -0.5170360468
O   O9        1.0  0.66870  0.32650  0.65580  1.0000 -0.5306145512
O   O10       1.0  0.83130  0.82650  0.84420  1.0000 -0.5306145512
O   O11       1.0  0.83130  0.67350  0.15580  1.0000 -0.5306145512
O   O12       1.0  0.66870  0.17350  0.34420  1.0000 -0.5306145512
O   O13       1.0  0.33130  0.67350  0.34420  1.0000 -0.5306145512
O   O14       1.0  0.16870  0.17350  0.15580  1.0000 -0.5306145512
O   O15       1.0  0.16870  0.32650  0.84420  1.0000 -0.5306145512
O   O16       1.0  0.33130  0.82650  0.65580  1.0000 -0.5306145512
O   O17       1.0  0.73070  0.02050  0.82731  1.0000 -0.5561438016
O   O18       1.0  0.76930  0.52050  0.67269  1.0000 -0.5561438016
O   O19       1.0  0.76930  0.97950  0.32731  1.0000 -0.5561438016
O   O20       1.0  0.73070  0.47950  0.17269  1.0000 -0.5561438016
O   O21       1.0  0.26930  0.97950  0.17269  1.0000 -0.5561438016
O   O22       1.0  0.23070  0.47950  0.32731  1.0000 -0.5561438016
O   O23       1.0  0.23070  0.02050  0.67269  1.0000 -0.5561438016
O   O24       1.0  0.26930  0.52050  0.82731  1.0000 -0.5561438016
O   O25       1.0  0.71850  0.05510  0.73989  1.0000 -0.5401034914
O   O26       1.0  0.78150  0.55510  0.76011  1.0000 -0.5401034914
O   O27       1.0  0.78150  0.94490  0.23989  1.0000 -0.5401034914
O   O28       1.0  0.71850  0.44490  0.26011  1.0000 -0.5401034914
O   O29       1.0  0.28150  0.94490  0.26011  1.0000 -0.5401034914
O   O30       1.0  0.21850  0.44490  0.23989  1.0000 -0.5401034914
O   O31       1.0  0.21850  0.05510  0.76011  1.0000 -0.5401034914
O   O32       1.0  0.28150  0.55510  0.73989  1.0000 -0.5401034914
O   O33       1.0  0.49270  0.98430  0.71210  1.0000 -0.471667394
O   O34       1.0  0.00730  0.48430  0.78790  1.0000 -0.471667394
O   O35       1.0  0.00730  0.01570  0.21210  1.0000 -0.471667394
O   O36       1.0  0.49270  0.51570  0.28790  1.0000 -0.471667394
O   O37       1.0  0.50730  0.01570  0.28790  1.0000 -0.471667394
O   O38       1.0  0.99270  0.51570  0.21210  1.0000 -0.471667394
O   O39       1.0  0.99270  0.98430  0.78790  1.0000 -0.471667394
O   O40       1.0  0.50730  0.48430  0.71210  1.0000 -0.471667394
O   O41       1.0  0.37090  0.20370  0.72660  1.0000 -0.4383165054
O   O42       1.0  0.12910  0.70370  0.77340  1.0000 -0.4383165054
O   O43       1.0  0.12910  0.79630  0.22660  1.0000 -0.4383165054
O   O44       1.0  0.37090  0.29630  0.27340  1.0000 -0.4383165054
O   O45       1.0  0.62910  0.79630  0.27340  1.0000 -0.4383165054
O   O46       1.0  0.87090  0.29630  0.22660  1.0000 -0.4383165054
O   O47       1.0  0.87090  0.20370  0.77340  1.0000 -0.4383165054
O   O48       1.0  0.62910  0.70370  0.72660  1.0000 -0.4383165054
