# DDEC6 charges by PACMAN v1.1 (https://github.com/mtap-research/PACMAN-charge/)
data_2014[Tb][nan]3[ASR]3
_chemical_formula_sum              "Tb3 H18 C48 O24"
_cell_length_a       11.609
_cell_length_b       12.227
_cell_length_c       13.554
_cell_angle_alpha    115
_cell_angle_beta     110.86
_cell_angle_gamma    87.75

_symmetry_space_group_name_H-M    "P 1"
_symmetry_Int_Tables_number       1

loop_
  _symmetry_equiv_pos_as_xyz
  'x, y, z'

loop_
  _atom_site_type_symbol
  _atom_site_label
  _atom_site_symmetry_multiplicity
  _atom_site_fract_x
  _atom_site_fract_y
  _atom_site_fract_z
  _atom_site_occupancy
  _atom_site_charge
Tb  Tb1       1.0  0.50000  0.00000  0.50000  1.0000 2.0535708686
Tb  Tb2       1.0  0.57368  0.16969  0.32690  1.0000 2.0694955607
Tb  Tb3       1.0  0.42632  0.83031  0.67310  1.0000 2.0694955607
H   H1        1.0  0.93430  0.27890  0.57170  1.0000 0.1477662022
H   H2        1.0  0.06570  0.72110  0.42830  1.0000 0.1477662022
H   H3        1.0  0.91640  0.99550  0.64600  1.0000 0.1382153352
H   H4        1.0  0.08360  0.00450  0.35400  1.0000 0.1382153352
H   H5        1.0  0.24240  0.13120  0.67630  1.0000 0.121311782
H   H6        1.0  0.75760  0.86880  0.32370  1.0000 0.121311782
H   H7        1.0  0.36590  0.49260  0.54880  1.0000 0.1477662022
H   H8        1.0  0.63410  0.50740  0.45120  1.0000 0.1477662022
H   H9        1.0  0.09920  0.45440  0.66100  1.0000 0.1309194311
H   H10       1.0  0.90080  0.54560  0.33900  1.0000 0.1309194311
H   H11       1.0  0.49220  0.89690  0.08440  1.0000 0.1477662022
H   H12       1.0  0.50780  0.10310  0.91560  1.0000 0.1477662022
H   H13       1.0  0.27280  0.16950  0.53110  1.0000 0.121311782
H   H14       1.0  0.72720  0.83050  0.46890  1.0000 0.121311782
H   H15       1.0  0.50050  0.62670  0.17800  1.0000 0.1309194311
H   H16       1.0  0.49950  0.37330  0.82200  1.0000 0.1309194311
H   H17       1.0  0.48830  0.55450  0.85800  1.0000 0.1309194311
H   H18       1.0  0.51170  0.44550  0.14200  1.0000 0.1309194311
C   C1        1.0  0.47620  0.77130  0.86370  1.0000 0.5696105977
C   C2        1.0  0.52380  0.22870  0.13630  1.0000 0.5696105977
C   C3        1.0  0.76380  0.12720  0.56050  1.0000 0.6292346437
C   C4        1.0  0.23620  0.87280  0.43950  1.0000 0.6292346437
C   C5        1.0  0.97360  0.22150  0.59530  1.0000 -0.1206370126
C   C6        1.0  0.02640  0.77850  0.40470  1.0000 -0.1206370126
C   C7        1.0  0.90420  0.13740  0.60430  1.0000 -0.0189202259
C   C8        1.0  0.09580  0.86260  0.39570  1.0000 -0.0189202259
C   C9        1.0  0.96250  0.05130  0.64000  1.0000 -0.1038888002
C   C10       1.0  0.03750  0.94870  0.36000  1.0000 -0.1038888002
C   C11       1.0  0.15040  0.94790  0.69260  1.0000 0.5912544747
C   C12       1.0  0.84960  0.05210  0.30740  1.0000 0.5912544747
C   C13       1.0  0.08870  0.04890  0.66650  1.0000 -0.0189202259
C   C14       1.0  0.91130  0.95110  0.33350  1.0000 -0.0128430522
C   C15       1.0  0.15730  0.13290  0.65760  1.0000 -0.130155472
C   C16       1.0  0.84270  0.86710  0.34240  1.0000 -0.130155472
C   C17       1.0  0.10100  0.22000  0.62110  1.0000 0.0795252194
C   C18       1.0  0.89900  0.78000  0.37890  1.0000 0.0795252194
C   C19       1.0  0.21080  0.62230  0.63440  1.0000 0.5968902131
C   C20       1.0  0.78920  0.37770  0.36560  1.0000 0.5968902131
C   C21       1.0  0.22860  0.49280  0.60860  1.0000 -0.0128430522
C   C22       1.0  0.77140  0.50720  0.39140  1.0000 -0.0128430522
C   C23       1.0  0.31740  0.44410  0.56060  1.0000 -0.0799472722
C   C24       1.0  0.68260  0.55590  0.43940  1.0000 -0.0799472722
C   C25       1.0  0.33320  0.32140  0.53040  1.0000 -0.0128430522
C   C26       1.0  0.66680  0.67860  0.46960  1.0000 -0.0128430522
C   C27       1.0  0.49770  0.85880  0.26670  1.0000 0.6130229255
C   C28       1.0  0.50230  0.14120  0.73330  1.0000 0.6130229255
C   C29       1.0  0.42260  0.26700  0.47140  1.0000 0.6242762824
C   C30       1.0  0.57740  0.73300  0.52860  1.0000 0.6242762824
C   C31       1.0  0.17460  0.29940  0.60210  1.0000 0.0795252194
C   C32       1.0  0.82540  0.70060  0.39790  1.0000 0.0795252194
C   C33       1.0  0.49610  0.77430  0.14870  1.0000 -0.0189202259
C   C34       1.0  0.50390  0.22570  0.85130  1.0000 -0.0189202259
C   C35       1.0  0.15820  0.42090  0.62900  1.0000 -0.130155472
C   C36       1.0  0.84180  0.57910  0.37100  1.0000 -0.130155472
C   C37       1.0  0.49220  0.81460  0.06630  1.0000 -0.0799472722
C   C38       1.0  0.50780  0.18540  0.93370  1.0000 -0.0799472722
C   C39       1.0  0.26200  0.25090  0.55140  1.0000 -0.130155472
C   C40       1.0  0.73800  0.74910  0.44860  1.0000 -0.130155472
C   C41       1.0  0.49870  0.65240  0.12200  1.0000 -0.130155472
C   C42       1.0  0.50130  0.34760  0.87800  1.0000 -0.130155472
C   C43       1.0  0.49890  0.56630  0.01430  1.0000 0.0732626525
C   C44       1.0  0.50110  0.43370  0.98570  1.0000 0.0732626525
C   C45       1.0  0.48820  0.73140  0.95680  1.0000 0.0096365308
C   C46       1.0  0.51180  0.26860  0.04320  1.0000 0.0096365308
C   C47       1.0  0.49130  0.60950  0.93190  1.0000 -0.130155472
C   C48       1.0  0.50870  0.39050  0.06810  1.0000 -0.130155472
O   O1        1.0  0.43810  0.87010  0.86940  1.0000 -0.5832774918
O   O2        1.0  0.56190  0.12990  0.13060  1.0000 -0.5832774918
O   O3        1.0  0.50140  0.69940  0.77560  1.0000 -0.6163805703
O   O4        1.0  0.49860  0.30060  0.22440  1.0000 -0.6163805703
O   O5        1.0  0.70920  0.19330  0.51550  1.0000 -0.6074414233
O   O6        1.0  0.29080  0.80670  0.48450  1.0000 -0.6074414233
O   O7        1.0  0.71090  0.04630  0.57050  1.0000 -0.6470535974
O   O8        1.0  0.28910  0.95370  0.42950  1.0000 -0.6470535974
O   O9        1.0  0.26120  0.94480  0.70880  1.0000 -0.5896576921
O   O10       1.0  0.73880  0.05520  0.29120  1.0000 -0.5896576921
O   O11       1.0  0.07980  0.87010  0.69190  1.0000 -0.4288366194
O   O12       1.0  0.92020  0.12990  0.30810  1.0000 -0.4288366194
O   O13       1.0  0.26690  0.67800  0.60350  1.0000 -0.6074414233
O   O14       1.0  0.73310  0.32200  0.39650  1.0000 -0.6074414233
O   O15       1.0  0.43630  0.15470  0.44410  1.0000 -0.7445799092
O   O16       1.0  0.56370  0.84530  0.55590  1.0000 -0.7445799092
O   O17       1.0  0.53190  0.97030  0.31290  1.0000 -0.6857622246
O   O18       1.0  0.46810  0.02970  0.68710  1.0000 -0.6857622246
O   O19       1.0  0.47870  0.32850  0.44520  1.0000 -0.5516720693
O   O20       1.0  0.52130  0.67150  0.55480  1.0000 -0.5516720693
O   O21       1.0  0.46610  0.81440  0.32330  1.0000 -0.5738700012
O   O22       1.0  0.53390  0.18560  0.67670  1.0000 -0.5738700012
O   O23       1.0  0.14050  0.67170  0.69100  1.0000 -0.4288366194
O   O24       1.0  0.85950  0.32830  0.30900  1.0000 -0.4288366194
