# DDEC6 charges by PACMAN v1.1 (https://github.com/mtap-research/PACMAN-charge/)
data_2014[Mn][nan]3[ASR]3
_chemical_formula_sum              "Mn6 H6 C24 O18"
_cell_length_a       15.3797
_cell_length_b       15.3797
_cell_length_c       15.3797
_cell_angle_alpha    117.713
_cell_angle_beta     117.713
_cell_angle_gamma    117.713

_symmetry_space_group_name_H-M    "P 1"
_symmetry_Int_Tables_number       1

loop_
  _symmetry_equiv_pos_as_xyz
  'x, y, z'

loop_
  _atom_site_type_symbol
  _atom_site_label
  _atom_site_symmetry_multiplicity
  _atom_site_fract_x
  _atom_site_fract_y
  _atom_site_fract_z
  _atom_site_occupancy
  _atom_site_charge
Mn  Mn1       1.0  0.11730  0.52760  0.78110  1.0000 1.0271058618
Mn  Mn2       1.0  0.52760  0.78110  0.11730  1.0000 1.0271058618
Mn  Mn3       1.0  0.78110  0.11730  0.52760  1.0000 1.0271058618
Mn  Mn4       1.0  0.88270  0.47240  0.21890  1.0000 1.0271058618
Mn  Mn5       1.0  0.47240  0.21890  0.88270  1.0000 1.0271058618
Mn  Mn6       1.0  0.21890  0.88270  0.47240  1.0000 1.0271058618
H   H1        1.0  0.66980  0.19970  0.64690  1.0000 0.1496616988
H   H2        1.0  0.19970  0.64690  0.66980  1.0000 0.1496616988
H   H3        1.0  0.64690  0.66980  0.19970  1.0000 0.1496616988
H   H4        1.0  0.33020  0.80030  0.35310  1.0000 0.1496616988
H   H5        1.0  0.80030  0.35310  0.33020  1.0000 0.1496616988
H   H6        1.0  0.35310  0.33020  0.80030  1.0000 0.1496616988
C   C1        1.0  0.34480  0.73950  0.17360  1.0000 0.6265323697
C   C2        1.0  0.73950  0.17360  0.34480  1.0000 0.6265323697
C   C3        1.0  0.17360  0.34480  0.73950  1.0000 0.6265323697
C   C4        1.0  0.65520  0.26050  0.82640  1.0000 0.6265323697
C   C5        1.0  0.26050  0.82640  0.65520  1.0000 0.6265323697
C   C6        1.0  0.82640  0.65520  0.26050  1.0000 0.6265323697
C   C7        1.0  0.16410  0.61640  0.08230  1.0000 -0.0946761505
C   C8        1.0  0.61640  0.08230  0.16410  1.0000 -0.0946761505
C   C9        1.0  0.08230  0.16410  0.61640  1.0000 -0.0946761505
C   C10       1.0  0.83590  0.38360  0.91770  1.0000 -0.0946761505
C   C11       1.0  0.38360  0.91770  0.83590  1.0000 -0.0952820466
C   C12       1.0  0.91770  0.83590  0.38360  1.0000 -0.0946761505
C   C13       1.0  0.96800  0.43510  0.86630  1.0000 0.2928141891
C   C14       1.0  0.43510  0.86630  0.96800  1.0000 0.2928141891
C   C15       1.0  0.86630  0.96800  0.43510  1.0000 0.2928141891
C   C16       1.0  0.03200  0.56490  0.13370  1.0000 0.2928141891
C   C17       1.0  0.56490  0.13370  0.03200  1.0000 0.2928141891
C   C18       1.0  0.13370  0.03200  0.56490  1.0000 0.2928141891
C   C19       1.0  0.80980  0.33140  0.79580  1.0000 -0.231714821
C   C20       1.0  0.33140  0.79580  0.80980  1.0000 -0.231714821
C   C21       1.0  0.79580  0.80980  0.33140  1.0000 -0.231714821
C   C22       1.0  0.19020  0.66860  0.20420  1.0000 -0.231714821
C   C23       1.0  0.66860  0.20420  0.19020  1.0000 -0.231714821
C   C24       1.0  0.20420  0.19020  0.66860  1.0000 -0.231714821
O   O1        1.0  0.32680  0.69070  0.06700  1.0000 -0.5693408013
O   O2        1.0  0.69070  0.06700  0.32680  1.0000 -0.5693408013
O   O3        1.0  0.06700  0.32680  0.69070  1.0000 -0.5693408013
O   O4        1.0  0.67320  0.30930  0.93300  1.0000 -0.5693408013
O   O5        1.0  0.30930  0.93300  0.67320  1.0000 -0.5693408013
O   O6        1.0  0.93300  0.67320  0.30930  1.0000 -0.5693408013
O   O7        1.0  0.51600  0.88960  0.36110  1.0000 -0.5693408013
O   O8        1.0  0.88960  0.36110  0.51600  1.0000 -0.5693408013
O   O9        1.0  0.36110  0.51600  0.88960  1.0000 -0.5693408013
O   O10       1.0  0.48400  0.11040  0.63890  1.0000 -0.5693408013
O   O11       1.0  0.11040  0.63890  0.48400  1.0000 -0.5693408013
O   O12       1.0  0.63890  0.48400  0.11040  1.0000 -0.5693408013
O   O13       1.0  0.93030  0.36790  0.73390  1.0000 -0.6309405626
O   O14       1.0  0.36790  0.73390  0.93030  1.0000 -0.6309405626
O   O15       1.0  0.73390  0.93030  0.36790  1.0000 -0.6309405626
O   O16       1.0  0.06970  0.63210  0.26610  1.0000 -0.6309405626
O   O17       1.0  0.63210  0.26610  0.06970  1.0000 -0.6309405626
O   O18       1.0  0.26610  0.06970  0.63210  1.0000 -0.6309405626
