# DDEC6 charges by PACMAN v1.1 (https://github.com/mtap-research/PACMAN-charge/)
data_2014[Er][dmc]3[ASR]1
_chemical_formula_sum              "Er4 H20 C36 N4 O24"
_cell_length_a       6.6158
_cell_length_b       13.419
_cell_length_c       15.8585
_cell_angle_alpha    90
_cell_angle_beta     97.925
_cell_angle_gamma    90

_symmetry_space_group_name_H-M    "P 1"
_symmetry_Int_Tables_number       1

loop_
  _symmetry_equiv_pos_as_xyz
  'x, y, z'

loop_
  _atom_site_type_symbol
  _atom_site_label
  _atom_site_symmetry_multiplicity
  _atom_site_fract_x
  _atom_site_fract_y
  _atom_site_fract_z
  _atom_site_occupancy
  _atom_site_charge
Er  Er1       1.0  0.96400  0.43901  0.75118  1.0000 2.002802439
Er  Er2       1.0  0.53600  0.93901  0.24882  1.0000 2.002802439
Er  Er3       1.0  0.03600  0.56099  0.24882  1.0000 2.002802439
Er  Er4       1.0  0.46400  0.06099  0.75118  1.0000 2.002802439
H   H1        1.0  0.01810  0.80100  0.81670  1.0000 0.1097875982
H   H2        1.0  0.48190  0.30100  0.18330  1.0000 0.1097875982
H   H3        1.0  0.98190  0.19900  0.18330  1.0000 0.1097875982
H   H4        1.0  0.51810  0.69900  0.81670  1.0000 0.1097875982
H   H5        1.0  0.14610  0.93200  0.03600  1.0000 0.1097875982
H   H6        1.0  0.35390  0.43200  0.96400  1.0000 0.1097875982
H   H7        1.0  0.85390  0.06800  0.96400  1.0000 0.1097875982
H   H8        1.0  0.64610  0.56800  0.03600  1.0000 0.1097875982
H   H9        1.0  0.09860  0.63450  0.02690  1.0000 0.1274649228
H   H10       1.0  0.40140  0.13450  0.97310  1.0000 0.1274649228
H   H11       1.0  0.90140  0.36550  0.97310  1.0000 0.1274649228
H   H12       1.0  0.59860  0.86550  0.02690  1.0000 0.1274649228
H   H13       1.0  0.54430  0.40140  0.48220  1.0000 0.1274649228
H   H14       1.0  0.95570  0.90140  0.51780  1.0000 0.1274649228
H   H15       1.0  0.45570  0.59860  0.51780  1.0000 0.1274649228
H   H16       1.0  0.04430  0.09860  0.48220  1.0000 0.1274649228
H   H17       1.0  0.37790  0.43370  0.53790  1.0000 0.1274649228
H   H18       1.0  0.12210  0.93370  0.46210  1.0000 0.1274649228
H   H19       1.0  0.62210  0.56630  0.46210  1.0000 0.1274649228
H   H20       1.0  0.87790  0.06630  0.53790  1.0000 0.1274649228
C   C1        1.0  0.01670  0.61150  0.85710  1.0000 0.5480636433
C   C2        1.0  0.48330  0.11150  0.14290  1.0000 0.5480636433
C   C3        1.0  0.98330  0.38850  0.14290  1.0000 0.5480636433
C   C4        1.0  0.51670  0.88850  0.85710  1.0000 0.5480636433
C   C5        1.0  0.05390  0.70320  0.91320  1.0000 -0.0729107633
C   C6        1.0  0.44610  0.20320  0.08680  1.0000 -0.0729107633
C   C7        1.0  0.94610  0.29680  0.08680  1.0000 -0.0729107633
C   C8        1.0  0.55390  0.79680  0.91320  1.0000 -0.0729107633
C   C9        1.0  0.04790  0.79680  0.87560  1.0000 0.042831108
C   C10       1.0  0.45210  0.29680  0.12440  1.0000 0.042831108
C   C11       1.0  0.95210  0.20320  0.12440  1.0000 0.042831108
C   C12       1.0  0.54790  0.70320  0.87560  1.0000 0.042831108
C   C13       1.0  0.12030  0.87370  0.00450  1.0000 0.0535845459
C   C14       1.0  0.37970  0.37370  0.99550  1.0000 0.0535845459
C   C15       1.0  0.87970  0.12630  0.99550  1.0000 0.0535845459
C   C16       1.0  0.62030  0.62630  0.00450  1.0000 0.0535845459
C   C17       1.0  0.12300  0.78390  0.04850  1.0000 -0.0864972696
C   C18       1.0  0.37700  0.28390  0.95150  1.0000 -0.0864972696
C   C19       1.0  0.87700  0.21610  0.95150  1.0000 -0.0864972696
C   C20       1.0  0.62300  0.71610  0.04850  1.0000 -0.0864972696
C   C21       1.0  0.09260  0.69630  0.00030  1.0000 -0.0864972696
C   C22       1.0  0.40740  0.19630  0.99970  1.0000 -0.0864972696
C   C23       1.0  0.90740  0.30370  0.99970  1.0000 -0.0864972696
C   C24       1.0  0.59260  0.80370  0.00030  1.0000 -0.0864972696
C   C25       1.0  0.16330  0.78310  0.14350  1.0000 0.630579181
C   C26       1.0  0.33670  0.28310  0.85650  1.0000 0.630579181
C   C27       1.0  0.83670  0.21690  0.85650  1.0000 0.630579181
C   C28       1.0  0.66330  0.71690  0.14350  1.0000 0.630579181
C   C29       1.0  0.66667  0.44810  0.60050  1.0000 0.6114499047
C   C30       1.0  0.83333  0.94810  0.39950  1.0000 0.6114499047
C   C31       1.0  0.33333  0.55190  0.39950  1.0000 0.6114499047
C   C32       1.0  0.16667  0.05190  0.60050  1.0000 0.6114499047
C   C33       1.0  0.50960  0.45140  0.52190  1.0000 -0.2890755013
C   C34       1.0  0.99040  0.95140  0.47810  1.0000 -0.2890755013
C   C35       1.0  0.49040  0.54860  0.47810  1.0000 -0.2890755013
C   C36       1.0  0.00960  0.04860  0.52190  1.0000 -0.2890755013
N   N1        1.0  0.08300  0.88124  0.92012  1.0000 -0.2287815735
N   N2        1.0  0.41700  0.38124  0.07988  1.0000 -0.2287815735
N   N3        1.0  0.91700  0.11876  0.07988  1.0000 -0.2287815735
N   N4        1.0  0.58300  0.61876  0.92012  1.0000 -0.2287815735
O   O1        1.0  0.05720  0.52681  0.88913  1.0000 -0.6196094677
O   O2        1.0  0.44280  0.02681  0.11087  1.0000 -0.6196094677
O   O3        1.0  0.94280  0.47319  0.11087  1.0000 -0.6196094677
O   O4        1.0  0.55720  0.97319  0.88913  1.0000 -0.6196094677
O   O5        1.0  0.94390  0.62244  0.78050  1.0000 -0.6196094677
O   O6        1.0  0.55610  0.12244  0.21950  1.0000 -0.6196094677
O   O7        1.0  0.05610  0.37756  0.21950  1.0000 -0.6196094677
O   O8        1.0  0.44390  0.87756  0.78050  1.0000 -0.6196094677
O   O9        1.0  0.21720  0.86310  0.18108  1.0000 -0.634422116
O   O10       1.0  0.28280  0.36310  0.81892  1.0000 -0.634422116
O   O11       1.0  0.78280  0.13690  0.81892  1.0000 -0.634422116
O   O12       1.0  0.71720  0.63690  0.18108  1.0000 -0.634422116
O   O13       1.0  0.13450  0.70330  0.18102  1.0000 -0.6515967771
O   O14       1.0  0.36550  0.20330  0.81898  1.0000 -0.6515967771
O   O15       1.0  0.86550  0.29670  0.81898  1.0000 -0.6515967771
O   O16       1.0  0.63450  0.79670  0.18102  1.0000 -0.6515967771
O   O17       1.0  0.80720  0.51210  0.61518  1.0000 -0.6056709811
O   O18       1.0  0.69280  0.01210  0.38482  1.0000 -0.5984218761
O   O19       1.0  0.19280  0.48790  0.38482  1.0000 -0.6056709811
O   O20       1.0  0.30720  0.98790  0.61518  1.0000 -0.6056709811
O   O21       1.0  0.65400  0.37890  0.65320  1.0000 -0.5984218761
O   O22       1.0  0.84600  0.87890  0.34680  1.0000 -0.5984218761
O   O23       1.0  0.34600  0.62110  0.34680  1.0000 -0.5984218761
O   O24       1.0  0.15400  0.12110  0.65320  1.0000 -0.5984218761
