# DDEC6 charges by PACMAN v1.1 (https://github.com/mtap-research/PACMAN-charge/)
data_2014[Eu][nan]3[ASR]3
_chemical_formula_sum              "Eu8 H56 C120 O48"
_cell_length_a       12.949
_cell_length_b       13.869
_cell_length_c       27.9811
_cell_angle_alpha    75.6122
_cell_angle_beta     79.5188
_cell_angle_gamma    85.651

_symmetry_space_group_name_H-M    "P 1"
_symmetry_Int_Tables_number       1

loop_
  _symmetry_equiv_pos_as_xyz
  'x, y, z'

loop_
  _atom_site_type_symbol
  _atom_site_label
  _atom_site_symmetry_multiplicity
  _atom_site_fract_x
  _atom_site_fract_y
  _atom_site_fract_z
  _atom_site_occupancy
  _atom_site_charge
Eu  Eu1       1.0  0.61955  0.47925  0.44605  1.0000 2.0703533492
Eu  Eu2       1.0  0.38045  0.52075  0.55395  1.0000 2.0703533492
Eu  Eu3       1.0  0.01589  0.98155  0.91363  1.0000 2.0915653906
Eu  Eu4       1.0  0.98411  0.01845  0.08637  1.0000 2.0915653906
Eu  Eu5       1.0  0.53138  0.37507  0.06079  1.0000 2.0915653906
Eu  Eu6       1.0  0.46862  0.62493  0.93921  1.0000 2.0915653906
Eu  Eu7       1.0  0.02882  0.96092  0.58474  1.0000 2.0703533492
Eu  Eu8       1.0  0.97118  0.03908  0.41526  1.0000 2.0703533492
H   H1        1.0  0.46330  0.45900  0.72460  1.0000 0.1114832763
H   H2        1.0  0.53670  0.54100  0.27540  1.0000 0.1114832763
H   H3        1.0  0.87680  0.62660  0.79850  1.0000 0.1114832763
H   H4        1.0  0.12320  0.37340  0.20150  1.0000 0.1114832763
H   H5        1.0  0.95500  0.31790  0.81050  1.0000 0.1114832763
H   H6        1.0  0.04500  0.68210  0.18950  1.0000 0.1114832763
H   H7        1.0  0.47350  0.23830  0.65290  1.0000 0.1189595493
H   H8        1.0  0.52650  0.76170  0.34710  1.0000 0.1189595493
H   H9        1.0  0.44100  0.62310  0.76460  1.0000 0.1189595493
H   H10       1.0  0.55900  0.37690  0.23540  1.0000 0.1189595493
H   H11       1.0  0.68500  0.01760  0.68990  1.0000 0.1114832763
H   H12       1.0  0.31500  0.98240  0.31010  1.0000 0.1114832763
H   H13       1.0  0.93460  0.40600  0.72870  1.0000 0.1114832763
H   H14       1.0  0.06540  0.59400  0.27130  1.0000 0.1114832763
H   H15       1.0  0.42140  0.19910  0.74120  1.0000 0.1114832763
H   H16       1.0  0.57860  0.80090  0.25880  1.0000 0.1114832763
H   H17       1.0  0.94260  0.73880  0.72600  1.0000 0.1189595493
H   H18       1.0  0.05740  0.26120  0.27400  1.0000 0.1189595493
H   H19       1.0  0.49610  0.64510  0.67940  1.0000 0.1114832763
H   H20       1.0  0.50390  0.35490  0.32060  1.0000 0.1114832763
H   H21       1.0  0.18060  0.20990  0.88190  1.0000 0.1189595493
H   H22       1.0  0.81940  0.79010  0.11810  1.0000 0.1189595493
H   H23       1.0  0.40370  0.85660  0.78790  1.0000 0.1114832763
H   H24       1.0  0.59630  0.14340  0.21210  1.0000 0.1114832763
H   H25       1.0  0.53040  0.93080  0.72290  1.0000 0.1037255502
H   H26       1.0  0.46960  0.06920  0.27710  1.0000 0.1037255502
H   H27       1.0  0.29440  0.12420  0.80580  1.0000 0.1114832763
H   H28       1.0  0.70560  0.87580  0.19420  1.0000 0.1114832763
H   H29       1.0  0.58410  0.61970  0.60890  1.0000 0.1189595493
H   H30       1.0  0.41590  0.38030  0.39110  1.0000 0.1189595493
H   H31       1.0  0.36100  0.42800  0.88770  1.0000 0.1189595493
H   H32       1.0  0.63900  0.57200  0.11230  1.0000 0.1189595493
H   H33       1.0  0.43800  0.40450  0.81000  1.0000 0.1189595493
H   H34       1.0  0.56200  0.59550  0.19000  1.0000 0.1189595493
H   H35       1.0  0.00400  0.51680  0.65620  1.0000 0.1189595493
H   H36       1.0  0.99600  0.48320  0.34380  1.0000 0.1189595493
H   H37       1.0  0.74930  0.22720  0.56240  1.0000 0.1359561336
H   H38       1.0  0.25070  0.77280  0.43760  1.0000 0.1359561336
H   H39       1.0  0.76390  0.26110  0.94340  1.0000 0.1320539019
H   H40       1.0  0.23610  0.73890  0.05660  1.0000 0.1359561336
H   H41       1.0  0.77730  0.75270  0.48480  1.0000 0.1320539019
H   H42       1.0  0.22270  0.24730  0.51520  1.0000 0.1320539019
H   H43       1.0  0.24550  0.22840  0.01360  1.0000 0.1320539019
H   H44       1.0  0.75450  0.77160  0.98640  1.0000 0.1320539019
H   H45       1.0  0.68880  0.76330  0.77410  1.0000 0.1189595493
H   H46       1.0  0.31120  0.23670  0.22590  1.0000 0.1189595493
H   H47       1.0  0.73970  0.52390  0.84530  1.0000 0.1189595493
H   H48       1.0  0.26030  0.47610  0.15470  1.0000 0.1189595493
H   H49       1.0  0.74820  0.78200  0.68950  1.0000 0.1189595493
H   H50       1.0  0.25180  0.21800  0.31050  1.0000 0.1189595493
H   H51       1.0  0.14770  0.32500  0.81020  1.0000 0.1114832763
H   H52       1.0  0.85230  0.67500  0.18980  1.0000 0.1114832763
H   H53       1.0  0.77070  0.83400  0.61290  1.0000 0.1114832763
H   H54       1.0  0.22930  0.16600  0.38710  1.0000 0.1114832763
H   H55       1.0  0.17480  0.37680  0.72410  1.0000 0.1189595493
H   H56       1.0  0.82520  0.62320  0.27590  1.0000 0.1189595493
C   C1        1.0  0.57100  0.33459  0.56471  1.0000 0.6501667402
C   C2        1.0  0.42900  0.66541  0.43529  1.0000 0.6501667402
C   C3        1.0  0.65070  0.43103  0.93637  1.0000 0.6501667402
C   C4        1.0  0.34930  0.56897  0.06363  1.0000 0.6501667402
C   C5        1.0  0.13190  0.12188  0.97892  1.0000 0.6685757092
C   C6        1.0  0.86810  0.87812  0.02108  1.0000 0.6685757092
C   C7        1.0  0.20000  0.20789  0.95181  1.0000 -0.030114928
C   C8        1.0  0.80000  0.79211  0.04819  1.0000 -0.030114928
C   C9        1.0  0.39970  0.43172  0.74178  1.0000 -0.0981197641
C   C10       1.0  0.60030  0.56828  0.25822  1.0000 -0.0981197641
C   C11       1.0  0.73410  0.11675  0.62535  1.0000 -0.0137863723
C   C12       1.0  0.26590  0.88325  0.37465  1.0000 -0.0137863723
C   C13       1.0  0.56620  0.12001  0.68019  1.0000 0.0528452746
C   C14       1.0  0.43380  0.87999  0.31981  1.0000 0.0528452746
C   C15       1.0  0.48970  0.07437  0.72473  1.0000 0.0697395014
C   C16       1.0  0.51030  0.92563  0.27527  1.0000 0.0697395014
C   C17       1.0  0.90150  0.60417  0.76973  1.0000 -0.1495278883
C   C18       1.0  0.09850  0.39583  0.23027  1.0000 -0.1495278883
C   C19       1.0  0.90080  0.33865  0.83285  1.0000 -0.1423886479
C   C20       1.0  0.09920  0.66135  0.16715  1.0000 -0.1423886479
C   C21       1.0  0.85560  0.43378  0.81952  1.0000 0.0528452746
C   C22       1.0  0.14440  0.56622  0.18048  1.0000 0.0528452746
C   C23       1.0  0.64300  0.61044  0.51296  1.0000 0.6299151978
C   C24       1.0  0.35700  0.38956  0.48704  1.0000 0.6299151978
C   C25       1.0  0.53850  0.20668  0.64602  1.0000 -0.1423886479
C   C26       1.0  0.46150  0.79332  0.35398  1.0000 -0.1423886479
C   C27       1.0  0.67590  0.67544  0.54276  1.0000 -0.0193021155
C   C28       1.0  0.32410  0.32456  0.45724  1.0000 -0.0193021155
C   C29       1.0  0.50410  0.65394  0.74966  1.0000 -0.0981197641
C   C30       1.0  0.49590  0.34606  0.25034  1.0000 -0.0981197641
C   C31       1.0  0.33260  0.98261  0.80269  1.0000 -0.0193021155
C   C32       1.0  0.66740  0.01739  0.19731  1.0000 -0.0193021155
C   C33       1.0  0.66510  0.07587  0.66833  1.0000 -0.1423886479
C   C34       1.0  0.33490  0.92413  0.33167  1.0000 -0.1423886479
C   C35       1.0  0.31390  0.33394  0.95526  1.0000 -0.0193021155
C   C36       1.0  0.68610  0.66606  0.04474  1.0000 -0.0193021155
C   C37       1.0  0.93630  0.47309  0.72841  1.0000 -0.1562580602
C   C38       1.0  0.06370  0.52691  0.27159  1.0000 -0.1562580602
C   C39       1.0  0.78410  0.80806  0.54414  1.0000 -0.0417327355
C   C40       1.0  0.21590  0.19194  0.45586  1.0000 -0.0417327355
C   C41       1.0  0.41820  0.13009  0.75011  1.0000 -0.1562580602
C   C42       1.0  0.58180  0.86991  0.24989  1.0000 -0.1562580602
C   C43       1.0  0.24380  0.93395  0.84055  1.0000 0.6015830538
C   C44       1.0  0.75620  0.06605  0.15945  1.0000 0.6015830538
C   C45       1.0  0.01740  0.71416  0.63524  1.0000 0.6015830538
C   C46       1.0  0.98260  0.28584  0.36476  1.0000 0.6015830538
C   C47       1.0  0.85740  0.88835  0.51765  1.0000 0.6685757092
C   C48       1.0  0.14260  0.11165  0.48235  1.0000 0.6685757092
C   C49       1.0  0.94090  0.67169  0.72631  1.0000 -0.0981197641
C   C50       1.0  0.05910  0.32831  0.27369  1.0000 -0.0981197641
C   C51       1.0  0.60650  0.24591  0.60219  1.0000 -0.030114928
C   C52       1.0  0.39350  0.75409  0.39781  1.0000 -0.030114928
C   C53       1.0  0.53750  0.66694  0.69826  1.0000 -0.1495278883
C   C54       1.0  0.46250  0.33306  0.30174  1.0000 -0.1495278883
C   C55       1.0  0.28950  0.35949  0.81971  1.0000 0.0697395014
C   C56       1.0  0.71050  0.64051  0.18029  1.0000 0.0697395014
C   C57       1.0  0.21340  0.24199  0.90031  1.0000 -0.1307461956
C   C58       1.0  0.78660  0.75801  0.09969  1.0000 -0.1307461956
C   C59       1.0  0.86670  0.27458  0.87862  1.0000 -0.0193021155
C   C60       1.0  0.13330  0.72542  0.12138  1.0000 -0.0193021155
C   C61       1.0  0.67070  0.72460  0.62030  1.0000 0.0697395014
C   C62       1.0  0.32930  0.27540  0.37970  1.0000 0.0697395014
C   C63       1.0  0.37260  0.38087  0.98493  1.0000 0.6501667402
C   C64       1.0  0.62740  0.61913  0.01507  1.0000 0.6501667402
C   C65       1.0  0.40600  0.92571  0.77819  1.0000 -0.0981197641
C   C66       1.0  0.59400  0.07429  0.22181  1.0000 -0.0981197641
C   C67       1.0  0.32120  0.42373  0.71577  1.0000 -0.0193021155
C   C68       1.0  0.67880  0.57627  0.28423  1.0000 -0.0193021155
C   C69       1.0  0.89780  0.50408  0.77172  1.0000 0.0577080785
C   C70       1.0  0.10220  0.49592  0.22828  1.0000 0.0577080785
C   C71       1.0  0.48270  0.97036  0.73944  1.0000 -0.1495278883
C   C72       1.0  0.51730  0.02964  0.26056  1.0000 -0.1495278883
C   C73       1.0  0.56210  0.68562  0.77838  1.0000 -0.0193021155
C   C74       1.0  0.43790  0.31438  0.22162  1.0000 -0.0193021155
C   C75       1.0  0.34120  0.08491  0.78879  1.0000 -0.0981197641
C   C76       1.0  0.65880  0.91509  0.21121  1.0000 -0.0981197641
C   C77       1.0  0.27440  0.32303  0.87557  1.0000 0.0577080785
C   C78       1.0  0.72560  0.67697  0.12443  1.0000 0.0577080785
C   C79       1.0  0.63540  0.66587  0.59313  1.0000 -0.1495278883
C   C80       1.0  0.36460  0.33413  0.40687  1.0000 -0.1495278883
C   C81       1.0  0.32290  0.37116  0.90354  1.0000 -0.1495278883
C   C82       1.0  0.67710  0.62884  0.09646  1.0000 -0.1495278883
C   C83       1.0  0.38420  0.39955  0.79285  1.0000 -0.1495278883
C   C84       1.0  0.61580  0.60045  0.20715  1.0000 -0.1495278883
C   C85       1.0  0.97710  0.53985  0.68465  1.0000 -0.0981197641
C   C86       1.0  0.02290  0.46015  0.31535  1.0000 -0.0981197641
C   C87       1.0  0.70390  0.20094  0.59186  1.0000 -0.0925939256
C   C88       1.0  0.29610  0.79906  0.40814  1.0000 -0.0925939256
C   C89       1.0  0.78580  0.30395  0.91245  1.0000 -0.0981197641
C   C90       1.0  0.21420  0.69605  0.08755  1.0000 -0.0981197641
C   C91       1.0  0.75020  0.74654  0.51856  1.0000 -0.0925939256
C   C92       1.0  0.24980  0.25346  0.48144  1.0000 -0.0925939256
C   C93       1.0  0.73760  0.39795  0.89975  1.0000 -0.030114928
C   C94       1.0  0.26240  0.60205  0.10025  1.0000 -0.030114928
C   C95       1.0  0.83940  0.06609  0.61411  1.0000 0.5750555596
C   C96       1.0  0.16060  0.93391  0.38589  1.0000 0.5750555596
C   C97       1.0  0.63150  0.71173  0.67497  1.0000 0.0697395014
C   C98       1.0  0.36850  0.28827  0.32503  1.0000 0.0697395014
C   C99       1.0  0.25200  0.25274  0.97916  1.0000 -0.0981197641
C   C100      1.0  0.74800  0.74726  0.02084  1.0000 -0.0981197641
C   C101      1.0  0.97840  0.63933  0.68267  1.0000 -0.030114928
C   C102      1.0  0.02160  0.36067  0.31733  1.0000 -0.030114928
C   C103      1.0  0.65130  0.73651  0.75539  1.0000 -0.0981197641
C   C104      1.0  0.34870  0.26349  0.24461  1.0000 -0.0981197641
C   C105      1.0  0.77240  0.46134  0.85376  1.0000 -0.1423886479
C   C106      1.0  0.22760  0.53866  0.14624  1.0000 -0.1423886479
C   C107      1.0  0.68650  0.74852  0.70428  1.0000 -0.1495278883
C   C108      1.0  0.31350  0.25148  0.29572  1.0000 -0.1495278883
C   C109      1.0  0.52590  0.66996  0.83374  1.0000 0.5692490688
C   C110      1.0  0.47410  0.33004  0.16626  1.0000 0.5692490688
C   C111      1.0  0.21160  0.35176  0.79314  1.0000 -0.1495278883
C   C112      1.0  0.78840  0.64824  0.20686  1.0000 -0.1495278883
C   C113      1.0  0.74570  0.79490  0.59520  1.0000 -0.1307461956
C   C114      1.0  0.25430  0.20510  0.40480  1.0000 -0.1307461956
C   C115      1.0  0.91950  0.17440  0.89150  1.0000 0.5692490688
C   C116      1.0  0.08050  0.82560  0.10850  1.0000 0.5692490688
C   C117      1.0  0.22770  0.38321  0.74149  1.0000 -0.0925939256
C   C118      1.0  0.77230  0.61679  0.25851  1.0000 -0.0925939256
C   C119      1.0  0.33970  0.46024  0.65966  1.0000 0.564324697
C   C120      1.0  0.66030  0.53976  0.34034  1.0000 0.564324697
O   O1        1.0  0.09820  0.07189  0.95444  1.0000 -0.6861395635
O   O2        1.0  0.90180  0.92811  0.04556  1.0000 -0.6861395635
O   O3        1.0  0.48170  0.37203  0.57727  1.0000 -0.6633193889
O   O4        1.0  0.51830  0.62797  0.42273  1.0000 -0.6633193889
O   O5        1.0  0.88750  0.11483  0.93328  1.0000 -0.6407765149
O   O6        1.0  0.11250  0.88517  0.06672  1.0000 -0.6407765149
O   O7        1.0  0.05390  0.68446  0.59664  1.0000 -0.5471067526
O   O8        1.0  0.94610  0.31554  0.40336  1.0000 -0.5471067526
O   O9        1.0  0.62400  0.37281  0.97838  1.0000 -0.6861395635
O   O10       1.0  0.37600  0.62719  0.02162  1.0000 -0.6861395635
O   O11       1.0  0.63110  0.36432  0.52448  1.0000 -0.6684189636
O   O12       1.0  0.36890  0.63568  0.47552  1.0000 -0.6684189636
O   O13       1.0  0.90507  0.10723  0.57653  1.0000 -0.6295286813
O   O14       1.0  0.09493  0.89277  0.42347  1.0000 -0.6243638196
O   O15       1.0  0.99490  0.15015  0.86085  1.0000 -0.6469341912
O   O16       1.0  0.00510  0.84985  0.13915  1.0000 -0.6469341912
O   O17       1.0  0.89820  0.93357  0.54273  1.0000 -0.7103504935
O   O18       1.0  0.10180  0.06643  0.45727  1.0000 -0.7103504935
O   O19       1.0  0.17420  0.99209  0.85831  1.0000 -0.7307589152
O   O20       1.0  0.82580  0.00791  0.14169  1.0000 -0.7307589152
O   O21       1.0  0.45290  0.61113  0.85487  1.0000 -0.6295286813
O   O22       1.0  0.54710  0.38887  0.14513  1.0000 -0.6295286813
O   O23       1.0  0.70260  0.60059  0.47415  1.0000 -0.5999196568
O   O24       1.0  0.29740  0.39941  0.52585  1.0000 -0.5999196568
O   O25       1.0  0.27870  0.43408  0.63572  1.0000 -0.6110141375
O   O26       1.0  0.72130  0.56592  0.36428  1.0000 -0.6110141375
O   O27       1.0  0.41370  0.51630  0.63870  1.0000 -0.6295286813
O   O28       1.0  0.58630  0.48370  0.36130  1.0000 -0.6295286813
O   O29       1.0  0.39180  0.32711  0.02589  1.0000 -0.6469341912
O   O30       1.0  0.60820  0.67289  0.97411  1.0000 -0.6469341912
O   O31       1.0  0.61040  0.51610  0.92175  1.0000 -0.6684189636
O   O32       1.0  0.38960  0.48390  0.07825  1.0000 -0.6684189636
O   O33       1.0  0.55620  0.56741  0.52767  1.0000 -0.7517646947
O   O34       1.0  0.44380  0.43259  0.47233  1.0000 -0.7517646947
O   O35       1.0  0.87360  0.90953  0.47107  1.0000 -0.6684189636
O   O36       1.0  0.12640  0.09047  0.52893  1.0000 -0.6684189636
O   O37       1.0  0.86030  0.98253  0.64167  1.0000 -0.6469341912
O   O38       1.0  0.13970  0.01747  0.35833  1.0000 -0.6407765149
O   O39       1.0  0.00920  0.80439  0.63641  1.0000 -0.7103504935
O   O40       1.0  0.99080  0.19561  0.36359  1.0000 -0.7103504935
O   O41       1.0  0.56720  0.71488  0.85832  1.0000 -0.6110141375
O   O42       1.0  0.43280  0.28512  0.14168  1.0000 -0.6110141375
O   O43       1.0  0.40020  0.46781  0.96741  1.0000 -0.6998520144
O   O44       1.0  0.59980  0.53219  0.03259  1.0000 -0.6998520144
O   O45       1.0  0.11370  0.10585  0.02565  1.0000 -0.6998520144
O   O46       1.0  0.88630  0.89415  0.97435  1.0000 -0.6998520144
O   O47       1.0  0.23980  0.84155  0.85245  1.0000 -0.5443587103
O   O48       1.0  0.76020  0.15845  0.14755  1.0000 -0.5443587103
