# DDEC6 charges by PACMAN v1.1 (https://github.com/mtap-research/PACMAN-charge/)
data_2014[Cd][tfz]3[ASR]2
_chemical_formula_sum              "Cd6 H80 C132 N4 O24"
_cell_length_a       16.3187
_cell_length_b       17.0365
_cell_length_c       18.9426
_cell_angle_alpha    88.412
_cell_angle_beta     109.319
_cell_angle_gamma    117.408

_symmetry_space_group_name_H-M    "P 1"
_symmetry_Int_Tables_number       1

loop_
  _symmetry_equiv_pos_as_xyz
  'x, y, z'

loop_
  _atom_site_type_symbol
  _atom_site_label
  _atom_site_symmetry_multiplicity
  _atom_site_fract_x
  _atom_site_fract_y
  _atom_site_fract_z
  _atom_site_occupancy
  _atom_site_charge
Cd  Cd1       1.0  0.32754  0.63001  0.44488  1.0000 0.9078367614
Cd  Cd2       1.0  0.23896  0.71682  0.26259  1.0000 1.0476503038
Cd  Cd3       1.0  0.14899  0.80512  0.07699  1.0000 0.9078367614
Cd  Cd4       1.0  0.67246  0.36999  0.55512  1.0000 0.9078367614
Cd  Cd5       1.0  0.76104  0.28318  0.73741  1.0000 1.0476503038
Cd  Cd6       1.0  0.85101  0.19488  0.92301  1.0000 0.9078367614
H   H1        1.0  0.45500  0.54160  0.53620  1.0000 0.1102799328
H   H2        1.0  0.58450  0.56380  0.64640  1.0000 0.1470156425
H   H3        1.0  0.59700  0.79620  0.70380  1.0000 0.1384342276
H   H4        1.0  0.47190  0.76480  0.59110  1.0000 0.1200016836
H   H5        1.0  0.72190  0.76390  0.78710  1.0000 0.1102799328
H   H6        1.0  0.70790  0.60180  0.75660  1.0000 0.1296102964
H   H7        1.0  0.82970  0.57170  0.85800  1.0000 0.1470156425
H   H8        1.0  0.97750  0.62570  0.95990  1.0000 0.1102799328
H   H9        1.0  0.99730  0.86140  0.97630  1.0000 0.1200016836
H   H10       1.0  0.85260  0.81110  0.87150  1.0000 0.1296102964
H   H11       1.0  0.06930  0.70410  0.33410  1.0000 0.1102799328
H   H12       1.0  0.97620  0.77650  0.32790  1.0000 0.1200016836
H   H13       1.0  0.20000  0.96240  0.50390  1.0000 0.1102799328
H   H14       1.0  0.28690  0.88220  0.51760  1.0000 0.1200016836
H   H15       1.0  0.88760  0.81890  0.38480  1.0000 0.1102799328
H   H16       1.0  0.88390  0.05410  0.38930  1.0000 0.1030697622
H   H17       1.0  0.14030  0.05050  0.42070  1.0000 0.1102799328
H   H18       1.0  0.76990  0.78930  0.44350  1.0000 0.1102799328
H   H19       1.0  0.60170  0.71220  0.42690  1.0000 0.1200016836
H   H20       1.0  0.55620  0.88970  0.29490  1.0000 0.1296102964
H   H21       1.0  0.72320  0.96370  0.30900  1.0000 0.1102799328
H   H22       1.0  0.99110  0.19210  0.45770  1.0000 0.1102799328
H   H23       1.0  0.08060  0.34600  0.47620  1.0000 0.1200016836
H   H24       1.0  0.24940  0.32670  0.36940  1.0000 0.1030697622
H   H25       1.0  0.16580  0.17260  0.35990  1.0000 0.1102799328
H   H26       1.0  0.19070  0.55870  0.00100  1.0000 0.1200016836
H   H27       1.0  0.27640  0.47760  0.01100  1.0000 0.1102799328
H   H28       1.0  0.49730  0.65360  0.19160  1.0000 0.1200016836
H   H29       1.0  0.41080  0.72850  0.18510  1.0000 0.1200016836
H   H30       1.0  0.33500  0.38570  0.07920  1.0000 0.1030697622
H   H31       1.0  0.58730  0.38130  0.10970  1.0000 0.1102799328
H   H32       1.0  0.58550  0.61710  0.11990  1.0000 0.1102799328
H   H33       1.0  0.26940  0.24590  0.01360  1.0000 0.1102799328
H   H34       1.0  0.18270  0.09240  0.02070  1.0000 0.1200016836
H   H35       1.0  0.43190  0.10430  0.16300  1.0000 0.1200016836
H   H36       1.0  0.50900  0.25640  0.17250  1.0000 0.1200016836
H   H37       1.0  0.74570  0.45970  0.17550  1.0000 0.1200016836
H   H38       1.0  0.91140  0.53490  0.19750  1.0000 0.1296102964
H   H39       1.0  0.88660  0.74540  0.11140  1.0000 0.1200016836
H   H40       1.0  0.72020  0.67180  0.09210  1.0000 0.1102799328
H   H41       1.0  0.54500  0.45840  0.46380  1.0000 0.1102799328
H   H42       1.0  0.41550  0.43620  0.35360  1.0000 0.1470156425
H   H43       1.0  0.40300  0.20380  0.29620  1.0000 0.1384342276
H   H44       1.0  0.52810  0.23520  0.40890  1.0000 0.1200016836
H   H45       1.0  0.27810  0.23610  0.21290  1.0000 0.1102799328
H   H46       1.0  0.29210  0.39820  0.24340  1.0000 0.1296102964
H   H47       1.0  0.17030  0.42830  0.14200  1.0000 0.1470156425
H   H48       1.0  0.02250  0.37430  0.04010  1.0000 0.1102799328
H   H49       1.0  0.00270  0.13860  0.02370  1.0000 0.1200016836
H   H50       1.0  0.14740  0.18890  0.12850  1.0000 0.1296102964
H   H51       1.0  0.93070  0.29590  0.66590  1.0000 0.1102799328
H   H52       1.0  0.02380  0.22350  0.67210  1.0000 0.1200016836
H   H53       1.0  0.80000  0.03760  0.49610  1.0000 0.1102799328
H   H54       1.0  0.71310  0.11780  0.48240  1.0000 0.1200016836
H   H55       1.0  0.11240  0.18110  0.61520  1.0000 0.1102799328
H   H56       1.0  0.11610  0.94590  0.61070  1.0000 0.1102799328
H   H57       1.0  0.85970  0.94950  0.57930  1.0000 0.1102799328
H   H58       1.0  0.23010  0.21070  0.55650  1.0000 0.1102799328
H   H59       1.0  0.39830  0.28780  0.57310  1.0000 0.1200016836
H   H60       1.0  0.44380  0.11030  0.70510  1.0000 0.1296102964
H   H61       1.0  0.27680  0.03630  0.69100  1.0000 0.1102799328
H   H62       1.0  0.00890  0.80790  0.54230  1.0000 0.1102799328
H   H63       1.0  0.91940  0.65400  0.52380  1.0000 0.1200016836
H   H64       1.0  0.75060  0.67330  0.63060  1.0000 0.1030697622
H   H65       1.0  0.83420  0.82740  0.64010  1.0000 0.1102799328
H   H66       1.0  0.80930  0.44130  0.99900  1.0000 0.1200016836
H   H67       1.0  0.72360  0.52240  0.98900  1.0000 0.1102799328
H   H68       1.0  0.50270  0.34640  0.80840  1.0000 0.1200016836
H   H69       1.0  0.58920  0.27150  0.81490  1.0000 0.1200016836
H   H70       1.0  0.66500  0.61430  0.92080  1.0000 0.1030697622
H   H71       1.0  0.41270  0.61870  0.89030  1.0000 0.1102799328
H   H72       1.0  0.41450  0.38290  0.88010  1.0000 0.1102799328
H   H73       1.0  0.73060  0.75410  0.98640  1.0000 0.1102799328
H   H74       1.0  0.81730  0.90760  0.97930  1.0000 0.1200016836
H   H75       1.0  0.56810  0.89570  0.83700  1.0000 0.1200016836
H   H76       1.0  0.49100  0.74360  0.82750  1.0000 0.1200016836
H   H77       1.0  0.25430  0.54030  0.82450  1.0000 0.1200016836
H   H78       1.0  0.08860  0.46510  0.80250  1.0000 0.1296102964
H   H79       1.0  0.11340  0.25460  0.88860  1.0000 0.1200016836
H   H80       1.0  0.27980  0.32820  0.90790  1.0000 0.1102799328
C   C1        1.0  0.48620  0.59520  0.57060  1.0000 0.0694129021
C   C2        1.0  0.56350  0.60790  0.63610  1.0000 -0.1896889246
C   C3        1.0  0.60940  0.68500  0.68590  1.0000 0.1565813759
C   C4        1.0  0.57150  0.74370  0.66970  1.0000 -0.2102896868
C   C5        1.0  0.49570  0.72280  0.60250  1.0000 0.0901018419
C   C6        1.0  0.69530  0.70770  0.75760  1.0000 -0.1272842622
C   C7        1.0  0.73710  0.65980  0.78380  1.0000 -0.1194189935
C   C8        1.0  0.82640  0.68620  0.85230  1.0000 0.1470156425
C   C9        1.0  0.86330  0.63260  0.88020  1.0000 -0.2102896868
C   C10       1.0  0.95190  0.66550  0.94240  1.0000 0.1102799328
C   C11       1.0  0.96390  0.80150  0.95170  1.0000 0.0641140901
C   C12       1.0  0.87740  0.77080  0.88930  1.0000 -0.2008287326
C   C13       1.0  0.24050  0.73330  0.43480  1.0000 0.5716634654
C   C14       1.0  0.18610  0.78440  0.42950  1.0000 -0.0391454373
C   C15       1.0  0.09440  0.75470  0.37030  1.0000 -0.1081743103
C   C16       1.0  0.04070  0.79980  0.36500  1.0000 -0.1496559478
C   C17       1.0  0.07920  0.87730  0.41250  1.0000 0.0804359409
C   C18       1.0  0.17260  0.90890  0.47040  1.0000 -0.1609868176
C   C19       1.0  0.22440  0.86130  0.47820  1.0000 -0.0883102379
C   C20       1.0  0.02220  0.92650  0.40610  1.0000 0.0804359409
C   C21       1.0  0.92150  0.88230  0.39140  1.0000 -0.2008287326
C   C22       1.0  0.86880  0.92870  0.38590  1.0000 0.0804359409
C   C23       1.0  0.91910  0.02180  0.39220  1.0000 -0.2008287326
C   C24       1.0  0.01980  0.06900  0.40280  1.0000 0.0804359409
C   C25       1.0  0.07130  0.01990  0.41130  1.0000 -0.2008287326
C   C26       1.0  0.76220  0.88180  0.37580  1.0000 0.0804359409
C   C27       1.0  0.72610  0.80880  0.41210  1.0000 -0.1496559478
C   C28       1.0  0.62640  0.76350  0.40320  1.0000 -0.0970128084
C   C29       1.0  0.56290  0.79500  0.35850  1.0000 -0.0391454373
C   C30       1.0  0.59910  0.86840  0.32450  1.0000 -0.0970128084
C   C31       1.0  0.69870  0.91240  0.33290  1.0000 -0.1609868176
C   C32       1.0  0.45480  0.74660  0.34970  1.0000 0.5761992001
C   C33       1.0  0.07200  0.16630  0.40900  1.0000 0.0694129021
C   C34       1.0  0.04580  0.21990  0.44140  1.0000 -0.1609868176
C   C35       1.0  0.09650  0.31120  0.45010  1.0000 -0.0883102379
C   C36       1.0  0.17210  0.35350  0.42060  1.0000 -0.0391454373
C   C37       1.0  0.19690  0.29970  0.38820  1.0000 -0.1081743103
C   C38       1.0  0.14710  0.20760  0.38260  1.0000 -0.1496559478
C   C39       1.0  0.22830  0.45100  0.42990  1.0000 0.5367797875
C   C40       1.0  0.23210  0.69920  0.08990  1.0000 0.5590731167
C   C41       1.0  0.28990  0.64960  0.09490  1.0000 -0.0219559631
C   C42       1.0  0.25220  0.57700  0.04110  1.0000 -0.1081743103
C   C43       1.0  0.30520  0.53030  0.04580  1.0000 -0.1496559478
C   C44       1.0  0.39640  0.55870  0.09900  1.0000 0.0694129021
C   C45       1.0  0.43450  0.63360  0.15260  1.0000 -0.136795435
C   C46       1.0  0.38260  0.67700  0.14900  1.0000 -0.1081743103
C   C47       1.0  0.45210  0.50840  0.10050  1.0000 0.0804359409
C   C48       1.0  0.40430  0.41680  0.09020  1.0000 -0.2008287326
C   C49       1.0  0.45390  0.36790  0.09530  1.0000 0.0804359409
C   C50       1.0  0.55290  0.41420  0.10740  1.0000 -0.2008287326
C   C51       1.0  0.60520  0.50640  0.11620  1.0000 0.0804359409
C   C52       1.0  0.55200  0.55360  0.11310  1.0000 -0.2008287326
C   C53       1.0  0.40110  0.26870  0.09220  1.0000 0.0804359409
C   C54       1.0  0.30270  0.21810  0.04640  1.0000 -0.1720133758
C   C55       1.0  0.25180  0.12540  0.04800  1.0000 -0.1081743103
C   C56       1.0  0.30030  0.08360  0.08800  1.0000 -0.0058916927
C   C57       1.0  0.39720  0.13300  0.13370  1.0000 -0.0970128084
C   C58       1.0  0.44350  0.22310  0.13710  1.0000 -0.1609868176
C   C59       1.0  0.24370  0.98240  0.08260  1.0000 0.5129751229
C   C60       1.0  0.71320  0.55670  0.13150  1.0000 0.0694129021
C   C61       1.0  0.77390  0.51830  0.16290  1.0000 -0.1496559478
C   C62       1.0  0.87190  0.56270  0.17580  1.0000 -0.0970128084
C   C63       1.0  0.91540  0.64810  0.15790  1.0000 -0.0309892426
C   C64       1.0  0.85780  0.68760  0.12540  1.0000 -0.1081743103
C   C65       1.0  0.75900  0.64340  0.11340  1.0000 -0.1609868176
C   C66       1.0  0.02600  0.69710  0.17320  1.0000 0.5716634654
C   C67       1.0  0.51380  0.40480  0.42940  1.0000 0.0694129021
C   C68       1.0  0.43650  0.39210  0.36390  1.0000 -0.1896889246
C   C69       1.0  0.39060  0.31500  0.31410  1.0000 0.1565813759
C   C70       1.0  0.42850  0.25630  0.33030  1.0000 -0.2102896868
C   C71       1.0  0.50430  0.27720  0.39750  1.0000 0.0901018419
C   C72       1.0  0.30470  0.29230  0.24240  1.0000 -0.1272842622
C   C73       1.0  0.26290  0.34020  0.21620  1.0000 -0.1194189935
C   C74       1.0  0.17360  0.31380  0.14770  1.0000 0.1470156425
C   C75       1.0  0.13670  0.36740  0.11980  1.0000 -0.2102896868
C   C76       1.0  0.04810  0.33450  0.05760  1.0000 0.1102799328
C   C77       1.0  0.03610  0.19850  0.04830  1.0000 0.0641140901
C   C78       1.0  0.12260  0.22920  0.11070  1.0000 -0.2008287326
C   C79       1.0  0.75950  0.26670  0.56520  1.0000 0.5716634654
C   C80       1.0  0.81390  0.21560  0.57050  1.0000 -0.0391454373
C   C81       1.0  0.90560  0.24530  0.62970  1.0000 -0.1081743103
C   C82       1.0  0.95930  0.20020  0.63500  1.0000 -0.1496559478
C   C83       1.0  0.92080  0.12270  0.58750  1.0000 0.0804359409
C   C84       1.0  0.82740  0.09110  0.52960  1.0000 -0.1609868176
C   C85       1.0  0.77560  0.13870  0.52180  1.0000 -0.0883102379
C   C86       1.0  0.97780  0.07350  0.59390  1.0000 0.0804359409
C   C87       1.0  0.07850  0.11770  0.60860  1.0000 -0.2008287326
C   C88       1.0  0.13120  0.07130  0.61410  1.0000 0.0804359409
C   C89       1.0  0.08090  0.97820  0.60780  1.0000 -0.2008287326
C   C90       1.0  0.98020  0.93100  0.59720  1.0000 0.0804359409
C   C91       1.0  0.92870  0.98010  0.58870  1.0000 -0.2008287326
C   C92       1.0  0.23780  0.11820  0.62420  1.0000 0.0804359409
C   C93       1.0  0.27390  0.19120  0.58790  1.0000 -0.1496559478
C   C94       1.0  0.37360  0.23650  0.59680  1.0000 -0.0970128084
C   C95       1.0  0.43710  0.20500  0.64150  1.0000 -0.0391454373
C   C96       1.0  0.40090  0.13160  0.67550  1.0000 -0.0970128084
C   C97       1.0  0.30130  0.08760  0.66710  1.0000 -0.1609868176
C   C98       1.0  0.54520  0.25340  0.65030  1.0000 0.5761992001
C   C99       1.0  0.92800  0.83370  0.59100  1.0000 0.0694129021
C   C100      1.0  0.95420  0.78010  0.55860  1.0000 -0.1609868176
C   C101      1.0  0.90350  0.68880  0.54990  1.0000 -0.0883102379
C   C102      1.0  0.82790  0.64650  0.57940  1.0000 -0.0391454373
C   C103      1.0  0.80310  0.70030  0.61180  1.0000 -0.1081743103
C   C104      1.0  0.85290  0.79240  0.61740  1.0000 -0.1496559478
C   C105      1.0  0.77170  0.54900  0.57010  1.0000 0.5367797875
C   C106      1.0  0.76790  0.30080  0.91010  1.0000 0.5590731167
C   C107      1.0  0.71010  0.35040  0.90510  1.0000 -0.0219559631
C   C108      1.0  0.74780  0.42300  0.95890  1.0000 -0.1081743103
C   C109      1.0  0.69480  0.46970  0.95420  1.0000 -0.1496559478
C   C110      1.0  0.60360  0.44130  0.90100  1.0000 0.0694129021
C   C111      1.0  0.56550  0.36640  0.84740  1.0000 -0.136795435
C   C112      1.0  0.61740  0.32300  0.85100  1.0000 -0.1081743103
C   C113      1.0  0.54790  0.49160  0.89950  1.0000 0.0804359409
C   C114      1.0  0.59570  0.58320  0.90980  1.0000 -0.2008287326
C   C115      1.0  0.54610  0.63210  0.90470  1.0000 0.0804359409
C   C116      1.0  0.44710  0.58580  0.89260  1.0000 -0.2008287326
C   C117      1.0  0.39480  0.49360  0.88380  1.0000 0.0804359409
C   C118      1.0  0.44800  0.44640  0.88690  1.0000 -0.2008287326
C   C119      1.0  0.59890  0.73130  0.90780  1.0000 0.0804359409
C   C120      1.0  0.69730  0.78190  0.95360  1.0000 -0.1720133758
C   C121      1.0  0.74820  0.87460  0.95200  1.0000 -0.1081743103
C   C122      1.0  0.69970  0.91640  0.91200  1.0000 -0.0058916927
C   C123      1.0  0.60280  0.86700  0.86630  1.0000 -0.0970128084
C   C124      1.0  0.55650  0.77690  0.86290  1.0000 -0.1609868176
C   C125      1.0  0.75630  0.01760  0.91740  1.0000 0.5129751229
C   C126      1.0  0.28680  0.44330  0.86850  1.0000 0.0694129021
C   C127      1.0  0.22610  0.48170  0.83710  1.0000 -0.1496559478
C   C128      1.0  0.12810  0.43730  0.82420  1.0000 -0.0970128084
C   C129      1.0  0.08460  0.35190  0.84210  1.0000 -0.0309892426
C   C130      1.0  0.14220  0.31240  0.87460  1.0000 -0.1081743103
C   C131      1.0  0.24100  0.35660  0.88660  1.0000 -0.1609868176
C   C132      1.0  0.97400  0.30290  0.82680  1.0000 0.5716634654
N   N1        1.0  0.45320  0.65410  0.55310  1.0000 -0.2333107217
N   N2        1.0  0.00000  0.74450  0.97700  1.0000 -0.2333107217
N   N3        1.0  0.54680  0.34590  0.44690  1.0000 -0.2333107217
N   N4        1.0  0.00000  0.25550  0.02300  1.0000 -0.2333107217
O   O1        1.0  0.22160  0.68220  0.37820  1.0000 -0.5803052521
O   O2        1.0  0.30620  0.74190  0.49940  1.0000 -0.5654853519
O   O3        1.0  0.40360  0.78030  0.31300  1.0000 -0.5512442476
O   O4        1.0  0.42600  0.67780  0.37930  1.0000 -0.5512442476
O   O5        1.0  0.28640  0.48650  0.39200  1.0000 -0.5803052521
O   O6        1.0  0.21440  0.49850  0.46850  1.0000 -0.5276624895
O   O7        1.0  0.25640  0.75120  0.14760  1.0000 -0.5565123296
O   O8        1.0  0.16870  0.69240  0.03090  1.0000 -0.5100646949
O   O9        1.0  0.15500  0.94210  0.04630  1.0000 -0.4988048113
O   O10       1.0  0.28050  0.94250  0.11740  1.0000 -0.4355625845
O   O11       1.0  0.07440  0.65850  0.20550  1.0000 -0.5654853519
O   O12       1.0  0.06280  0.77500  0.15530  1.0000 -0.5654853519
O   O13       1.0  0.77840  0.31780  0.62180  1.0000 -0.5803052521
O   O14       1.0  0.69380  0.25810  0.50060  1.0000 -0.5654853519
O   O15       1.0  0.59640  0.21970  0.68700  1.0000 -0.5512442476
O   O16       1.0  0.57400  0.32220  0.62070  1.0000 -0.5512442476
O   O17       1.0  0.71360  0.51350  0.60800  1.0000 -0.5803052521
O   O18       1.0  0.78560  0.50150  0.53150  1.0000 -0.5276624895
O   O19       1.0  0.74360  0.24880  0.85240  1.0000 -0.5565123296
O   O20       1.0  0.83130  0.30760  0.96910  1.0000 -0.5100646949
O   O21       1.0  0.84500  0.05790  0.95370  1.0000 -0.4988048113
O   O22       1.0  0.71950  0.05750  0.88260  1.0000 -0.4355625845
O   O23       1.0  0.92560  0.34150  0.79450  1.0000 -0.5654853519
O   O24       1.0  0.93720  0.22500  0.84470  1.0000 -0.5654853519
