# DDEC6 charges by PACMAN v1.1 (https://github.com/mtap-research/PACMAN-charge/)
data_2014[Mn][nan]3[ASR]7
_chemical_formula_sum              "Mn6 H6 C18 N18 Cl6"
_cell_length_a       14.7196
_cell_length_b       14.7196
_cell_length_c       14.7196
_cell_angle_alpha    116.281
_cell_angle_beta     116.281
_cell_angle_gamma    116.281

_symmetry_space_group_name_H-M    "P 1"
_symmetry_Int_Tables_number       1

loop_
  _symmetry_equiv_pos_as_xyz
  'x, y, z'

loop_
  _atom_site_type_symbol
  _atom_site_label
  _atom_site_symmetry_multiplicity
  _atom_site_fract_x
  _atom_site_fract_y
  _atom_site_fract_z
  _atom_site_occupancy
  _atom_site_charge
Mn  Mn1       1.0  0.72002  0.27998  0.00000  1.0000 0.6721671555
Mn  Mn2       1.0  0.27998  0.00000  0.72002  1.0000 0.6721671555
Mn  Mn3       1.0  1.00000  0.72002  0.27998  1.0000 0.6721671555
Mn  Mn4       1.0  0.27998  0.72002  0.00000  1.0000 0.6721671555
Mn  Mn5       1.0  0.72002  0.00000  0.27998  1.0000 0.6721671555
Mn  Mn6       1.0  0.00000  0.27998  0.72002  1.0000 0.6721671555
H   H1        1.0  0.79420  0.22270  0.22270  1.0000 0.1558901304
H   H2        1.0  0.22270  0.22270  0.79420  1.0000 0.1558901304
H   H3        1.0  0.22270  0.79420  0.22270  1.0000 0.1558901304
H   H4        1.0  0.20580  0.77730  0.77730  1.0000 0.1558901304
H   H5        1.0  0.77730  0.20580  0.77730  1.0000 0.1558901304
H   H6        1.0  0.77730  0.77730  0.20580  1.0000 0.1558901304
C   C1        1.0  0.94006  0.46560  0.37244  1.0000 0.126617543
C   C2        1.0  0.46560  0.37244  0.94006  1.0000 0.126617543
C   C3        1.0  0.37244  0.94006  0.46560  1.0000 0.126617543
C   C4        1.0  0.05994  0.62756  0.53440  1.0000 0.126617543
C   C5        1.0  0.53440  0.05994  0.62756  1.0000 0.126617543
C   C6        1.0  0.62756  0.53440  0.05994  1.0000 0.126617543
C   C7        1.0  0.05994  0.53440  0.62756  1.0000 0.126617543
C   C8        1.0  0.53440  0.62756  0.05994  1.0000 0.126617543
C   C9        1.0  0.62756  0.05994  0.53440  1.0000 0.126617543
C   C10       1.0  0.94006  0.37244  0.46560  1.0000 0.126617543
C   C11       1.0  0.46560  0.94006  0.37244  1.0000 0.126617543
C   C12       1.0  0.37244  0.46560  0.94006  1.0000 0.126617543
C   C13       1.0  0.87516  0.33162  0.33162  1.0000 -0.2169796071
C   C14       1.0  0.33162  0.33162  0.87516  1.0000 -0.2169796071
C   C15       1.0  0.33162  0.87516  0.33162  1.0000 -0.2169796071
C   C16       1.0  0.12484  0.66838  0.66838  1.0000 -0.2169796071
C   C17       1.0  0.66838  0.12484  0.66838  1.0000 -0.2169796071
C   C18       1.0  0.66838  0.66838  0.12484  1.0000 -0.2169796071
N   N1        1.0  0.90558  0.47206  0.27386  1.0000 -0.2064701459
N   N2        1.0  0.47206  0.27386  0.90558  1.0000 -0.2064701459
N   N3        1.0  0.27386  0.90558  0.47206  1.0000 -0.2064701459
N   N4        1.0  0.09442  0.72614  0.52794  1.0000 -0.2064701459
N   N5        1.0  0.52794  0.09442  0.72614  1.0000 -0.2064701459
N   N6        1.0  0.72614  0.52794  0.09442  1.0000 -0.2064701459
N   N7        1.0  0.09442  0.52794  0.72614  1.0000 -0.2064701459
N   N8        1.0  0.52794  0.72614  0.09442  1.0000 -0.2064701459
N   N9        1.0  0.72614  0.09442  0.52794  1.0000 -0.2064701459
N   N10       1.0  0.90558  0.27386  0.47206  1.0000 -0.2064701459
N   N11       1.0  0.47206  0.90558  0.27386  1.0000 -0.2064701459
N   N12       1.0  0.27386  0.47206  0.90558  1.0000 -0.2064701459
N   N13       1.0  0.00000  0.62904  0.37095  1.0000 0.0005628035
N   N14       1.0  0.62904  0.37095  0.00000  1.0000 0.0005628035
N   N15       1.0  0.37095  0.00000  0.62904  1.0000 -0.0004660424
N   N16       1.0  0.00000  0.37095  0.62904  1.0000 -0.0004660424
N   N17       1.0  0.37095  0.62904  0.00000  1.0000 0.0005628035
N   N18       1.0  0.62904  0.00000  0.37095  1.0000 0.0005628035
Cl  Cl1       1.0  0.92874  0.50000  0.07126  1.0000 -0.4515923278
Cl  Cl2       1.0  0.50000  0.07126  0.92874  1.0000 -0.4515923278
Cl  Cl3       1.0  0.07126  0.92874  0.50000  1.0000 -0.4515923278
Cl  Cl4       1.0  0.07126  0.50000  0.92874  1.0000 -0.4515923278
Cl  Cl5       1.0  0.50000  0.92874  0.07126  1.0000 -0.4515923278
Cl  Cl6       1.0  0.92874  0.07126  0.50000  1.0000 -0.4515923278
