# DDEC6 charges by PACMAN v1.1 (https://github.com/mtap-research/PACMAN-charge/)
data_2014[Eu][esg]3[ASR]2
_chemical_formula_sum              "Eu4 H60 C96 N12 O24"
_cell_length_a       17.3793
_cell_length_b       17.3793
_cell_length_c       19.34
_cell_angle_alpha    82.1836
_cell_angle_beta     97.8164
_cell_angle_gamma    132.525

_symmetry_space_group_name_H-M    "P 1"
_symmetry_Int_Tables_number       1

loop_
  _symmetry_equiv_pos_as_xyz
  'x, y, z'

loop_
  _atom_site_type_symbol
  _atom_site_label
  _atom_site_symmetry_multiplicity
  _atom_site_fract_x
  _atom_site_fract_y
  _atom_site_fract_z
  _atom_site_occupancy
  _atom_site_charge
Eu  Eu1       1.0  0.99808  0.11892  0.50116  1.0000 2.0741557205
Eu  Eu2       1.0  0.11892  0.99808  0.99884  1.0000 2.0741557205
Eu  Eu3       1.0  0.00192  0.88108  0.49884  1.0000 2.0741557205
Eu  Eu4       1.0  0.88108  0.00192  0.00116  1.0000 2.0741557205
H   H1        1.0  0.80000  0.44820  0.27450  1.0000 0.2778348887
H   H2        1.0  0.44820  0.80000  0.22550  1.0000 0.2778348887
H   H3        1.0  0.20000  0.55180  0.72550  1.0000 0.2778348887
H   H4        1.0  0.55180  0.20000  0.77450  1.0000 0.2778348887
H   H5        1.0  0.57330  0.44350  0.28170  1.0000 0.2700240508
H   H6        1.0  0.44350  0.57330  0.21830  1.0000 0.2700240508
H   H7        1.0  0.42670  0.55650  0.71830  1.0000 0.2700240508
H   H8        1.0  0.55650  0.42670  0.78170  1.0000 0.2700240508
H   H9        1.0  0.55580  0.22520  0.38150  1.0000 0.2700240508
H   H10       1.0  0.22520  0.55580  0.11850  1.0000 0.2700240508
H   H11       1.0  0.44420  0.77480  0.61850  1.0000 0.2700240508
H   H12       1.0  0.77480  0.44420  0.88150  1.0000 0.2778348887
H   H13       1.0  0.94750  0.33710  0.35250  1.0000 0.1315082633
H   H14       1.0  0.33710  0.94750  0.14750  1.0000 0.1214036806
H   H15       1.0  0.05250  0.66290  0.64750  1.0000 0.1315082633
H   H16       1.0  0.66290  0.05250  0.85250  1.0000 0.1214036806
H   H17       1.0  0.86740  0.40320  0.30720  1.0000 0.1108032023
H   H18       1.0  0.40320  0.86740  0.19280  1.0000 0.1108032023
H   H19       1.0  0.13260  0.59680  0.69280  1.0000 0.1108032023
H   H20       1.0  0.59680  0.13260  0.80720  1.0000 0.1108032023
H   H21       1.0  0.61630  0.16950  0.41470  1.0000 0.1108032023
H   H22       1.0  0.16950  0.61630  0.08530  1.0000 0.1108032023
H   H23       1.0  0.38370  0.83050  0.58530  1.0000 0.1108032023
H   H24       1.0  0.83050  0.38370  0.91470  1.0000 0.1108032023
H   H25       1.0  0.68670  0.09050  0.45200  1.0000 0.1214036806
H   H26       1.0  0.09050  0.68670  0.04800  1.0000 0.1214036806
H   H27       1.0  0.31330  0.90950  0.54800  1.0000 0.1214036806
H   H28       1.0  0.90950  0.31330  0.95200  1.0000 0.1214036806
H   H29       1.0  0.87330  0.57290  0.20890  1.0000 0.1108032023
H   H30       1.0  0.57290  0.87330  0.29110  1.0000 0.1108032023
H   H31       1.0  0.12670  0.42710  0.79110  1.0000 0.1108032023
H   H32       1.0  0.42710  0.12670  0.70890  1.0000 0.1108032023
H   H33       1.0  0.95790  0.72530  0.13550  1.0000 0.1315082633
H   H34       1.0  0.72530  0.95790  0.36450  1.0000 0.1315082633
H   H35       1.0  0.04210  0.27470  0.86450  1.0000 0.1315082633
H   H36       1.0  0.27470  0.04210  0.63550  1.0000 0.1315082633
H   H37       1.0  0.74160  0.73760  0.16600  1.0000 0.1214036806
H   H38       1.0  0.73760  0.74160  0.33400  1.0000 0.1214036806
H   H39       1.0  0.25840  0.26240  0.83400  1.0000 0.1214036806
H   H40       1.0  0.26240  0.25840  0.66600  1.0000 0.1214036806
H   H41       1.0  0.64460  0.57540  0.22930  1.0000 0.0928985016
H   H42       1.0  0.57540  0.64460  0.27070  1.0000 0.0928985016
H   H43       1.0  0.35540  0.42460  0.77070  1.0000 0.0928985016
H   H44       1.0  0.42460  0.35540  0.72930  1.0000 0.0928985016
H   H45       1.0  0.44640  0.39000  0.30420  1.0000 0.10038993
H   H46       1.0  0.39000  0.44640  0.19580  1.0000 0.10038993
H   H47       1.0  0.55360  0.61000  0.69580  1.0000 0.10038993
H   H48       1.0  0.61000  0.55360  0.80420  1.0000 0.10038993
H   H49       1.0  0.27860  0.30920  0.33700  1.0000 0.1214036806
H   H50       1.0  0.30920  0.27860  0.16300  1.0000 0.1214036806
H   H51       1.0  0.72140  0.69080  0.66300  1.0000 0.1214036806
H   H52       1.0  0.69080  0.72140  0.83700  1.0000 0.1214036806
H   H53       1.0  0.26340  0.08480  0.45790  1.0000 0.1315082633
H   H54       1.0  0.08480  0.26340  0.04210  1.0000 0.1315082633
H   H55       1.0  0.73660  0.91520  0.54210  1.0000 0.1315082633
H   H56       1.0  0.91520  0.73660  0.95790  1.0000 0.1315082633
H   H57       1.0  0.43000  0.16740  0.42160  1.0000 0.1108032023
H   H58       1.0  0.16740  0.43000  0.07840  1.0000 0.1108032023
H   H59       1.0  0.57000  0.83260  0.57840  1.0000 0.1108032023
H   H60       1.0  0.83260  0.57000  0.92160  1.0000 0.1108032023
C   C1        1.0  0.88060  0.17140  0.43760  1.0000 0.5527864868
C   C2        1.0  0.17140  0.88060  0.06240  1.0000 0.5527864868
C   C3        1.0  0.11940  0.82860  0.56240  1.0000 0.5527864868
C   C4        1.0  0.82860  0.11940  0.93760  1.0000 0.5527864868
C   C5        1.0  0.82800  0.21260  0.40780  1.0000 -0.0137981303
C   C6        1.0  0.21260  0.82800  0.09220  1.0000 -0.0137981303
C   C7        1.0  0.17200  0.78740  0.59220  1.0000 -0.0137981303
C   C8        1.0  0.78740  0.17200  0.90780  1.0000 -0.016072242
C   C9        1.0  0.87860  0.30140  0.36430  1.0000 -0.0878778026
C   C10       1.0  0.30140  0.87860  0.13570  1.0000 -0.0878778026
C   C11       1.0  0.12140  0.69860  0.63570  1.0000 -0.0878778026
C   C12       1.0  0.69860  0.12140  0.86430  1.0000 -0.0878778026
C   C13       1.0  0.83250  0.34110  0.33690  1.0000 -0.1602490073
C   C14       1.0  0.34110  0.83250  0.16310  1.0000 -0.1602490073
C   C15       1.0  0.16750  0.65890  0.66310  1.0000 -0.1602490073
C   C16       1.0  0.65890  0.16750  0.83690  1.0000 -0.1602490073
C   C17       1.0  0.73240  0.28360  0.35630  1.0000 -0.0030022852
C   C18       1.0  0.28360  0.73240  0.14370  1.0000 -0.0030022852
C   C19       1.0  0.26760  0.71640  0.64370  1.0000 -0.0030022852
C   C20       1.0  0.71640  0.26760  0.85630  1.0000 -0.0030022852
C   C21       1.0  0.68230  0.19990  0.40000  1.0000 -0.1420575822
C   C22       1.0  0.19990  0.68230  0.10000  1.0000 -0.1420575822
C   C23       1.0  0.31770  0.80010  0.60000  1.0000 -0.1420575822
C   C24       1.0  0.80010  0.31770  0.90000  1.0000 -0.1420575822
C   C25       1.0  0.72500  0.15520  0.42510  1.0000 -0.1093597034
C   C26       1.0  0.15520  0.72500  0.07490  1.0000 -0.1093597034
C   C27       1.0  0.27500  0.84480  0.57490  1.0000 -0.1093597034
C   C28       1.0  0.84480  0.27500  0.92510  1.0000 -0.1093597034
C   C29       1.0  0.68360  0.32940  0.33190  1.0000 0.1560533518
C   C30       1.0  0.32940  0.68360  0.16810  1.0000 0.1544407779
C   C31       1.0  0.31640  0.67060  0.66810  1.0000 0.1544407779
C   C32       1.0  0.67060  0.31640  0.83190  1.0000 0.1544407779
C   C33       1.0  0.55160  0.33040  0.33550  1.0000 0.1935411827
C   C34       1.0  0.33040  0.55160  0.16450  1.0000 0.1935411827
C   C35       1.0  0.44840  0.66960  0.66450  1.0000 0.1935411827
C   C36       1.0  0.66960  0.44840  0.83550  1.0000 0.1935411827
C   C37       1.0  0.69740  0.46400  0.27250  1.0000 0.1315082633
C   C38       1.0  0.46400  0.69740  0.22750  1.0000 0.1315082633
C   C39       1.0  0.30260  0.53600  0.72750  1.0000 0.1315082633
C   C40       1.0  0.53600  0.30260  0.77250  1.0000 0.1315082633
C   C41       1.0  0.75120  0.55460  0.22570  1.0000 0.0019025612
C   C42       1.0  0.55460  0.75120  0.27430  1.0000 0.0019025612
C   C43       1.0  0.24880  0.44540  0.77430  1.0000 0.0019025612
C   C44       1.0  0.44540  0.24880  0.72570  1.0000 0.0019025612
C   C45       1.0  0.84310  0.60290  0.19870  1.0000 -0.1420575822
C   C46       1.0  0.60290  0.84310  0.30130  1.0000 -0.1420575822
C   C47       1.0  0.15690  0.39710  0.80130  1.0000 -0.1420575822
C   C48       1.0  0.39710  0.15690  0.69870  1.0000 -0.1420575822
C   C49       1.0  0.89580  0.69620  0.15600  1.0000 -0.0878778026
C   C50       1.0  0.69620  0.89580  0.34400  1.0000 -0.0878778026
C   C51       1.0  0.10420  0.30380  0.84400  1.0000 -0.0878778026
C   C52       1.0  0.30380  0.10420  0.65600  1.0000 -0.0878778026
C   C53       1.0  0.85690  0.74630  0.14360  1.0000 -0.0336651387
C   C54       1.0  0.74630  0.85690  0.35640  1.0000 -0.0336651387
C   C55       1.0  0.14310  0.25370  0.85640  1.0000 -0.0336651387
C   C56       1.0  0.25370  0.14310  0.64360  1.0000 -0.0336651387
C   C57       1.0  0.76640  0.70220  0.17270  1.0000 -0.0878778026
C   C58       1.0  0.70220  0.76640  0.32730  1.0000 -0.0878778026
C   C59       1.0  0.23360  0.29780  0.82730  1.0000 -0.0878778026
C   C60       1.0  0.29780  0.23360  0.67270  1.0000 -0.0878778026
C   C61       1.0  0.70940  0.60660  0.21190  1.0000 -0.190430039
C   C62       1.0  0.60660  0.70940  0.28810  1.0000 -0.190430039
C   C63       1.0  0.29060  0.39340  0.78810  1.0000 -0.190430039
C   C64       1.0  0.39340  0.29060  0.71190  1.0000 -0.190430039
C   C65       1.0  0.44750  0.28030  0.35930  1.0000 0.0019025612
C   C66       1.0  0.28030  0.44750  0.14070  1.0000 0.0019025612
C   C67       1.0  0.55250  0.71970  0.64070  1.0000 0.0019025612
C   C68       1.0  0.71970  0.55250  0.85930  1.0000 0.0019025612
C   C69       1.0  0.40770  0.32810  0.33400  1.0000 -0.1782261333
C   C70       1.0  0.32810  0.40770  0.16600  1.0000 -0.1782261333
C   C71       1.0  0.59230  0.67190  0.66600  1.0000 -0.1782261333
C   C72       1.0  0.67190  0.59230  0.83400  1.0000 -0.1782261333
C   C73       1.0  0.31000  0.28140  0.35410  1.0000 -0.1012724111
C   C74       1.0  0.28140  0.31000  0.14590  1.0000 -0.1012724111
C   C75       1.0  0.69000  0.71860  0.64590  1.0000 -0.1012724111
C   C76       1.0  0.71860  0.69000  0.85410  1.0000 -0.1012724111
C   C77       1.0  0.25740  0.19020  0.40150  1.0000 -0.0030022852
C   C78       1.0  0.19020  0.25740  0.09850  1.0000 -0.0030022852
C   C79       1.0  0.74260  0.80980  0.59850  1.0000 -0.0030022852
C   C80       1.0  0.80980  0.74260  0.90150  1.0000 -0.0030022852
C   C81       1.0  0.29970  0.14550  0.42690  1.0000 -0.1093597034
C   C82       1.0  0.14550  0.29970  0.07310  1.0000 -0.1093597034
C   C83       1.0  0.70030  0.85450  0.57310  1.0000 -0.1093597034
C   C84       1.0  0.85450  0.70030  0.92690  1.0000 -0.1093597034
C   C85       1.0  0.39770  0.19430  0.40480  1.0000 -0.1471637091
C   C86       1.0  0.19430  0.39770  0.09520  1.0000 -0.1471637091
C   C87       1.0  0.60230  0.80570  0.59520  1.0000 -0.1471637091
C   C88       1.0  0.80570  0.60230  0.90480  1.0000 -0.1471637091
C   C89       1.0  0.15390  0.14430  0.42460  1.0000 0.6140930378
C   C90       1.0  0.14430  0.15390  0.07540  1.0000 0.6140930378
C   C91       1.0  0.84610  0.85570  0.57540  1.0000 0.6140930378
C   C92       1.0  0.85570  0.84610  0.92460  1.0000 0.6140930378
C   C93       1.0  0.91270  0.84670  0.10130  1.0000 0.6390519464
C   C94       1.0  0.84670  0.91270  0.39870  1.0000 0.6390519464
C   C95       1.0  0.08730  0.15330  0.89870  1.0000 0.6390519464
C   C96       1.0  0.15330  0.08730  0.60130  1.0000 0.6390519464
N   N1        1.0  0.73980  0.42000  0.28970  1.0000 -0.3412206298
N   N2        1.0  0.42000  0.73980  0.21030  1.0000 -0.3412206298
N   N3        1.0  0.26020  0.58000  0.71030  1.0000 -0.3412206298
N   N4        1.0  0.58000  0.26020  0.78970  1.0000 -0.3412206298
N   N5        1.0  0.60150  0.41630  0.29480  1.0000 -0.3644731915
N   N6        1.0  0.41630  0.60150  0.20520  1.0000 -0.3644731915
N   N7        1.0  0.39850  0.58370  0.70520  1.0000 -0.3644731915
N   N8        1.0  0.58370  0.39850  0.79480  1.0000 -0.3644731915
N   N9        1.0  0.59050  0.28370  0.35480  1.0000 -0.3480071104
N   N10       1.0  0.28370  0.59050  0.14520  1.0000 -0.3480071104
N   N11       1.0  0.40950  0.71630  0.64520  1.0000 -0.3480071104
N   N12       1.0  0.71630  0.40950  0.85480  1.0000 -0.3480071104
O   O1        1.0  0.96630  0.21490  0.41680  1.0000 -0.6207041344
O   O2        1.0  0.21490  0.96630  0.08320  1.0000 -0.6207041344
O   O3        1.0  0.03370  0.78510  0.58320  1.0000 -0.6207041344
O   O4        1.0  0.78510  0.03370  0.91680  1.0000 -0.6207041344
O   O5        1.0  0.83710  0.09750  0.48270  1.0000 -0.6526150382
O   O6        1.0  0.09750  0.83710  0.01730  1.0000 -0.6526150382
O   O7        1.0  0.16290  0.90250  0.51730  1.0000 -0.6526150382
O   O8        1.0  0.90250  0.16290  0.98270  1.0000 -0.6552052772
O   O9        1.0  0.09570  0.05110  0.44990  1.0000 -0.7480547106
O   O10       1.0  0.05110  0.09570  0.05010  1.0000 -0.7480547106
O   O11       1.0  0.90430  0.94890  0.55010  1.0000 -0.7480547106
O   O12       1.0  0.94890  0.90430  0.94990  1.0000 -0.7480547106
O   O13       1.0  0.00380  0.89400  0.08960  1.0000 -0.6207041344
O   O14       1.0  0.89400  0.00380  0.41040  1.0000 -0.6207041344
O   O15       1.0  0.99620  0.10600  0.91040  1.0000 -0.6207041344
O   O16       1.0  0.10600  0.99620  0.58960  1.0000 -0.6207041344
O   O17       1.0  0.13220  0.19920  0.42000  1.0000 -0.602522341
O   O18       1.0  0.19920  0.13220  0.08000  1.0000 -0.602522341
O   O19       1.0  0.86780  0.80080  0.58000  1.0000 -0.602522341
O   O20       1.0  0.80080  0.86780  0.92000  1.0000 -0.602522341
O   O21       1.0  0.86160  0.87240  0.07920  1.0000 -0.6770116663
O   O22       1.0  0.87240  0.86160  0.42080  1.0000 -0.6770116663
O   O23       1.0  0.13840  0.12760  0.92080  1.0000 -0.6770116663
O   O24       1.0  0.12760  0.13840  0.57920  1.0000 -0.6770116663
