# DDEC6 charges by PACMAN v1.1 (https://github.com/mtap-research/PACMAN-charge/)
data_2014[Pr][dmc]3[ASR]1
_chemical_formula_sum              "Pr4 H20 C36 N4 O24"
_cell_length_a       6.663
_cell_length_b       13.588
_cell_length_c       15.93
_cell_angle_alpha    90
_cell_angle_beta     97.392
_cell_angle_gamma    90

_symmetry_space_group_name_H-M    "P 1"
_symmetry_Int_Tables_number       1

loop_
  _symmetry_equiv_pos_as_xyz
  'x, y, z'

loop_
  _atom_site_type_symbol
  _atom_site_label
  _atom_site_symmetry_multiplicity
  _atom_site_fract_x
  _atom_site_fract_y
  _atom_site_fract_z
  _atom_site_occupancy
  _atom_site_charge
Pr  Pr1       1.0  0.97139  0.05996  0.25055  1.0000 2.0411067208
Pr  Pr2       1.0  0.52861  0.55996  0.74945  1.0000 2.0411067208
Pr  Pr3       1.0  0.02861  0.94004  0.74945  1.0000 2.0411067208
Pr  Pr4       1.0  0.47139  0.44004  0.25055  1.0000 2.0411067208
H   H1        1.0  0.35470  0.06880  0.46300  1.0000 0.1101762591
H   H2        1.0  0.14530  0.56880  0.53700  1.0000 0.1101762591
H   H3        1.0  0.64530  0.93120  0.53700  1.0000 0.1101762591
H   H4        1.0  0.85470  0.43120  0.46300  1.0000 0.1101762591
H   H5        1.0  0.46910  0.19780  0.68190  1.0000 0.1101762591
H   H6        1.0  0.03090  0.69780  0.31810  1.0000 0.1101762591
H   H7        1.0  0.53090  0.80220  0.31810  1.0000 0.1101762591
H   H8        1.0  0.96910  0.30220  0.68190  1.0000 0.1101762591
H   H9        1.0  0.40320  0.36390  0.47290  1.0000 0.1274807652
H   H10       1.0  0.09680  0.86390  0.52710  1.0000 0.1274807652
H   H11       1.0  0.59680  0.63610  0.52710  1.0000 0.1274807652
H   H12       1.0  0.90320  0.13610  0.47290  1.0000 0.1274807652
H   H13       1.0  0.38120  0.06750  0.03350  1.0000 0.1386522722
H   H14       1.0  0.11880  0.56750  0.96650  1.0000 0.1274807652
H   H15       1.0  0.61880  0.93250  0.96650  1.0000 0.1386522722
H   H16       1.0  0.88120  0.43250  0.03350  1.0000 0.1386522722
H   H17       1.0  0.55240  0.09270  0.97810  1.0000 0.1386522722
H   H18       1.0  0.94760  0.59270  0.02190  1.0000 0.1386522722
H   H19       1.0  0.44760  0.90730  0.02190  1.0000 0.1386522722
H   H20       1.0  0.05240  0.40730  0.97810  1.0000 0.1386522722
C   C1        1.0  0.34250  0.21610  0.35670  1.0000 0.6359024843
C   C2        1.0  0.15750  0.71610  0.64330  1.0000 0.6359024843
C   C3        1.0  0.65750  0.78390  0.64330  1.0000 0.6359024843
C   C4        1.0  0.84250  0.28390  0.35670  1.0000 0.6359024843
C   C5        1.0  0.37700  0.21660  0.45150  1.0000 -0.0898466209
C   C6        1.0  0.12300  0.71660  0.54850  1.0000 -0.0898466209
C   C7        1.0  0.62300  0.78340  0.54850  1.0000 -0.0898466209
C   C8        1.0  0.87700  0.28340  0.45150  1.0000 -0.0898466209
C   C9        1.0  0.37890  0.12620  0.49440  1.0000 0.0488518676
C   C10       1.0  0.12110  0.62620  0.50560  1.0000 0.0488518676
C   C11       1.0  0.62110  0.87380  0.50560  1.0000 0.0488518676
C   C12       1.0  0.87890  0.37380  0.49440  1.0000 0.0488518676
C   C13       1.0  0.44480  0.20250  0.62320  1.0000 0.0488518676
C   C14       1.0  0.05520  0.70250  0.37680  1.0000 0.0488518676
C   C15       1.0  0.55520  0.79750  0.37680  1.0000 0.0488518676
C   C16       1.0  0.94480  0.29750  0.62320  1.0000 0.0488518676
C   C17       1.0  0.44220  0.29580  0.58640  1.0000 -0.0695262688
C   C18       1.0  0.05780  0.79580  0.41360  1.0000 -0.0695262688
C   C19       1.0  0.55780  0.70420  0.41360  1.0000 -0.0695262688
C   C20       1.0  0.94220  0.20420  0.58640  1.0000 -0.0695262688
C   C21       1.0  0.40700  0.30280  0.49930  1.0000 -0.0812944626
C   C22       1.0  0.09300  0.80280  0.50070  1.0000 -0.0812944626
C   C23       1.0  0.59300  0.69720  0.50070  1.0000 -0.0812944626
C   C24       1.0  0.90700  0.19720  0.49930  1.0000 -0.0812944626
C   C25       1.0  0.47820  0.38560  0.64230  1.0000 0.5568543425
C   C26       1.0  0.02180  0.88560  0.35770  1.0000 0.5568543425
C   C27       1.0  0.52180  0.61440  0.35770  1.0000 0.5568543425
C   C28       1.0  0.97820  0.11440  0.64230  1.0000 0.5568543425
C   C29       1.0  0.67100  0.04760  0.10070  1.0000 0.6120563646
C   C30       1.0  0.82900  0.54760  0.89930  1.0000 0.6120563646
C   C31       1.0  0.32900  0.95240  0.89930  1.0000 0.6120563646
C   C32       1.0  0.17100  0.45240  0.10070  1.0000 0.6120563646
C   C33       1.0  0.51100  0.04610  0.01870  1.0000 -0.2646953414
C   C34       1.0  0.98900  0.54610  0.98130  1.0000 -0.2659634227
C   C35       1.0  0.48900  0.95390  0.98130  1.0000 -0.2659634227
C   C36       1.0  0.01100  0.45390  0.01870  1.0000 -0.2646953414
N   N1        1.0  0.41400  0.11950  0.57840  1.0000 -0.2356550644
N   N2        1.0  0.08600  0.61950  0.42160  1.0000 -0.2356550644
N   N3        1.0  0.58600  0.88050  0.42160  1.0000 -0.2356550644
N   N4        1.0  0.91400  0.38050  0.57840  1.0000 -0.2356550644
O   O1        1.0  0.29010  0.13800  0.31940  1.0000 -0.6469229261
O   O2        1.0  0.20990  0.63800  0.68060  1.0000 -0.6469229261
O   O3        1.0  0.70990  0.86200  0.68060  1.0000 -0.6469229261
O   O4        1.0  0.79010  0.36200  0.31940  1.0000 -0.6469229261
O   O5        1.0  0.36670  0.29560  0.32040  1.0000 -0.6621815363
O   O6        1.0  0.13330  0.79560  0.67960  1.0000 -0.6621815363
O   O7        1.0  0.63330  0.70440  0.67960  1.0000 -0.6621815363
O   O8        1.0  0.86670  0.20440  0.32040  1.0000 -0.6621815363
O   O9        1.0  0.54950  0.37550  0.71870  1.0000 -0.6359306971
O   O10       1.0  0.95050  0.87550  0.28130  1.0000 -0.6359306971
O   O11       1.0  0.45050  0.62450  0.28130  1.0000 -0.6359306971
O   O12       1.0  0.04950  0.12450  0.71870  1.0000 -0.6359306971
O   O13       1.0  0.43700  0.46910  0.61020  1.0000 -0.6267538467
O   O14       1.0  0.06300  0.96910  0.38980  1.0000 -0.6267538467
O   O15       1.0  0.56300  0.53090  0.38980  1.0000 -0.6267538467
O   O16       1.0  0.93700  0.03090  0.61020  1.0000 -0.6267538467
O   O17       1.0  0.81500  0.98670  0.11140  1.0000 -0.6267538467
O   O18       1.0  0.68500  0.48670  0.88860  1.0000 -0.6267538467
O   O19       1.0  0.18500  0.01330  0.88860  1.0000 -0.6267538467
O   O20       1.0  0.31500  0.51330  0.11140  1.0000 -0.6267538467
O   O21       1.0  0.66060  0.11700  0.15100  1.0000 -0.6247940461
O   O22       1.0  0.83940  0.61700  0.84900  1.0000 -0.6267538467
O   O23       1.0  0.33940  0.88300  0.84900  1.0000 -0.6267538467
O   O24       1.0  0.16060  0.38300  0.15100  1.0000 -0.6247940461
