# DDEC6 charges by PACMAN v1.1 (https://github.com/mtap-research/PACMAN-charge/)
data_2014[Cu][bcu]3[ASR]7
_chemical_formula_sum              "Cu6 H32 C48 N52"
_cell_length_a       13.135
_cell_length_b       14.855
_cell_length_c       20.0352
_cell_angle_alpha    90
_cell_angle_beta     129.825
_cell_angle_gamma    90

_symmetry_space_group_name_H-M    "P 1"
_symmetry_Int_Tables_number       1

loop_
  _symmetry_equiv_pos_as_xyz
  'x, y, z'

loop_
  _atom_site_type_symbol
  _atom_site_label
  _atom_site_symmetry_multiplicity
  _atom_site_fract_x
  _atom_site_fract_y
  _atom_site_fract_z
  _atom_site_occupancy
  _atom_site_charge
Cu  Cu1       1.0  0.00000  0.00000  0.50000  1.0000 0.5823368594
Cu  Cu2       1.0  0.00000  0.50000  0.00000  1.0000 0.5823368594
Cu  Cu3       1.0  0.88525  0.20820  0.40294  1.0000 0.5067238972
Cu  Cu4       1.0  0.11475  0.70820  0.09706  1.0000 0.5067238972
Cu  Cu5       1.0  0.11475  0.79180  0.59706  1.0000 0.5024985835
Cu  Cu6       1.0  0.88525  0.29180  0.90294  1.0000 0.5067238972
H   H1        1.0  0.83920  0.37030  0.74910  1.0000 0.1165205405
H   H2        1.0  0.16080  0.87030  0.75090  1.0000 0.1165205405
H   H3        1.0  0.16080  0.62970  0.25090  1.0000 0.1165205405
H   H4        1.0  0.83920  0.12970  0.24910  1.0000 0.1165205405
H   H5        1.0  0.84850  0.32980  0.64290  1.0000 0.1433637996
H   H6        1.0  0.15150  0.82980  0.85710  1.0000 0.1433637996
H   H7        1.0  0.15150  0.67020  0.35710  1.0000 0.1433637996
H   H8        1.0  0.84850  0.17020  0.14290  1.0000 0.1433637996
H   H9        1.0  0.96570  0.08470  0.74870  1.0000 0.1499995623
H   H10       1.0  0.03430  0.58470  0.75130  1.0000 0.1499995623
H   H11       1.0  0.03430  0.91530  0.25130  1.0000 0.1499995623
H   H12       1.0  0.96570  0.41530  0.24870  1.0000 0.1499995623
H   H13       1.0  0.94720  0.13090  0.85030  1.0000 0.1090548526
H   H14       1.0  0.05280  0.63090  0.64970  1.0000 0.1090548526
H   H15       1.0  0.05280  0.86910  0.14970  1.0000 0.1090548526
H   H16       1.0  0.94720  0.36910  0.35030  1.0000 0.1090548526
H   H17       1.0  0.61560  0.28240  0.74010  1.0000 0.1090548526
H   H18       1.0  0.38440  0.78240  0.75990  1.0000 0.1090548526
H   H19       1.0  0.38440  0.71760  0.25990  1.0000 0.1090548526
H   H20       1.0  0.61560  0.21760  0.24010  1.0000 0.1090548526
H   H21       1.0  0.43190  0.19210  0.66410  1.0000 0.1499995623
H   H22       1.0  0.56810  0.69210  0.83590  1.0000 0.1499995623
H   H23       1.0  0.56810  0.80790  0.33590  1.0000 0.1499995623
H   H24       1.0  0.43190  0.30790  0.16410  1.0000 0.1499995623
H   H25       1.0  0.61340  0.03660  0.87600  1.0000 0.1433637996
H   H26       1.0  0.38660  0.53660  0.62400  1.0000 0.1433637996
H   H27       1.0  0.38660  0.96340  0.12400  1.0000 0.1433637996
H   H28       1.0  0.61340  0.46340  0.37600  1.0000 0.1433637996
H   H29       1.0  0.79460  0.12820  0.94410  1.0000 0.1090548526
H   H30       1.0  0.20540  0.62820  0.55590  1.0000 0.1090548526
H   H31       1.0  0.20540  0.87180  0.05590  1.0000 0.1090548526
H   H32       1.0  0.79460  0.37180  0.44410  1.0000 0.1090548526
C   C1        1.0  0.86310  0.31170  0.74810  1.0000 0.0702481937
C   C2        1.0  0.13690  0.81170  0.75190  1.0000 0.0702481937
C   C3        1.0  0.13690  0.68830  0.25190  1.0000 0.0702481937
C   C4        1.0  0.86310  0.18830  0.24810  1.0000 0.0702481937
C   C5        1.0  0.86950  0.28820  0.68470  1.0000 -0.1621513826
C   C6        1.0  0.13050  0.78820  0.81530  1.0000 -0.1621513826
C   C7        1.0  0.13050  0.71180  0.31530  1.0000 -0.1621513826
C   C8        1.0  0.86950  0.21180  0.18470  1.0000 -0.1621513826
C   C9        1.0  0.90720  0.20230  0.68390  1.0000 0.0894739556
C   C10       1.0  0.09280  0.70230  0.81610  1.0000 0.0894739556
C   C11       1.0  0.09280  0.79770  0.31610  1.0000 0.0894739556
C   C12       1.0  0.90720  0.29770  0.18390  1.0000 0.0894739556
C   C13       1.0  0.93810  0.14290  0.74700  1.0000 -0.1621513826
C   C14       1.0  0.06190  0.64290  0.75300  1.0000 -0.1621513826
C   C15       1.0  0.06190  0.85710  0.25300  1.0000 -0.1700527712
C   C16       1.0  0.93810  0.35710  0.24700  1.0000 -0.1621513826
C   C17       1.0  0.92730  0.17140  0.80800  1.0000 0.0702481937
C   C18       1.0  0.07270  0.67140  0.69200  1.0000 0.0702481937
C   C19       1.0  0.07270  0.82860  0.19200  1.0000 0.0702481937
C   C20       1.0  0.92730  0.32860  0.30800  1.0000 0.0702481937
C   C21       1.0  0.91410  0.17300  0.61650  1.0000 0.2251398728
C   C22       1.0  0.08590  0.67300  0.88350  1.0000 0.2197731365
C   C23       1.0  0.08590  0.82700  0.38350  1.0000 0.2197731365
C   C24       1.0  0.91410  0.32700  0.11650  1.0000 0.2197731365
C   C25       1.0  0.61560  0.23170  0.76740  1.0000 0.0894739556
C   C26       1.0  0.38440  0.73170  0.73260  1.0000 0.0894739556
C   C27       1.0  0.38440  0.76830  0.23260  1.0000 0.0894739556
C   C28       1.0  0.61560  0.26830  0.26740  1.0000 0.0894739556
C   C29       1.0  0.50420  0.17800  0.72130  1.0000 -0.1621513826
C   C30       1.0  0.49580  0.67800  0.77870  1.0000 -0.1621513826
C   C31       1.0  0.49580  0.82200  0.27870  1.0000 -0.1621513826
C   C32       1.0  0.50420  0.32200  0.22130  1.0000 -0.1621513826
C   C33       1.0  0.50080  0.10250  0.76100  1.0000 0.0894739556
C   C34       1.0  0.49920  0.60250  0.73900  1.0000 0.0894739556
C   C35       1.0  0.49920  0.89750  0.23900  1.0000 0.0894739556
C   C36       1.0  0.50080  0.39750  0.26100  1.0000 0.0894739556
C   C37       1.0  0.61200  0.08560  0.84650  1.0000 -0.1700527712
C   C38       1.0  0.38800  0.58560  0.65350  1.0000 -0.1700527712
C   C39       1.0  0.38800  0.91440  0.15350  1.0000 -0.1700527712
C   C40       1.0  0.61200  0.41440  0.34650  1.0000 -0.1700527712
C   C41       1.0  0.72000  0.14150  0.88730  1.0000 0.0623430588
C   C42       1.0  0.28000  0.64150  0.61270  1.0000 0.0623430588
C   C43       1.0  0.28000  0.85850  0.11270  1.0000 0.0623430588
C   C44       1.0  0.72000  0.35850  0.38730  1.0000 0.0623430588
C   C45       1.0  0.38290  0.04560  0.71270  1.0000 0.2197731365
C   C46       1.0  0.61710  0.54560  0.78730  1.0000 0.2197731365
C   C47       1.0  0.61710  0.95440  0.28730  1.0000 0.2197731365
C   C48       1.0  0.38290  0.45440  0.21270  1.0000 0.2197731365
N   N1        1.0  0.89010  0.25360  0.80870  1.0000 -0.196917577
N   N2        1.0  0.10990  0.75360  0.69130  1.0000 -0.196917577
N   N3        1.0  0.10990  0.74640  0.19130  1.0000 -0.196917577
N   N4        1.0  0.89010  0.24640  0.30870  1.0000 -0.1949519351
N   N5        1.0  0.87630  0.22430  0.54930  1.0000 -0.2638759051
N   N6        1.0  0.12370  0.72430  0.95070  1.0000 -0.2638759051
N   N7        1.0  0.12370  0.77570  0.45070  1.0000 -0.2638759051
N   N8        1.0  0.87630  0.27570  0.04930  1.0000 -0.2654665544
N   N9        1.0  0.89830  0.17300  0.50590  1.0000 -0.0325218623
N   N10       1.0  0.10170  0.67300  0.99410  1.0000 -0.0325218623
N   N11       1.0  0.10170  0.82700  0.49410  1.0000 -0.0325218623
N   N12       1.0  0.89830  0.32700  0.00590  1.0000 -0.0325218623
N   N13       1.0  0.94690  0.09470  0.54520  1.0000 -0.0147261515
N   N14       1.0  0.05310  0.59470  0.95480  1.0000 -0.0147261515
N   N15       1.0  0.05310  0.90530  0.45480  1.0000 -0.0147261515
N   N16       1.0  0.94690  0.40530  0.04520  1.0000 -0.0147261515
N   N17       1.0  0.95860  0.09210  0.61580  1.0000 -0.2516876053
N   N18       1.0  0.04140  0.59210  0.88420  1.0000 -0.2516876053
N   N19       1.0  0.04140  0.90790  0.38420  1.0000 -0.2516876053
N   N20       1.0  0.95860  0.40790  0.11580  1.0000 -0.2516876053
N   N21       1.0  0.72290  0.21470  0.84890  1.0000 -0.2090868786
N   N22       1.0  0.27710  0.71470  0.65110  1.0000 -0.2090868786
N   N23       1.0  0.27710  0.78530  0.15110  1.0000 -0.2090868786
N   N24       1.0  0.72290  0.28530  0.34890  1.0000 -0.2090868786
N   N25       1.0  0.26720  0.07340  0.63980  1.0000 -0.2516876053
N   N26       1.0  0.73280  0.57340  0.86020  1.0000 -0.2516876053
N   N27       1.0  0.73280  0.92660  0.36020  1.0000 -0.2516876053
N   N28       1.0  0.26720  0.42660  0.13980  1.0000 -0.2516876053
N   N29       1.0  0.18830  0.00260  0.61440  1.0000 -0.0325218623
N   N30       1.0  0.81170  0.50260  0.88560  1.0000 -0.0357139915
N   N31       1.0  0.81170  0.99740  0.38560  1.0000 -0.0357139915
N   N32       1.0  0.18830  0.49740  0.11440  1.0000 -0.0325218623
N   N33       1.0  0.25290  0.93420  0.66910  1.0000 -0.0986642357
N   N34       1.0  0.74710  0.43420  0.83090  1.0000 -0.0986642357
N   N35       1.0  0.74710  0.06580  0.33090  1.0000 -0.0986642357
N   N36       1.0  0.25290  0.56580  0.16910  1.0000 -0.0986642357
N   N37       1.0  0.37780  0.95980  0.73260  1.0000 -0.281025736
N   N38       1.0  0.62220  0.45980  0.76740  1.0000 -0.281025736
N   N39       1.0  0.62220  0.04020  0.26740  1.0000 -0.281025736
N   N40       1.0  0.37780  0.54020  0.23260  1.0000 -0.281025736
N   N41       1.0  0.03420  0.12370  0.44800  1.0000 -0.5183653071
N   N42       1.0  0.96580  0.62370  0.05200  1.0000 -0.5183653071
N   N43       1.0  0.96580  0.87630  0.55200  1.0000 -0.5183653071
N   N44       1.0  0.03420  0.37630  0.94800  1.0000 -0.5183653071
N   N45       1.0  0.12700  0.14520  0.45510  1.0000 0.4193773732
N   N46       1.0  0.87300  0.64520  0.04490  1.0000 0.4193773732
N   N47       1.0  0.87300  0.85480  0.54490  1.0000 0.4193773732
N   N48       1.0  0.12700  0.35480  0.95510  1.0000 0.4193773732
N   N49       1.0  0.21960  0.16510  0.46470  1.0000 -0.3477091551
N   N50       1.0  0.78040  0.66510  0.03530  1.0000 -0.3477091551
N   N51       1.0  0.78040  0.83490  0.53530  1.0000 -0.3477091551
N   N52       1.0  0.21960  0.33490  0.96470  1.0000 -0.3477091551
