# DDEC6 charges by PACMAN v1.1 (https://github.com/mtap-research/PACMAN-charge/)
data_2014[Cu][nan]3[ASR]22
_chemical_formula_sum              "Cu12 H120 C216 O48"
_cell_length_a       23.3662
_cell_length_b       23.3662
_cell_length_c       23.3662
_cell_angle_alpha    109.471
_cell_angle_beta     109.471
_cell_angle_gamma    109.471

_symmetry_space_group_name_H-M    "P 1"
_symmetry_Int_Tables_number       1

loop_
  _symmetry_equiv_pos_as_xyz
  'x, y, z'

loop_
  _atom_site_type_symbol
  _atom_site_label
  _atom_site_symmetry_multiplicity
  _atom_site_fract_x
  _atom_site_fract_y
  _atom_site_fract_z
  _atom_site_occupancy
  _atom_site_charge
Cu  Cu1       1.0  0.14436  0.64436  0.50000  1.0000 0.8418866502
Cu  Cu2       1.0  0.50000  0.14436  0.64436  1.0000 0.8418866502
Cu  Cu3       1.0  0.64436  0.50000  0.14436  1.0000 0.8418866502
Cu  Cu4       1.0  0.35564  0.50000  0.85564  1.0000 0.8418866502
Cu  Cu5       1.0  0.50000  0.85564  0.35564  1.0000 0.8418866502
Cu  Cu6       1.0  0.85564  0.35564  0.50000  1.0000 0.8418866502
Cu  Cu7       1.0  0.24021  0.74021  0.50000  1.0000 0.8636236993
Cu  Cu8       1.0  0.50000  0.24021  0.74021  1.0000 0.8636236993
Cu  Cu9       1.0  0.74021  0.50000  0.24021  1.0000 0.8636236993
Cu  Cu10      1.0  0.25979  0.50000  0.75979  1.0000 0.8636236993
Cu  Cu11      1.0  0.50000  0.75979  0.25979  1.0000 0.8636236993
Cu  Cu12      1.0  0.75979  0.25979  0.50000  1.0000 0.8636236993
H   H1        1.0  0.21730  0.49210  0.47260  1.0000 0.1263053821
H   H2        1.0  0.47260  0.21730  0.49210  1.0000 0.1263053821
H   H3        1.0  0.49210  0.47260  0.21730  1.0000 0.1263053821
H   H4        1.0  0.25530  0.27480  0.78270  1.0000 0.1263053821
H   H5        1.0  0.52740  0.01950  0.74470  1.0000 0.1263053821
H   H6        1.0  0.74470  0.52740  0.01950  1.0000 0.1263053821
H   H7        1.0  0.72520  0.98050  0.50790  1.0000 0.1263053821
H   H8        1.0  0.27480  0.78270  0.25530  1.0000 0.1263053821
H   H9        1.0  0.50790  0.72520  0.98050  1.0000 0.1263053821
H   H10       1.0  0.01950  0.74470  0.52740  1.0000 0.1263053821
H   H11       1.0  0.78270  0.25530  0.27480  1.0000 0.1263053821
H   H12       1.0  0.98050  0.50790  0.72520  1.0000 0.1263053821
H   H13       1.0  0.78270  0.50790  0.52740  1.0000 0.1263053821
H   H14       1.0  0.52740  0.78270  0.50790  1.0000 0.1263053821
H   H15       1.0  0.50790  0.52740  0.78270  1.0000 0.1263053821
H   H16       1.0  0.74470  0.72520  0.21730  1.0000 0.1263053821
H   H17       1.0  0.47260  0.98050  0.25530  1.0000 0.1263053821
H   H18       1.0  0.25530  0.47260  0.98050  1.0000 0.1263053821
H   H19       1.0  0.27480  0.01950  0.49210  1.0000 0.1263053821
H   H20       1.0  0.72520  0.21730  0.74470  1.0000 0.1263053821
H   H21       1.0  0.49210  0.27480  0.01950  1.0000 0.1263053821
H   H22       1.0  0.98050  0.25530  0.47260  1.0000 0.1263053821
H   H23       1.0  0.21730  0.74470  0.72520  1.0000 0.1263053821
H   H24       1.0  0.01950  0.49210  0.27480  1.0000 0.1263053821
H   H25       1.0  0.40960  0.57850  0.44310  1.0000 0.1128877792
H   H26       1.0  0.44310  0.40960  0.57850  1.0000 0.1128877792
H   H27       1.0  0.57850  0.44310  0.40960  1.0000 0.1128877792
H   H28       1.0  0.03350  0.16890  0.59040  1.0000 0.1128877792
H   H29       1.0  0.55690  0.13540  0.96650  1.0000 0.1128877792
H   H30       1.0  0.96650  0.55690  0.13540  1.0000 0.1128877792
H   H31       1.0  0.83110  0.86460  0.42150  1.0000 0.1128877792
H   H32       1.0  0.16890  0.59040  0.03350  1.0000 0.1128877792
H   H33       1.0  0.42150  0.83110  0.86460  1.0000 0.1128877792
H   H34       1.0  0.13540  0.96650  0.55690  1.0000 0.1128877792
H   H35       1.0  0.59040  0.03350  0.16890  1.0000 0.1128877792
H   H36       1.0  0.86460  0.42150  0.83110  1.0000 0.1128877792
H   H37       1.0  0.59040  0.42150  0.55690  1.0000 0.1128877792
H   H38       1.0  0.55690  0.59040  0.42150  1.0000 0.1128877792
H   H39       1.0  0.42150  0.55690  0.59040  1.0000 0.1128877792
H   H40       1.0  0.96650  0.83110  0.40960  1.0000 0.1128877792
H   H41       1.0  0.44310  0.86460  0.03350  1.0000 0.1128877792
H   H42       1.0  0.03350  0.44310  0.86460  1.0000 0.1128877792
H   H43       1.0  0.16890  0.13540  0.57850  1.0000 0.1128877792
H   H44       1.0  0.83110  0.40960  0.96650  1.0000 0.1128877792
H   H45       1.0  0.57850  0.16890  0.13540  1.0000 0.1128877792
H   H46       1.0  0.86460  0.03350  0.44310  1.0000 0.1128877792
H   H47       1.0  0.40960  0.96650  0.83110  1.0000 0.1128877792
H   H48       1.0  0.13540  0.57850  0.16890  1.0000 0.1128877792
H   H49       1.0  0.26680  0.42220  0.44380  1.0000 0.1180957737
H   H50       1.0  0.44380  0.26680  0.42220  1.0000 0.1180957737
H   H51       1.0  0.42220  0.44380  0.26680  1.0000 0.1180957737
H   H52       1.0  0.17700  0.15540  0.73320  1.0000 0.1180957737
H   H53       1.0  0.55620  0.97840  0.82300  1.0000 0.1180957737
H   H54       1.0  0.82300  0.55620  0.97840  1.0000 0.1180957737
H   H55       1.0  0.84460  0.02160  0.57780  1.0000 0.1180957737
H   H56       1.0  0.15540  0.73320  0.17700  1.0000 0.1180957737
H   H57       1.0  0.57780  0.84460  0.02160  1.0000 0.1180957737
H   H58       1.0  0.97840  0.82300  0.55620  1.0000 0.1180957737
H   H59       1.0  0.73320  0.17700  0.15540  1.0000 0.1180957737
H   H60       1.0  0.02160  0.57780  0.84460  1.0000 0.1180957737
H   H61       1.0  0.73320  0.57780  0.55620  1.0000 0.1180957737
H   H62       1.0  0.55620  0.73320  0.57780  1.0000 0.1180957737
H   H63       1.0  0.57780  0.55620  0.73320  1.0000 0.1180957737
H   H64       1.0  0.82300  0.84460  0.26680  1.0000 0.1180957737
H   H65       1.0  0.44380  0.02160  0.17700  1.0000 0.1180957737
H   H66       1.0  0.17700  0.44380  0.02160  1.0000 0.1180957737
H   H67       1.0  0.15540  0.97840  0.42220  1.0000 0.1180957737
H   H68       1.0  0.84460  0.26680  0.82300  1.0000 0.1180957737
H   H69       1.0  0.42220  0.15540  0.97840  1.0000 0.1180957737
H   H70       1.0  0.02160  0.17700  0.44380  1.0000 0.1180957737
H   H71       1.0  0.26680  0.82300  0.84460  1.0000 0.1180957737
H   H72       1.0  0.97840  0.42220  0.15540  1.0000 0.1180957737
H   H73       1.0  0.36180  0.64750  0.47490  1.0000 0.1263053821
H   H74       1.0  0.47490  0.36180  0.64750  1.0000 0.1263053821
H   H75       1.0  0.64750  0.47490  0.36180  1.0000 0.1263053821
H   H76       1.0  0.11310  0.28570  0.63820  1.0000 0.1263053821
H   H77       1.0  0.52510  0.17260  0.88690  1.0000 0.1263053821
H   H78       1.0  0.88690  0.52510  0.17260  1.0000 0.1263053821
H   H79       1.0  0.71430  0.82740  0.35250  1.0000 0.1263053821
H   H80       1.0  0.28570  0.63820  0.11310  1.0000 0.1263053821
H   H81       1.0  0.35250  0.71430  0.82740  1.0000 0.1263053821
H   H82       1.0  0.17260  0.88690  0.52510  1.0000 0.1263053821
H   H83       1.0  0.63820  0.11310  0.28570  1.0000 0.1263053821
H   H84       1.0  0.82740  0.35250  0.71430  1.0000 0.1263053821
H   H85       1.0  0.63820  0.35250  0.52510  1.0000 0.1263053821
H   H86       1.0  0.52510  0.63820  0.35250  1.0000 0.1263053821
H   H87       1.0  0.35250  0.52510  0.63820  1.0000 0.1263053821
H   H88       1.0  0.88690  0.71430  0.36180  1.0000 0.1263053821
H   H89       1.0  0.47490  0.82740  0.11310  1.0000 0.1263053821
H   H90       1.0  0.11310  0.47490  0.82740  1.0000 0.1263053821
H   H91       1.0  0.28570  0.17260  0.64750  1.0000 0.1263053821
H   H92       1.0  0.71430  0.36180  0.88690  1.0000 0.1263053821
H   H93       1.0  0.64750  0.28570  0.17260  1.0000 0.1263053821
H   H94       1.0  0.82740  0.11310  0.47490  1.0000 0.1263053821
H   H95       1.0  0.36180  0.88690  0.71430  1.0000 0.1263053821
H   H96       1.0  0.17260  0.64750  0.28570  1.0000 0.1263053821
H   H97       1.0  0.40640  0.48460  0.36420  1.0000 0.1128877792
H   H98       1.0  0.36420  0.40640  0.48460  1.0000 0.1128877792
H   H99       1.0  0.48460  0.36420  0.40640  1.0000 0.1128877792
H   H100      1.0  0.95780  0.07820  0.59360  1.0000 0.1128877792
H   H101      1.0  0.63580  0.12040  0.04220  1.0000 0.1128877792
H   H102      1.0  0.04220  0.63580  0.12040  1.0000 0.1128877792
H   H103      1.0  0.92180  0.87960  0.51540  1.0000 0.1128877792
H   H104      1.0  0.07820  0.59360  0.95780  1.0000 0.1128877792
H   H105      1.0  0.51540  0.92180  0.87960  1.0000 0.1128877792
H   H106      1.0  0.12040  0.04220  0.63580  1.0000 0.1128877792
H   H107      1.0  0.59360  0.95780  0.07820  1.0000 0.1128877792
H   H108      1.0  0.87960  0.51540  0.92180  1.0000 0.1128877792
H   H109      1.0  0.59360  0.51540  0.63580  1.0000 0.1128877792
H   H110      1.0  0.63580  0.59360  0.51540  1.0000 0.1128877792
H   H111      1.0  0.51540  0.63580  0.59360  1.0000 0.1128877792
H   H112      1.0  0.04220  0.92180  0.40640  1.0000 0.1128877792
H   H113      1.0  0.36420  0.87960  0.95780  1.0000 0.1128877792
H   H114      1.0  0.95780  0.36420  0.87960  1.0000 0.1128877792
H   H115      1.0  0.07820  0.12040  0.48460  1.0000 0.1128877792
H   H116      1.0  0.92180  0.40640  0.04220  1.0000 0.1128877792
H   H117      1.0  0.48460  0.07820  0.12040  1.0000 0.1128877792
H   H118      1.0  0.87960  0.95780  0.36420  1.0000 0.1128877792
H   H119      1.0  0.40640  0.04220  0.92180  1.0000 0.1128877792
H   H120      1.0  0.12040  0.48460  0.07820  1.0000 0.1128877792
C   C1        1.0  0.34357  0.49254  0.44043  1.0000 0.0774113586
C   C2        1.0  0.44043  0.34357  0.49254  1.0000 0.0774113586
C   C3        1.0  0.49254  0.44043  0.34357  1.0000 0.0774113586
C   C4        1.0  0.09686  0.14897  0.65643  1.0000 0.0774113586
C   C5        1.0  0.55957  0.05211  0.90314  1.0000 0.0774113586
C   C6        1.0  0.90314  0.55957  0.05211  1.0000 0.0774113586
C   C7        1.0  0.85103  0.94789  0.50746  1.0000 0.0774113586
C   C8        1.0  0.14897  0.65643  0.09686  1.0000 0.0774113586
C   C9        1.0  0.50746  0.85103  0.94789  1.0000 0.0774113586
C   C10       1.0  0.05211  0.90314  0.55957  1.0000 0.0774113586
C   C11       1.0  0.65643  0.09686  0.14897  1.0000 0.0774113586
C   C12       1.0  0.94789  0.50746  0.85103  1.0000 0.0774113586
C   C13       1.0  0.65643  0.50746  0.55957  1.0000 0.0774113586
C   C14       1.0  0.55957  0.65643  0.50746  1.0000 0.0774113586
C   C15       1.0  0.50746  0.55957  0.65643  1.0000 0.0774113586
C   C16       1.0  0.90314  0.85103  0.34357  1.0000 0.0774113586
C   C17       1.0  0.44043  0.94789  0.09686  1.0000 0.0774113586
C   C18       1.0  0.09686  0.44043  0.94789  1.0000 0.0774113586
C   C19       1.0  0.14897  0.05211  0.49254  1.0000 0.0774113586
C   C20       1.0  0.85103  0.34357  0.90314  1.0000 0.0774113586
C   C21       1.0  0.49254  0.14897  0.05211  1.0000 0.0774113586
C   C22       1.0  0.94789  0.09686  0.44043  1.0000 0.0774113586
C   C23       1.0  0.34357  0.90314  0.85103  1.0000 0.0774113586
C   C24       1.0  0.05211  0.49254  0.14897  1.0000 0.0774113586
C   C25       1.0  0.25283  0.62125  0.49270  1.0000 0.5860321663
C   C26       1.0  0.49270  0.25283  0.62125  1.0000 0.5860321663
C   C27       1.0  0.62125  0.49270  0.25283  1.0000 0.5860321663
C   C28       1.0  0.23987  0.36842  0.74717  1.0000 0.5849047069
C   C29       1.0  0.50730  0.12855  0.76013  1.0000 0.5860321663
C   C30       1.0  0.76013  0.50730  0.12855  1.0000 0.5849047069
C   C31       1.0  0.63158  0.87145  0.37875  1.0000 0.5849047069
C   C32       1.0  0.36842  0.74717  0.23987  1.0000 0.5860321663
C   C33       1.0  0.37875  0.63158  0.87145  1.0000 0.5860321663
C   C34       1.0  0.12855  0.76013  0.50730  1.0000 0.5860321663
C   C35       1.0  0.74717  0.23987  0.36842  1.0000 0.5860321663
C   C36       1.0  0.87145  0.37875  0.63158  1.0000 0.5860321663
C   C37       1.0  0.74717  0.37875  0.50730  1.0000 0.5849047069
C   C38       1.0  0.50730  0.74717  0.37875  1.0000 0.5849047069
C   C39       1.0  0.37875  0.50730  0.74717  1.0000 0.5860321663
C   C40       1.0  0.76013  0.63158  0.25283  1.0000 0.5860321663
C   C41       1.0  0.49270  0.87145  0.23987  1.0000 0.5860321663
C   C42       1.0  0.23987  0.49270  0.87145  1.0000 0.5860321663
C   C43       1.0  0.36842  0.12855  0.62125  1.0000 0.5849047069
C   C44       1.0  0.63158  0.25283  0.76013  1.0000 0.5860321663
C   C45       1.0  0.62125  0.36842  0.12855  1.0000 0.5860321663
C   C46       1.0  0.87145  0.23987  0.49270  1.0000 0.5860321663
C   C47       1.0  0.25283  0.76013  0.63158  1.0000 0.5849047069
C   C48       1.0  0.12855  0.62125  0.36842  1.0000 0.5860321663
C   C49       1.0  0.25648  0.50954  0.46722  1.0000 -0.0880861493
C   C50       1.0  0.46722  0.25648  0.50954  1.0000 -0.0880861493
C   C51       1.0  0.50954  0.46722  0.25648  1.0000 -0.0880861493
C   C52       1.0  0.21074  0.25306  0.74352  1.0000 -0.0880861493
C   C53       1.0  0.53278  0.04232  0.78926  1.0000 -0.0880861493
C   C54       1.0  0.78926  0.53278  0.04232  1.0000 -0.0880861493
C   C55       1.0  0.74694  0.95768  0.49046  1.0000 -0.0880861493
C   C56       1.0  0.25306  0.74352  0.21074  1.0000 -0.0880861493
C   C57       1.0  0.49046  0.74694  0.95768  1.0000 -0.0880861493
C   C58       1.0  0.04232  0.78926  0.53278  1.0000 -0.0880861493
C   C59       1.0  0.74352  0.21074  0.25306  1.0000 -0.0880861493
C   C60       1.0  0.95768  0.49046  0.74694  1.0000 -0.0880861493
C   C61       1.0  0.74352  0.49046  0.53278  1.0000 -0.0880861493
C   C62       1.0  0.53278  0.74352  0.49046  1.0000 -0.0880861493
C   C63       1.0  0.49046  0.53278  0.74352  1.0000 -0.0880861493
C   C64       1.0  0.78926  0.74694  0.25648  1.0000 -0.0880861493
C   C65       1.0  0.46722  0.95768  0.21074  1.0000 -0.0880861493
C   C66       1.0  0.21074  0.46722  0.95768  1.0000 -0.0880861493
C   C67       1.0  0.25306  0.04232  0.50954  1.0000 -0.0880861493
C   C68       1.0  0.74694  0.25648  0.78926  1.0000 -0.0880861493
C   C69       1.0  0.50954  0.25306  0.04232  1.0000 -0.0880861493
C   C70       1.0  0.95768  0.21074  0.46722  1.0000 -0.0880861493
C   C71       1.0  0.25648  0.78926  0.74694  1.0000 -0.0880861493
C   C72       1.0  0.04232  0.50954  0.25306  1.0000 -0.0880861493
C   C73       1.0  0.37127  0.56088  0.44965  1.0000 -0.1620160074
C   C74       1.0  0.44965  0.37127  0.56088  1.0000 -0.1620160074
C   C75       1.0  0.56088  0.44965  0.37127  1.0000 -0.1620160074
C   C76       1.0  0.07838  0.18961  0.62873  1.0000 -0.1620160074
C   C77       1.0  0.55035  0.11123  0.92162  1.0000 -0.1620160074
C   C78       1.0  0.92162  0.55035  0.11123  1.0000 -0.1620160074
C   C79       1.0  0.81039  0.88877  0.43912  1.0000 -0.1620160074
C   C80       1.0  0.18961  0.62873  0.07838  1.0000 -0.1620160074
C   C81       1.0  0.43912  0.81039  0.88877  1.0000 -0.1620160074
C   C82       1.0  0.11123  0.92162  0.55035  1.0000 -0.1620160074
C   C83       1.0  0.62873  0.07838  0.18961  1.0000 -0.1620160074
C   C84       1.0  0.88877  0.43912  0.81039  1.0000 -0.1620160074
C   C85       1.0  0.62873  0.43912  0.55035  1.0000 -0.1620160074
C   C86       1.0  0.55035  0.62873  0.43912  1.0000 -0.1620160074
C   C87       1.0  0.43912  0.55035  0.62873  1.0000 -0.1620160074
C   C88       1.0  0.92162  0.81039  0.37127  1.0000 -0.1620160074
C   C89       1.0  0.44965  0.88877  0.07838  1.0000 -0.1620160074
C   C90       1.0  0.07838  0.44965  0.88877  1.0000 -0.1620160074
C   C91       1.0  0.18961  0.11123  0.56088  1.0000 -0.1620160074
C   C92       1.0  0.81039  0.37127  0.92162  1.0000 -0.1620160074
C   C93       1.0  0.56088  0.18961  0.11123  1.0000 -0.1620160074
C   C94       1.0  0.88877  0.07838  0.44965  1.0000 -0.1620160074
C   C95       1.0  0.37127  0.92162  0.81039  1.0000 -0.1620160074
C   C96       1.0  0.11123  0.56088  0.18961  1.0000 -0.1620160074
C   C97       1.0  0.28589  0.46732  0.44943  1.0000 -0.1620160074
C   C98       1.0  0.44943  0.28589  0.46732  1.0000 -0.1620160074
C   C99       1.0  0.46732  0.44943  0.28589  1.0000 -0.1620160074
C   C100      1.0  0.16354  0.18143  0.71411  1.0000 -0.1620160074
C   C101      1.0  0.55057  0.01789  0.83646  1.0000 -0.1620160074
C   C102      1.0  0.83646  0.55057  0.01789  1.0000 -0.1620160074
C   C103      1.0  0.81857  0.98211  0.53268  1.0000 -0.1620160074
C   C104      1.0  0.18143  0.71411  0.16354  1.0000 -0.1620160074
C   C105      1.0  0.53268  0.81857  0.98211  1.0000 -0.1620160074
C   C106      1.0  0.01789  0.83646  0.55057  1.0000 -0.1620160074
C   C107      1.0  0.71411  0.16354  0.18143  1.0000 -0.1620160074
C   C108      1.0  0.98211  0.53268  0.81857  1.0000 -0.1620160074
C   C109      1.0  0.71411  0.53268  0.55057  1.0000 -0.1620160074
C   C110      1.0  0.55057  0.71411  0.53268  1.0000 -0.1620160074
C   C111      1.0  0.53268  0.55057  0.71411  1.0000 -0.1620160074
C   C112      1.0  0.83646  0.81857  0.28589  1.0000 -0.1620160074
C   C113      1.0  0.44943  0.98211  0.16354  1.0000 -0.1620160074
C   C114      1.0  0.16354  0.44943  0.98211  1.0000 -0.1620160074
C   C115      1.0  0.18143  0.01789  0.46732  1.0000 -0.1620160074
C   C116      1.0  0.81857  0.28589  0.83646  1.0000 -0.1620160074
C   C117      1.0  0.46732  0.18143  0.01789  1.0000 -0.1620160074
C   C118      1.0  0.98211  0.16354  0.44943  1.0000 -0.1620160074
C   C119      1.0  0.28589  0.83646  0.81857  1.0000 -0.1620160074
C   C120      1.0  0.01789  0.46732  0.18143  1.0000 -0.1620160074
C   C121      1.0  0.34232  0.60197  0.46815  1.0000 -0.0880861493
C   C122      1.0  0.46815  0.34232  0.60197  1.0000 -0.0880861493
C   C123      1.0  0.60197  0.46815  0.34232  1.0000 -0.0880861493
C   C124      1.0  0.12583  0.25965  0.65768  1.0000 -0.0880861493
C   C125      1.0  0.53185  0.13382  0.87417  1.0000 -0.0880861493
C   C126      1.0  0.87417  0.53185  0.13382  1.0000 -0.0880861493
C   C127      1.0  0.74035  0.86618  0.39803  1.0000 -0.0880861493
C   C128      1.0  0.25965  0.65768  0.12583  1.0000 -0.0880861493
C   C129      1.0  0.39803  0.74035  0.86618  1.0000 -0.0880861493
C   C130      1.0  0.13382  0.87417  0.53185  1.0000 -0.0880861493
C   C131      1.0  0.65768  0.12583  0.25965  1.0000 -0.0880861493
C   C132      1.0  0.86618  0.39803  0.74035  1.0000 -0.0880861493
C   C133      1.0  0.65768  0.39803  0.53185  1.0000 -0.0880861493
C   C134      1.0  0.53185  0.65768  0.39803  1.0000 -0.0880861493
C   C135      1.0  0.39803  0.53185  0.65768  1.0000 -0.0880861493
C   C136      1.0  0.87417  0.74035  0.34232  1.0000 -0.0880861493
C   C137      1.0  0.46815  0.86618  0.12583  1.0000 -0.0880861493
C   C138      1.0  0.12583  0.46815  0.86618  1.0000 -0.0880861493
C   C139      1.0  0.25965  0.13382  0.60197  1.0000 -0.0880861493
C   C140      1.0  0.74035  0.34232  0.87417  1.0000 -0.0880861493
C   C141      1.0  0.60197  0.25965  0.13382  1.0000 -0.0880861493
C   C142      1.0  0.86618  0.12583  0.46815  1.0000 -0.0880861493
C   C143      1.0  0.34232  0.87417  0.74035  1.0000 -0.0880861493
C   C144      1.0  0.13382  0.60197  0.25965  1.0000 -0.0880861493
C   C145      1.0  0.41198  0.45856  0.38672  1.0000 -0.1954534674
C   C146      1.0  0.38672  0.41198  0.45856  1.0000 -0.1954534674
C   C147      1.0  0.45856  0.38672  0.41198  1.0000 -0.1954534674
C   C148      1.0  0.97474  0.04658  0.58802  1.0000 -0.1954534674
C   C149      1.0  0.61328  0.07184  0.02526  1.0000 -0.1954534674
C   C150      1.0  0.02526  0.61328  0.07184  1.0000 -0.1954534674
C   C151      1.0  0.95342  0.92816  0.54144  1.0000 -0.1954534674
C   C152      1.0  0.04658  0.58802  0.97474  1.0000 -0.1954534674
C   C153      1.0  0.54144  0.95342  0.92816  1.0000 -0.1954534674
C   C154      1.0  0.07184  0.02526  0.61328  1.0000 -0.1954534674
C   C155      1.0  0.58802  0.97474  0.04658  1.0000 -0.1954534674
C   C156      1.0  0.92816  0.54144  0.95342  1.0000 -0.1954534674
C   C157      1.0  0.58802  0.54144  0.61328  1.0000 -0.1954534674
C   C158      1.0  0.61328  0.58802  0.54144  1.0000 -0.1954534674
C   C159      1.0  0.54144  0.61328  0.58802  1.0000 -0.1954534674
C   C160      1.0  0.02526  0.95342  0.41198  1.0000 -0.1954534674
C   C161      1.0  0.38672  0.92816  0.97474  1.0000 -0.1954534674
C   C162      1.0  0.97474  0.38672  0.92816  1.0000 -0.1954534674
C   C163      1.0  0.04658  0.07184  0.45856  1.0000 -0.1954534674
C   C164      1.0  0.95342  0.41198  0.02526  1.0000 -0.1954534674
C   C165      1.0  0.45856  0.04658  0.07184  1.0000 -0.1954534674
C   C166      1.0  0.92816  0.97474  0.38672  1.0000 -0.1954534674
C   C167      1.0  0.41198  0.02526  0.95342  1.0000 -0.1954534674
C   C168      1.0  0.07184  0.45856  0.04658  1.0000 -0.1954534674
C   C169      1.0  0.28494  0.57666  0.47686  1.0000 -0.0374498987
C   C170      1.0  0.47686  0.28494  0.57666  1.0000 -0.0374498987
C   C171      1.0  0.57666  0.47686  0.28494  1.0000 -0.0374498987
C   C172      1.0  0.19192  0.29172  0.71506  1.0000 -0.0374498987
C   C173      1.0  0.52314  0.09980  0.80808  1.0000 -0.0374498987
C   C174      1.0  0.80808  0.52314  0.09980  1.0000 -0.0374498987
C   C175      1.0  0.70828  0.90020  0.42334  1.0000 -0.0374498987
C   C176      1.0  0.29172  0.71506  0.19192  1.0000 -0.0374498987
C   C177      1.0  0.42334  0.70828  0.90020  1.0000 -0.0374498987
C   C178      1.0  0.09980  0.80808  0.52314  1.0000 -0.0374498987
C   C179      1.0  0.71506  0.19192  0.29172  1.0000 -0.0374498987
C   C180      1.0  0.90020  0.42334  0.70828  1.0000 -0.0374498987
C   C181      1.0  0.71506  0.42334  0.52314  1.0000 -0.0374498987
C   C182      1.0  0.52314  0.71506  0.42334  1.0000 -0.0374498987
C   C183      1.0  0.42334  0.52314  0.71506  1.0000 -0.0374498987
C   C184      1.0  0.80808  0.70828  0.28494  1.0000 -0.0374498987
C   C185      1.0  0.47686  0.90020  0.19192  1.0000 -0.0374498987
C   C186      1.0  0.19192  0.47686  0.90020  1.0000 -0.0374498987
C   C187      1.0  0.29172  0.09980  0.57666  1.0000 -0.0374498987
C   C188      1.0  0.70828  0.28494  0.80808  1.0000 -0.0374498987
C   C189      1.0  0.57666  0.29172  0.09980  1.0000 -0.0374498987
C   C190      1.0  0.90020  0.19192  0.47686  1.0000 -0.0374498987
C   C191      1.0  0.28494  0.80808  0.70828  1.0000 -0.0374498987
C   C192      1.0  0.09980  0.57666  0.29172  1.0000 -0.0374498987
C   C193      1.0  0.37981  0.45210  0.42695  1.0000 0.0774113586
C   C194      1.0  0.42695  0.37981  0.45210  1.0000 0.0774113586
C   C195      1.0  0.45210  0.42695  0.37981  1.0000 0.0774113586
C   C196      1.0  0.04714  0.07229  0.62019  1.0000 0.0774113586
C   C197      1.0  0.57305  0.02515  0.95286  1.0000 0.0774113586
C   C198      1.0  0.95286  0.57305  0.02515  1.0000 0.0774113586
C   C199      1.0  0.92771  0.97485  0.54790  1.0000 0.0774113586
C   C200      1.0  0.07229  0.62019  0.04714  1.0000 0.0774113586
C   C201      1.0  0.54790  0.92771  0.97485  1.0000 0.0774113586
C   C202      1.0  0.02515  0.95286  0.57305  1.0000 0.0774113586
C   C203      1.0  0.62019  0.04714  0.07229  1.0000 0.0774113586
C   C204      1.0  0.97485  0.54790  0.92771  1.0000 0.0774113586
C   C205      1.0  0.62019  0.54790  0.57305  1.0000 0.0774113586
C   C206      1.0  0.57305  0.62019  0.54790  1.0000 0.0774113586
C   C207      1.0  0.54790  0.57305  0.62019  1.0000 0.0774113586
C   C208      1.0  0.95286  0.92771  0.37981  1.0000 0.0774113586
C   C209      1.0  0.42695  0.97485  0.04714  1.0000 0.0774113586
C   C210      1.0  0.04714  0.42695  0.97485  1.0000 0.0774113586
C   C211      1.0  0.07229  0.02515  0.45210  1.0000 0.0774113586
C   C212      1.0  0.92771  0.37981  0.95286  1.0000 0.0774113586
C   C213      1.0  0.45210  0.07229  0.02515  1.0000 0.0774113586
C   C214      1.0  0.97485  0.04714  0.42695  1.0000 0.0774113586
C   C215      1.0  0.37981  0.95286  0.92771  1.0000 0.0774113586
C   C216      1.0  0.02515  0.45210  0.07229  1.0000 0.0774113586
O   O1        1.0  0.19902  0.59643  0.49775  1.0000 -0.5104373587
O   O2        1.0  0.49775  0.19902  0.59643  1.0000 -0.5104373587
O   O3        1.0  0.59643  0.49775  0.19902  1.0000 -0.5104373587
O   O4        1.0  0.29873  0.39741  0.80098  1.0000 -0.5104373587
O   O5        1.0  0.50225  0.09868  0.70127  1.0000 -0.5104373587
O   O6        1.0  0.70127  0.50225  0.09868  1.0000 -0.5104373587
O   O7        1.0  0.60259  0.90132  0.40357  1.0000 -0.5104373587
O   O8        1.0  0.39741  0.80098  0.29873  1.0000 -0.5104373587
O   O9        1.0  0.40357  0.60259  0.90132  1.0000 -0.5104373587
O   O10       1.0  0.09868  0.70127  0.50225  1.0000 -0.5104373587
O   O11       1.0  0.80098  0.29873  0.39741  1.0000 -0.5104373587
O   O12       1.0  0.90132  0.40357  0.60259  1.0000 -0.5104373587
O   O13       1.0  0.80098  0.40357  0.50225  1.0000 -0.5104373587
O   O14       1.0  0.50225  0.80098  0.40357  1.0000 -0.5104373587
O   O15       1.0  0.40357  0.50225  0.80098  1.0000 -0.5104373587
O   O16       1.0  0.70127  0.60259  0.19902  1.0000 -0.5104373587
O   O17       1.0  0.49775  0.90132  0.29873  1.0000 -0.5104373587
O   O18       1.0  0.29873  0.49775  0.90132  1.0000 -0.5104373587
O   O19       1.0  0.39741  0.09868  0.59643  1.0000 -0.5104373587
O   O20       1.0  0.60259  0.19902  0.70127  1.0000 -0.5104373587
O   O21       1.0  0.59643  0.39741  0.09868  1.0000 -0.5104373587
O   O22       1.0  0.90132  0.29873  0.49775  1.0000 -0.5104373587
O   O23       1.0  0.19902  0.70127  0.60259  1.0000 -0.5104373587
O   O24       1.0  0.09868  0.59643  0.39741  1.0000 -0.5104373587
O   O25       1.0  0.28064  0.67985  0.49769  1.0000 -0.5198406868
O   O26       1.0  0.49769  0.28064  0.67985  1.0000 -0.5198406868
O   O27       1.0  0.67985  0.49769  0.28064  1.0000 -0.5198406868
O   O28       1.0  0.21705  0.39921  0.71936  1.0000 -0.5198406868
O   O29       1.0  0.50231  0.18216  0.78295  1.0000 -0.5198406868
O   O30       1.0  0.78295  0.50231  0.18216  1.0000 -0.5198406868
O   O31       1.0  0.60079  0.81784  0.32015  1.0000 -0.5198406868
O   O32       1.0  0.39921  0.71936  0.21705  1.0000 -0.5198406868
O   O33       1.0  0.32015  0.60079  0.81784  1.0000 -0.5198406868
O   O34       1.0  0.18216  0.78295  0.50231  1.0000 -0.5198406868
O   O35       1.0  0.71936  0.21705  0.39921  1.0000 -0.5198406868
O   O36       1.0  0.81784  0.32015  0.60079  1.0000 -0.5198406868
O   O37       1.0  0.71936  0.32015  0.50231  1.0000 -0.5198406868
O   O38       1.0  0.50231  0.71936  0.32015  1.0000 -0.5198406868
O   O39       1.0  0.32015  0.50231  0.71936  1.0000 -0.5198406868
O   O40       1.0  0.78295  0.60079  0.28064  1.0000 -0.5198406868
O   O41       1.0  0.49769  0.81784  0.21705  1.0000 -0.5198406868
O   O42       1.0  0.21705  0.49769  0.81784  1.0000 -0.5198406868
O   O43       1.0  0.39921  0.18216  0.67985  1.0000 -0.5198406868
O   O44       1.0  0.60079  0.28064  0.78295  1.0000 -0.5198406868
O   O45       1.0  0.67985  0.39921  0.18216  1.0000 -0.5198406868
O   O46       1.0  0.81784  0.21705  0.49769  1.0000 -0.5198406868
O   O47       1.0  0.28064  0.78295  0.60079  1.0000 -0.5198406868
O   O48       1.0  0.18216  0.67985  0.39921  1.0000 -0.5198406868
