# DDEC6 charges by PACMAN v1.1 (https://github.com/mtap-research/PACMAN-charge/)
data_2014[Mg][pts]3[ASR]2
_chemical_formula_sum              "Mg2 H8 C16 O12"
_cell_length_a       9.79837
_cell_length_b       9.79837
_cell_length_c       8.8045
_cell_angle_alpha    73.5897
_cell_angle_beta     106.41
_cell_angle_gamma    89.0449

_symmetry_space_group_name_H-M    "P 1"
_symmetry_Int_Tables_number       1

loop_
  _symmetry_equiv_pos_as_xyz
  'x, y, z'

loop_
  _atom_site_type_symbol
  _atom_site_label
  _atom_site_symmetry_multiplicity
  _atom_site_fract_x
  _atom_site_fract_y
  _atom_site_fract_z
  _atom_site_occupancy
  _atom_site_charge
Mg  Mg1       1.0  0.42220  0.42220  0.75000  1.0000 1.3736445574
Mg  Mg2       1.0  0.57780  0.57780  0.25000  1.0000 1.3736445574
H   H1        1.0  0.26590  0.56030  0.26210  1.0000 0.3423163263
H   H2        1.0  0.56030  0.26590  0.23790  1.0000 0.3423163263
H   H3        1.0  0.73410  0.43970  0.73790  1.0000 0.3423163263
H   H4        1.0  0.43970  0.73410  0.76210  1.0000 0.3423163263
H   H5        1.0  0.07540  0.47580  0.78180  1.0000 0.1313395022
H   H6        1.0  0.47580  0.07540  0.71820  1.0000 0.1313395022
H   H7        1.0  0.92460  0.52420  0.21820  1.0000 0.1313395022
H   H8        1.0  0.52420  0.92460  0.28180  1.0000 0.1313395022
C   C1        1.0  0.29335  0.53513  0.99900  1.0000 0.6623188822
C   C2        1.0  0.53513  0.29335  0.50100  1.0000 0.6623188822
C   C3        1.0  0.70665  0.46487  0.00100  1.0000 0.6623188822
C   C4        1.0  0.46487  0.70665  0.49900  1.0000 0.6623188822
C   C5        1.0  0.14228  0.51618  0.00150  1.0000 -0.1571806104
C   C6        1.0  0.51618  0.14228  0.49850  1.0000 -0.1571806104
C   C7        1.0  0.85772  0.48382  0.99850  1.0000 -0.1571806104
C   C8        1.0  0.48382  0.85772  0.50150  1.0000 -0.1571806104
C   C9        1.0  0.04531  0.48557  0.86960  1.0000 -0.204863611
C   C10       1.0  0.48557  0.04531  0.63040  1.0000 -0.204863611
C   C11       1.0  0.95469  0.51443  0.13040  1.0000 -0.204863611
C   C12       1.0  0.51443  0.95469  0.36960  1.0000 -0.204863611
C   C13       1.0  0.09530  0.53062  0.13360  1.0000 0.254344639
C   C14       1.0  0.53062  0.09530  0.36640  1.0000 0.254344639
C   C15       1.0  0.90470  0.46938  0.86640  1.0000 0.254344639
C   C16       1.0  0.46938  0.90470  0.63360  1.0000 0.254344639
O   O1        1.0  0.33110  0.51492  0.88436  1.0000 -0.6328784706
O   O2        1.0  0.51492  0.33110  0.61564  1.0000 -0.6328784706
O   O3        1.0  0.66890  0.48508  0.11564  1.0000 -0.6328784706
O   O4        1.0  0.48508  0.66890  0.38436  1.0000 -0.6328784706
O   O5        1.0  0.37180  0.57592  0.11511  1.0000 -0.6462712915
O   O6        1.0  0.57592  0.37180  0.38489  1.0000 -0.6462712915
O   O7        1.0  0.62820  0.42408  0.88489  1.0000 -0.6462712915
O   O8        1.0  0.42408  0.62820  0.61511  1.0000 -0.6462712915
O   O9        1.0  0.18361  0.56237  0.26724  1.0000 -0.436528815
O   O10       1.0  0.56237  0.18361  0.23276  1.0000 -0.436528815
O   O11       1.0  0.81639  0.43763  0.73276  1.0000 -0.436528815
O   O12       1.0  0.43763  0.81639  0.76724  1.0000 -0.4342041345
