# DDEC6 charges by PACMAN v1.1 (https://github.com/mtap-research/PACMAN-charge/)
data_2014[Zn][nan]3[ASR]34
_chemical_formula_sum              "Zn8 P12 H52 C24 O36"
_cell_length_a       10.3937
_cell_length_b       17.313
_cell_length_c       10.5536
_cell_angle_alpha    90
_cell_angle_beta     99.502
_cell_angle_gamma    90

_symmetry_space_group_name_H-M    "P 1"
_symmetry_Int_Tables_number       1

loop_
  _symmetry_equiv_pos_as_xyz
  'x, y, z'

loop_
  _atom_site_type_symbol
  _atom_site_label
  _atom_site_symmetry_multiplicity
  _atom_site_fract_x
  _atom_site_fract_y
  _atom_site_fract_z
  _atom_site_occupancy
  _atom_site_charge
Zn  Zn1       1.0  0.17769  0.83481  0.84870  1.0000 1.0914876566
Zn  Zn2       1.0  0.32231  0.33481  0.15130  1.0000 1.0914876566
Zn  Zn3       1.0  0.82231  0.16519  0.15130  1.0000 1.0914876566
Zn  Zn4       1.0  0.67769  0.66519  0.84870  1.0000 1.0914876566
Zn  Zn5       1.0  0.88362  0.83276  0.05002  1.0000 1.0914876566
Zn  Zn6       1.0  0.61638  0.33276  0.94998  1.0000 1.0962546374
Zn  Zn7       1.0  0.11638  0.16724  0.94998  1.0000 1.0962546374
Zn  Zn8       1.0  0.38362  0.66724  0.05002  1.0000 1.0914876566
P   P1        1.0  0.67400  0.71375  0.13000  1.0000 1.3567291405
P   P2        1.0  0.82600  0.21375  0.87000  1.0000 1.3567291405
P   P3        1.0  0.32600  0.28625  0.87000  1.0000 1.3567291405
P   P4        1.0  0.17400  0.78625  0.13000  1.0000 1.3567291405
P   P5        1.0  0.90000  0.77330  0.77440  1.0000 1.3461333718
P   P6        1.0  0.60000  0.27330  0.22560  1.0000 1.3461333718
P   P7        1.0  0.10000  0.22670  0.22560  1.0000 1.3461333718
P   P8        1.0  0.40000  0.72670  0.77440  1.0000 1.3461333718
P   P9        1.0  0.93660  0.99100  0.21080  1.0000 1.3285201098
P   P10       1.0  0.56340  0.49100  0.78920  1.0000 1.3285201098
P   P11       1.0  0.06340  0.00900  0.78920  1.0000 1.3285201098
P   P12       1.0  0.43660  0.50900  0.21080  1.0000 1.3285201098
H   H1        1.0  0.92600  0.73710  0.49850  1.0000 0.1197282681
H   H2        1.0  0.57400  0.23710  0.50150  1.0000 0.1197282681
H   H3        1.0  0.07400  0.26290  0.50150  1.0000 0.1197282681
H   H4        1.0  0.42600  0.76290  0.49850  1.0000 0.1197282681
H   H5        1.0  0.82070  0.68110  0.54500  1.0000 0.1197282681
H   H6        1.0  0.67930  0.18110  0.45500  1.0000 0.1197282681
H   H7        1.0  0.17930  0.31890  0.45500  1.0000 0.1197282681
H   H8        1.0  0.32070  0.81890  0.54500  1.0000 0.1197282681
H   H9        1.0  0.72100  0.79490  0.62270  1.0000 0.1652816924
H   H10       1.0  0.77900  0.29490  0.37730  1.0000 0.1652816924
H   H11       1.0  0.27900  0.20510  0.37730  1.0000 0.1652816924
H   H12       1.0  0.22100  0.70510  0.62270  1.0000 0.1652816924
H   H13       1.0  0.84220  0.84380  0.59180  1.0000 0.1587554085
H   H14       1.0  0.65780  0.34380  0.40820  1.0000 0.1587554085
H   H15       1.0  0.15780  0.15620  0.40820  1.0000 0.1587554085
H   H16       1.0  0.34220  0.65620  0.59180  1.0000 0.1587554085
H   H17       1.0  0.75590  0.80010  0.35970  1.0000 0.1197282681
H   H18       1.0  0.74410  0.30010  0.64030  1.0000 0.1197282681
H   H19       1.0  0.24410  0.19990  0.64030  1.0000 0.1197282681
H   H20       1.0  0.25590  0.69990  0.35970  1.0000 0.1197282681
H   H21       1.0  0.65360  0.74090  0.40350  1.0000 0.1197282681
H   H22       1.0  0.84640  0.24090  0.59650  1.0000 0.1197282681
H   H23       1.0  0.34640  0.25910  0.59650  1.0000 0.1197282681
H   H24       1.0  0.15360  0.75910  0.40350  1.0000 0.1197282681
H   H25       1.0  0.86240  0.69120  0.27490  1.0000 0.1587554085
H   H26       1.0  0.63760  0.19120  0.72510  1.0000 0.1587554085
H   H27       1.0  0.13760  0.30880  0.72510  1.0000 0.1587554085
H   H28       1.0  0.36240  0.80880  0.27490  1.0000 0.1587554085
H   H29       1.0  0.74680  0.63720  0.30660  1.0000 0.1587554085
H   H30       1.0  0.75320  0.13720  0.69340  1.0000 0.1587554085
H   H31       1.0  0.25320  0.36280  0.69340  1.0000 0.1587554085
H   H32       1.0  0.24680  0.86280  0.30660  1.0000 0.1587554085
H   H33       1.0  0.08110  0.06190  0.18140  1.0000 0.3942037429
H   H34       1.0  0.41890  0.56190  0.81860  1.0000 0.3942037429
H   H35       1.0  0.91890  0.93810  0.81860  1.0000 0.3942037429
H   H36       1.0  0.58110  0.43810  0.18140  1.0000 0.3942037429
H   H37       1.0  0.11910  0.97930  0.45360  1.0000 0.1125885704
H   H38       1.0  0.38090  0.47930  0.54640  1.0000 0.1125885704
H   H39       1.0  0.88090  0.02070  0.54640  1.0000 0.1125885704
H   H40       1.0  0.61910  0.52070  0.45360  1.0000 0.1125885704
H   H41       1.0  0.04650  0.92350  0.54010  1.0000 0.1125885704
H   H42       1.0  0.45350  0.42350  0.45990  1.0000 0.1125885704
H   H43       1.0  0.95350  0.07650  0.45990  1.0000 0.1125885704
H   H44       1.0  0.54650  0.57650  0.54010  1.0000 0.1125885704
H   H45       1.0  0.86030  0.92240  0.37070  1.0000 0.1587554085
H   H46       1.0  0.63970  0.42240  0.62930  1.0000 0.1587554085
H   H47       1.0  0.13970  0.07760  0.62930  1.0000 0.1587554085
H   H48       1.0  0.36030  0.57760  0.37070  1.0000 0.1587554085
H   H49       1.0  0.98590  0.88110  0.33290  1.0000 0.1587554085
H   H50       1.0  0.51410  0.38110  0.66710  1.0000 0.1587554085
H   H51       1.0  0.01410  0.11890  0.66710  1.0000 0.1587554085
H   H52       1.0  0.48590  0.61890  0.33290  1.0000 0.1587554085
C   C1        1.0  0.83470  0.73390  0.51380  1.0000 -0.0968177189
C   C2        1.0  0.66530  0.23390  0.48620  1.0000 -0.0968177189
C   C3        1.0  0.16530  0.26610  0.48620  1.0000 -0.0968177189
C   C4        1.0  0.33470  0.76610  0.51380  1.0000 -0.0968177189
C   C5        1.0  0.81530  0.79220  0.61850  1.0000 -0.4764028434
C   C6        1.0  0.68470  0.29220  0.38150  1.0000 -0.4764028434
C   C7        1.0  0.18470  0.20780  0.38150  1.0000 -0.4764028434
C   C8        1.0  0.31530  0.70780  0.61850  1.0000 -0.4764028434
C   C9        1.0  0.74480  0.74660  0.38900  1.0000 -0.106177983
C   C10       1.0  0.75520  0.24660  0.61100  1.0000 -0.106177983
C   C11       1.0  0.25520  0.25340  0.61100  1.0000 -0.106177983
C   C12       1.0  0.24480  0.75340  0.38900  1.0000 -0.106177983
C   C13       1.0  0.76870  0.69030  0.28240  1.0000 -0.4676565845
C   C14       1.0  0.73130  0.19030  0.71760  1.0000 -0.4676565845
C   C15       1.0  0.23130  0.30970  0.71760  1.0000 -0.4676565845
C   C16       1.0  0.26870  0.80970  0.28240  1.0000 -0.4676565845
C   C17       1.0  0.03270  0.96420  0.47340  1.0000 -0.106177983
C   C18       1.0  0.46730  0.46420  0.52660  1.0000 -0.106177983
C   C19       1.0  0.96730  0.03580  0.52660  1.0000 -0.106177983
C   C20       1.0  0.53270  0.53580  0.47340  1.0000 -0.106177983
C   C21       1.0  0.94930  0.93170  0.35220  1.0000 -0.4764028434
C   C22       1.0  0.55070  0.43170  0.64780  1.0000 -0.4764028434
C   C23       1.0  0.05070  0.06830  0.64780  1.0000 -0.4764028434
C   C24       1.0  0.44930  0.56830  0.35220  1.0000 -0.4764028434
O   O1        1.0  0.87660  0.84030  0.86410  1.0000 -0.7812189553
O   O2        1.0  0.62340  0.34030  0.13590  1.0000 -0.7812189553
O   O3        1.0  0.12340  0.15970  0.13590  1.0000 -0.7812189553
O   O4        1.0  0.37660  0.65970  0.86410  1.0000 -0.7812189553
O   O5        1.0  0.69680  0.65000  0.03280  1.0000 -0.7508266987
O   O6        1.0  0.80320  0.15000  0.96720  1.0000 -0.7508266987
O   O7        1.0  0.30320  0.35000  0.96720  1.0000 -0.7508266987
O   O8        1.0  0.19680  0.85000  0.03280  1.0000 -0.7620959018
O   O9        1.0  0.72100  0.79280  0.09040  1.0000 -0.7508266987
O   O10       1.0  0.77900  0.29280  0.90960  1.0000 -0.7508266987
O   O11       1.0  0.27900  0.20720  0.90960  1.0000 -0.7508266987
O   O12       1.0  0.22100  0.70720  0.09040  1.0000 -0.7508266987
O   O13       1.0  0.88230  0.94300  0.09630  1.0000 -0.7180164401
O   O14       1.0  0.61770  0.44300  0.90370  1.0000 -0.7180164401
O   O15       1.0  0.11770  0.05700  0.90370  1.0000 -0.7180164401
O   O16       1.0  0.38230  0.55700  0.09630  1.0000 -0.7180164401
O   O17       1.0  0.04400  0.76390  0.76820  1.0000 -0.7427528892
O   O18       1.0  0.45600  0.26390  0.23180  1.0000 -0.7427528892
O   O19       1.0  0.95600  0.23610  0.23180  1.0000 -0.7427528892
O   O20       1.0  0.54400  0.73610  0.76820  1.0000 -0.7427528892
O   O21       1.0  0.53120  0.71830  0.14570  1.0000 -0.7620959018
O   O22       1.0  0.96880  0.21830  0.85430  1.0000 -0.7620959018
O   O23       1.0  0.46880  0.28170  0.85430  1.0000 -0.7620959018
O   O24       1.0  0.03120  0.78170  0.14570  1.0000 -0.7620959018
O   O25       1.0  0.84960  0.69660  0.81990  1.0000 -0.7293993925
O   O26       1.0  0.65040  0.19660  0.18010  1.0000 -0.7293993925
O   O27       1.0  0.15040  0.30340  0.18010  1.0000 -0.7293993925
O   O28       1.0  0.34960  0.80340  0.81990  1.0000 -0.7293993925
O   O29       1.0  0.85160  0.06110  0.22390  1.0000 -0.7508266987
O   O30       1.0  0.64840  0.56110  0.77610  1.0000 -0.7508266987
O   O31       1.0  0.14840  0.93890  0.77610  1.0000 -0.7508266987
O   O32       1.0  0.35160  0.43890  0.22390  1.0000 -0.7508266987
O   O33       1.0  0.07980  0.01540  0.20390  1.0000 -0.554546902
O   O34       1.0  0.42020  0.51540  0.79610  1.0000 -0.5568074678
O   O35       1.0  0.92020  0.98460  0.79610  1.0000 -0.554546902
O   O36       1.0  0.57980  0.48460  0.20390  1.0000 -0.5568074678
