# DDEC6 charges by PACMAN v1.1 (https://github.com/mtap-research/PACMAN-charge/)
data_2014[Zn][nan]3[ASR]5
_chemical_formula_sum              "Zn6 H6 C24 O18"
_cell_length_a       15.1321
_cell_length_b       15.1321
_cell_length_c       15.1321
_cell_angle_alpha    117.798
_cell_angle_beta     117.798
_cell_angle_gamma    117.798

_symmetry_space_group_name_H-M    "P 1"
_symmetry_Int_Tables_number       1

loop_
  _symmetry_equiv_pos_as_xyz
  'x, y, z'

loop_
  _atom_site_type_symbol
  _atom_site_label
  _atom_site_symmetry_multiplicity
  _atom_site_fract_x
  _atom_site_fract_y
  _atom_site_fract_z
  _atom_site_occupancy
  _atom_site_charge
Zn  Zn1       1.0  0.11460  0.52720  0.78900  1.0000 0.9919225162
Zn  Zn2       1.0  0.52720  0.78900  0.11460  1.0000 0.9919225162
Zn  Zn3       1.0  0.78900  0.11460  0.52720  1.0000 0.9919225162
Zn  Zn4       1.0  0.88540  0.47280  0.21100  1.0000 0.9919225162
Zn  Zn5       1.0  0.47280  0.21100  0.88540  1.0000 0.9919225162
Zn  Zn6       1.0  0.21100  0.88540  0.47280  1.0000 0.9919225162
H   H1        1.0  0.66510  0.19590  0.64400  1.0000 0.149569977
H   H2        1.0  0.19590  0.64400  0.66510  1.0000 0.149569977
H   H3        1.0  0.64400  0.66510  0.19590  1.0000 0.149569977
H   H4        1.0  0.33490  0.80410  0.35600  1.0000 0.149569977
H   H5        1.0  0.80410  0.35600  0.33490  1.0000 0.149569977
H   H6        1.0  0.35600  0.33490  0.80410  1.0000 0.149569977
C   C1        1.0  0.36300  0.74960  0.18910  1.0000 0.65671564
C   C2        1.0  0.74960  0.18910  0.36300  1.0000 0.65671564
C   C3        1.0  0.18910  0.36300  0.74960  1.0000 0.65671564
C   C4        1.0  0.63700  0.25040  0.81090  1.0000 0.65671564
C   C5        1.0  0.25040  0.81090  0.63700  1.0000 0.65671564
C   C6        1.0  0.81090  0.63700  0.25040  1.0000 0.65671564
C   C7        1.0  0.16310  0.61070  0.07730  1.0000 -0.1434327775
C   C8        1.0  0.61070  0.07730  0.16310  1.0000 -0.1434327775
C   C9        1.0  0.07730  0.16310  0.61070  1.0000 -0.1434327775
C   C10       1.0  0.83690  0.38930  0.92270  1.0000 -0.1434327775
C   C11       1.0  0.38930  0.92270  0.83690  1.0000 -0.1434327775
C   C12       1.0  0.92270  0.83690  0.38930  1.0000 -0.1434327775
C   C13       1.0  0.97000  0.43500  0.87070  1.0000 0.2894366568
C   C14       1.0  0.43500  0.87070  0.97000  1.0000 0.2894366568
C   C15       1.0  0.87070  0.97000  0.43500  1.0000 0.2894366568
C   C16       1.0  0.03000  0.56500  0.12930  1.0000 0.2894366568
C   C17       1.0  0.56500  0.12930  0.03000  1.0000 0.2894366568
C   C18       1.0  0.12930  0.03000  0.56500  1.0000 0.2894366568
C   C19       1.0  0.79600  0.31690  0.78030  1.0000 -0.228444903
C   C20       1.0  0.31690  0.78030  0.79600  1.0000 -0.228444903
C   C21       1.0  0.78030  0.79600  0.31690  1.0000 -0.228444903
C   C22       1.0  0.20400  0.68310  0.21970  1.0000 -0.228444903
C   C23       1.0  0.68310  0.21970  0.20400  1.0000 -0.228444903
C   C24       1.0  0.21970  0.20400  0.68310  1.0000 -0.228444903
O   O1        1.0  0.34360  0.70320  0.07850  1.0000 -0.5745581203
O   O2        1.0  0.70320  0.07850  0.34360  1.0000 -0.5745581203
O   O3        1.0  0.07850  0.34360  0.70320  1.0000 -0.5745581203
O   O4        1.0  0.65640  0.29680  0.92150  1.0000 -0.5745581203
O   O5        1.0  0.29680  0.92150  0.65640  1.0000 -0.5745581203
O   O6        1.0  0.92150  0.65640  0.29680  1.0000 -0.5745581203
O   O7        1.0  0.53780  0.91130  0.38450  1.0000 -0.5335231834
O   O8        1.0  0.91130  0.38450  0.53780  1.0000 -0.5335231834
O   O9        1.0  0.38450  0.53780  0.91130  1.0000 -0.5335231834
O   O10       1.0  0.46220  0.08870  0.61550  1.0000 -0.5335231834
O   O11       1.0  0.08870  0.61550  0.46220  1.0000 -0.5335231834
O   O12       1.0  0.61550  0.46220  0.08870  1.0000 -0.5335231834
O   O13       1.0  0.93720  0.37030  0.74230  1.0000 -0.6076858058
O   O14       1.0  0.37030  0.74230  0.93720  1.0000 -0.6076858058
O   O15       1.0  0.74230  0.93720  0.37030  1.0000 -0.6076858058
O   O16       1.0  0.06280  0.62970  0.25770  1.0000 -0.6076858058
O   O17       1.0  0.62970  0.25770  0.06280  1.0000 -0.6076858058
O   O18       1.0  0.25770  0.06280  0.62970  1.0000 -0.6076858058
