# DDEC6 charges by PACMAN v1.1 (https://github.com/mtap-research/PACMAN-charge/)
data_2014[Cd][dia]3[ASR]4
_chemical_formula_sum              "Cd4 H56 C80 N16 O16"
_cell_length_a       11.6042
_cell_length_b       15.7981
_cell_length_c       16.1322
_cell_angle_alpha    90
_cell_angle_beta     90
_cell_angle_gamma    90

_symmetry_space_group_name_H-M    "P 1"
_symmetry_Int_Tables_number       1

loop_
  _symmetry_equiv_pos_as_xyz
  'x, y, z'

loop_
  _atom_site_type_symbol
  _atom_site_label
  _atom_site_symmetry_multiplicity
  _atom_site_fract_x
  _atom_site_fract_y
  _atom_site_fract_z
  _atom_site_occupancy
  _atom_site_charge
Cd  Cd1       1.0  0.67472  0.00000  0.75000  1.0000 0.8416959323
Cd  Cd2       1.0  0.17472  0.50000  0.25000  1.0000 0.8416959323
Cd  Cd3       1.0  0.82528  0.50000  0.75000  1.0000 0.8416959323
Cd  Cd4       1.0  0.32528  0.00000  0.25000  1.0000 0.8416959323
H   H1        1.0  0.43240  0.75670  0.85860  1.0000 0.1109018096
H   H2        1.0  0.43240  0.24330  0.64140  1.0000 0.1109018096
H   H3        1.0  0.93240  0.74330  0.35860  1.0000 0.1109018096
H   H4        1.0  0.93240  0.25670  0.14140  1.0000 0.1109018096
H   H5        1.0  0.36390  0.67610  0.96790  1.0000 0.1109018096
H   H6        1.0  0.36390  0.32390  0.53210  1.0000 0.1109018096
H   H7        1.0  0.86390  0.82390  0.46790  1.0000 0.1109018096
H   H8        1.0  0.86390  0.17610  0.03210  1.0000 0.1109018096
H   H9        1.0  0.48410  0.84940  0.12870  1.0000 0.1301775851
H   H10       1.0  0.48410  0.15060  0.37130  1.0000 0.1301775851
H   H11       1.0  0.98410  0.65060  0.62870  1.0000 0.1301775851
H   H12       1.0  0.98410  0.34940  0.87130  1.0000 0.1301775851
H   H13       1.0  0.54950  0.93130  0.01910  1.0000 0.1200337253
H   H14       1.0  0.54950  0.06870  0.48090  1.0000 0.1200337253
H   H15       1.0  0.04950  0.56870  0.51910  1.0000 0.1200337253
H   H16       1.0  0.04950  0.43130  0.98090  1.0000 0.1200337253
H   H17       1.0  0.29750  0.59620  0.08150  1.0000 0.1369800751
H   H18       1.0  0.29750  0.40380  0.41850  1.0000 0.1369800751
H   H19       1.0  0.79750  0.90380  0.58150  1.0000 0.1369800751
H   H20       1.0  0.79750  0.09620  0.91850  1.0000 0.1369800751
H   H21       1.0  0.33020  0.66800  0.31430  1.0000 0.1200337253
H   H22       1.0  0.33020  0.33200  0.18570  1.0000 0.1200337253
H   H23       1.0  0.83020  0.83200  0.81430  1.0000 0.1200337253
H   H24       1.0  0.83020  0.16800  0.68570  1.0000 0.1200337253
H   H25       1.0  0.42360  0.76840  0.23040  1.0000 0.2963731565
H   H26       1.0  0.42360  0.23160  0.26960  1.0000 0.2963731565
H   H27       1.0  0.92360  0.73160  0.73040  1.0000 0.2963731565
H   H28       1.0  0.92360  0.26840  0.76960  1.0000 0.2963731565
H   H29       1.0  0.06760  0.25670  0.64140  1.0000 0.1109018096
H   H30       1.0  0.06760  0.74330  0.85860  1.0000 0.1109018096
H   H31       1.0  0.56760  0.24330  0.14140  1.0000 0.1109018096
H   H32       1.0  0.56760  0.75670  0.35860  1.0000 0.1109018096
H   H33       1.0  0.13610  0.17610  0.53210  1.0000 0.1109018096
H   H34       1.0  0.13610  0.82390  0.96790  1.0000 0.1109018096
H   H35       1.0  0.63610  0.32390  0.03210  1.0000 0.1109018096
H   H36       1.0  0.63610  0.67610  0.46790  1.0000 0.1109018096
H   H37       1.0  0.01590  0.34940  0.37130  1.0000 0.1301775851
H   H38       1.0  0.01590  0.65060  0.12870  1.0000 0.1301775851
H   H39       1.0  0.51590  0.15060  0.87130  1.0000 0.1301775851
H   H40       1.0  0.51590  0.84940  0.62870  1.0000 0.1301775851
H   H41       1.0  0.95050  0.43130  0.48090  1.0000 0.1200337253
H   H42       1.0  0.95050  0.56870  0.01910  1.0000 0.1200337253
H   H43       1.0  0.45050  0.06870  0.98090  1.0000 0.1200337253
H   H44       1.0  0.45050  0.93130  0.51910  1.0000 0.1200337253
H   H45       1.0  0.20250  0.09620  0.41850  1.0000 0.1369800751
H   H46       1.0  0.20250  0.90380  0.08150  1.0000 0.1369800751
H   H47       1.0  0.70250  0.40380  0.91850  1.0000 0.1369800751
H   H48       1.0  0.70250  0.59620  0.58150  1.0000 0.1369800751
H   H49       1.0  0.16980  0.16800  0.18570  1.0000 0.1200337253
H   H50       1.0  0.16980  0.83200  0.31430  1.0000 0.1200337253
H   H51       1.0  0.66980  0.33200  0.68570  1.0000 0.1200337253
H   H52       1.0  0.66980  0.66800  0.81430  1.0000 0.1200337253
H   H53       1.0  0.07640  0.26840  0.26960  1.0000 0.2963731565
H   H54       1.0  0.07640  0.73160  0.23040  1.0000 0.2963731565
H   H55       1.0  0.57640  0.23160  0.76960  1.0000 0.2963731565
H   H56       1.0  0.57640  0.76840  0.73040  1.0000 0.2963731565
C   C1        1.0  0.55150  0.90130  0.85666  1.0000 0.5469913163
C   C2        1.0  0.55150  0.09870  0.64334  1.0000 0.5469913163
C   C3        1.0  0.05150  0.59870  0.35666  1.0000 0.5469913163
C   C4        1.0  0.05150  0.40130  0.14334  1.0000 0.5469913163
C   C5        1.0  0.49940  0.85150  0.92702  1.0000 -0.0319741725
C   C6        1.0  0.49940  0.14850  0.57298  1.0000 -0.0319741725
C   C7        1.0  0.99940  0.64850  0.42702  1.0000 -0.0319741725
C   C8        1.0  0.99940  0.35150  0.07298  1.0000 -0.0319741725
C   C9        1.0  0.44300  0.77540  0.91270  1.0000 -0.1197900719
C   C10       1.0  0.44300  0.22460  0.58730  1.0000 -0.1197900719
C   C11       1.0  0.94300  0.72460  0.41270  1.0000 -0.1197900719
C   C12       1.0  0.94300  0.27540  0.08730  1.0000 -0.1197900719
C   C13       1.0  0.40230  0.72670  0.97838  1.0000 -0.155551812
C   C14       1.0  0.40230  0.27330  0.52162  1.0000 -0.155551812
C   C15       1.0  0.90230  0.77330  0.47838  1.0000 -0.155551812
C   C16       1.0  0.90230  0.22670  0.02162  1.0000 -0.155551812
C   C17       1.0  0.41880  0.75368  0.06033  1.0000 0.0552992008
C   C18       1.0  0.41880  0.24632  0.43967  1.0000 0.0552992008
C   C19       1.0  0.91880  0.74632  0.56033  1.0000 0.0552992008
C   C20       1.0  0.91880  0.25368  0.93967  1.0000 0.0552992008
C   C21       1.0  0.47370  0.83050  0.07460  1.0000 -0.1413419399
C   C22       1.0  0.47370  0.16950  0.42540  1.0000 -0.1413419399
C   C23       1.0  0.97370  0.66950  0.57460  1.0000 -0.1413419399
C   C24       1.0  0.97370  0.33050  0.92540  1.0000 -0.1413419399
C   C25       1.0  0.51360  0.87970  0.00876  1.0000 -0.0913538396
C   C26       1.0  0.51360  0.12030  0.49124  1.0000 -0.0913538396
C   C27       1.0  0.01360  0.62030  0.50876  1.0000 -0.0913538396
C   C28       1.0  0.01360  0.37970  0.99124  1.0000 -0.0913538396
C   C29       1.0  0.37820  0.70214  0.12973  1.0000 0.1109018096
C   C30       1.0  0.37820  0.29786  0.37027  1.0000 0.1109018096
C   C31       1.0  0.87820  0.79786  0.62973  1.0000 0.1109018096
C   C32       1.0  0.87820  0.20214  0.87027  1.0000 0.1109018096
C   C33       1.0  0.31910  0.62614  0.12866  1.0000 -0.1015210667
C   C34       1.0  0.31910  0.37386  0.37134  1.0000 -0.1015210667
C   C35       1.0  0.81910  0.87386  0.62866  1.0000 -0.1015210667
C   C36       1.0  0.81910  0.12614  0.87134  1.0000 -0.1015210667
C   C37       1.0  0.33770  0.66560  0.25700  1.0000 0.1369800751
C   C38       1.0  0.33770  0.33440  0.24300  1.0000 0.1369800751
C   C39       1.0  0.83770  0.83440  0.75700  1.0000 0.1369800751
C   C40       1.0  0.83770  0.16560  0.74300  1.0000 0.1369800751
C   C41       1.0  0.94850  0.40130  0.64334  1.0000 0.5469913163
C   C42       1.0  0.94850  0.59870  0.85666  1.0000 0.5469913163
C   C43       1.0  0.44850  0.09870  0.14334  1.0000 0.5469913163
C   C44       1.0  0.44850  0.90130  0.35666  1.0000 0.5469913163
C   C45       1.0  0.00060  0.35150  0.57298  1.0000 -0.0319741725
C   C46       1.0  0.00060  0.64850  0.92702  1.0000 -0.0319741725
C   C47       1.0  0.50060  0.14850  0.07298  1.0000 -0.0319741725
C   C48       1.0  0.50060  0.85150  0.42702  1.0000 -0.0319741725
C   C49       1.0  0.05700  0.27540  0.58730  1.0000 -0.1197900719
C   C50       1.0  0.05700  0.72460  0.91270  1.0000 -0.1197900719
C   C51       1.0  0.55700  0.22460  0.08730  1.0000 -0.1197900719
C   C52       1.0  0.55700  0.77540  0.41270  1.0000 -0.1197900719
C   C53       1.0  0.09770  0.22670  0.52162  1.0000 -0.155551812
C   C54       1.0  0.09770  0.77330  0.97838  1.0000 -0.155551812
C   C55       1.0  0.59770  0.27330  0.02162  1.0000 -0.155551812
C   C56       1.0  0.59770  0.72670  0.47838  1.0000 -0.155551812
C   C57       1.0  0.08120  0.25368  0.43967  1.0000 0.0552992008
C   C58       1.0  0.08120  0.74632  0.06033  1.0000 0.0552992008
C   C59       1.0  0.58120  0.24632  0.93967  1.0000 0.0552992008
C   C60       1.0  0.58120  0.75368  0.56033  1.0000 0.0552992008
C   C61       1.0  0.02630  0.33050  0.42540  1.0000 -0.1413419399
C   C62       1.0  0.02630  0.66950  0.07460  1.0000 -0.1413419399
C   C63       1.0  0.52630  0.16950  0.92540  1.0000 -0.1413419399
C   C64       1.0  0.52630  0.83050  0.57460  1.0000 -0.1413419399
C   C65       1.0  0.98640  0.37970  0.49124  1.0000 -0.0913538396
C   C66       1.0  0.98640  0.62030  0.00876  1.0000 -0.0913538396
C   C67       1.0  0.48640  0.12030  0.99124  1.0000 -0.0913538396
C   C68       1.0  0.48640  0.87970  0.50876  1.0000 -0.0913538396
C   C69       1.0  0.12180  0.20214  0.37027  1.0000 0.1109018096
C   C70       1.0  0.12180  0.79786  0.12973  1.0000 0.1109018096
C   C71       1.0  0.62180  0.29786  0.87027  1.0000 0.1109018096
C   C72       1.0  0.62180  0.70214  0.62973  1.0000 0.1109018096
C   C73       1.0  0.18090  0.12614  0.37134  1.0000 -0.1015210667
C   C74       1.0  0.18090  0.87386  0.12866  1.0000 -0.1015210667
C   C75       1.0  0.68090  0.37386  0.87134  1.0000 -0.1015210667
C   C76       1.0  0.68090  0.62614  0.62866  1.0000 -0.1015210667
C   C77       1.0  0.16230  0.16560  0.24300  1.0000 0.1369800751
C   C78       1.0  0.16230  0.83440  0.25700  1.0000 0.1369800751
C   C79       1.0  0.66230  0.33440  0.74300  1.0000 0.1369800751
C   C80       1.0  0.66230  0.66560  0.75700  1.0000 0.1369800751
N   N1        1.0  0.29750  0.60222  0.20984  1.0000 -0.3055941335
N   N2        1.0  0.29750  0.39778  0.29016  1.0000 -0.3055941335
N   N3        1.0  0.79750  0.89778  0.70984  1.0000 -0.3055941335
N   N4        1.0  0.79750  0.10222  0.79016  1.0000 -0.3055941335
N   N5        1.0  0.38920  0.72415  0.21176  1.0000 -0.230410457
N   N6        1.0  0.38920  0.27585  0.28824  1.0000 -0.230410457
N   N7        1.0  0.88920  0.77585  0.71176  1.0000 -0.230410457
N   N8        1.0  0.88920  0.22415  0.78824  1.0000 -0.230410457
N   N9        1.0  0.20250  0.10222  0.29016  1.0000 -0.3055941335
N   N10       1.0  0.20250  0.89778  0.20984  1.0000 -0.3055941335
N   N11       1.0  0.70250  0.39778  0.79016  1.0000 -0.3055941335
N   N12       1.0  0.70250  0.60222  0.70984  1.0000 -0.3055941335
N   N13       1.0  0.11080  0.22415  0.28824  1.0000 -0.230410457
N   N14       1.0  0.11080  0.77585  0.21176  1.0000 -0.230410457
N   N15       1.0  0.61080  0.27585  0.78824  1.0000 -0.230410457
N   N16       1.0  0.61080  0.72415  0.71176  1.0000 -0.230410457
O   O1        1.0  0.53653  0.87680  0.78290  1.0000 -0.5923871122
O   O2        1.0  0.53653  0.12320  0.71710  1.0000 -0.5923871122
O   O3        1.0  0.03653  0.62320  0.28290  1.0000 -0.5923871122
O   O4        1.0  0.03653  0.37680  0.21710  1.0000 -0.5923871122
O   O5        1.0  0.60859  0.96625  0.87438  1.0000 -0.5264976493
O   O6        1.0  0.60859  0.03375  0.62562  1.0000 -0.5264976493
O   O7        1.0  0.10859  0.53375  0.37438  1.0000 -0.5264976493
O   O8        1.0  0.10859  0.46625  0.12562  1.0000 -0.5264976493
O   O9        1.0  0.96347  0.37680  0.71710  1.0000 -0.5923871122
O   O10       1.0  0.96347  0.62320  0.78290  1.0000 -0.5923871122
O   O11       1.0  0.46347  0.12320  0.21710  1.0000 -0.5923871122
O   O12       1.0  0.46347  0.87680  0.28290  1.0000 -0.5923871122
O   O13       1.0  0.89141  0.46625  0.62562  1.0000 -0.5264976493
O   O14       1.0  0.89141  0.53375  0.87438  1.0000 -0.5264976493
O   O15       1.0  0.39141  0.03375  0.12562  1.0000 -0.5264976493
O   O16       1.0  0.39141  0.96625  0.37438  1.0000 -0.5264976493
