# DDEC6 charges by PACMAN v1.1 (https://github.com/mtap-research/PACMAN-charge/)
data_2014[Yb][nan]3[ASR]1
_chemical_formula_sum              "Yb4 H2 C22 N2 O24"
_cell_length_a       8.6697
_cell_length_b       10.155
_cell_length_c       13.455
_cell_angle_alpha    94.61
_cell_angle_beta     89
_cell_angle_gamma    102.74

_symmetry_space_group_name_H-M    "P 1"
_symmetry_Int_Tables_number       1

loop_
  _symmetry_equiv_pos_as_xyz
  'x, y, z'

loop_
  _atom_site_type_symbol
  _atom_site_label
  _atom_site_symmetry_multiplicity
  _atom_site_fract_x
  _atom_site_fract_y
  _atom_site_fract_z
  _atom_site_occupancy
  _atom_site_charge
Yb  Yb1       1.0  0.91898  0.19330  0.49736  1.0000 1.9653382753
Yb  Yb2       1.0  0.08102  0.80670  0.50264  1.0000 1.9653382753
Yb  Yb3       1.0  0.53301  0.23244  0.07716  1.0000 1.9796917891
Yb  Yb4       1.0  0.46699  0.76756  0.92284  1.0000 1.9796917891
H   H1        1.0  0.29020  0.11030  0.72450  1.0000 0.1490438139
H   H2        1.0  0.70980  0.88970  0.27550  1.0000 0.1490438139
C   C1        1.0  0.82300  0.12270  0.72650  1.0000 0.5580775594
C   C2        1.0  0.17700  0.87730  0.27350  1.0000 0.5580775594
C   C3        1.0  0.66690  0.13630  0.68560  1.0000 0.1130007362
C   C4        1.0  0.33310  0.86370  0.31440  1.0000 0.1130007362
C   C5        1.0  0.52600  0.11730  0.73960  1.0000 -0.063767712
C   C6        1.0  0.47400  0.88270  0.26040  1.0000 -0.063767712
C   C7        1.0  0.38620  0.12360  0.69070  1.0000 -0.063767712
C   C8        1.0  0.61380  0.87640  0.30930  1.0000 -0.063767712
C   C9        1.0  0.39420  0.15010  0.59070  1.0000 -0.0536829079
C   C10       1.0  0.60580  0.84990  0.40930  1.0000 -0.0536829079
C   C11       1.0  0.53960  0.16920  0.54290  1.0000 0.0885174503
C   C12       1.0  0.46040  0.83080  0.45710  1.0000 0.0885174503
C   C13       1.0  0.56160  0.19160  0.43330  1.0000 0.5541216588
C   C14       1.0  0.43840  0.80840  0.56670  1.0000 0.5541216588
C   C15       1.0  0.51100  0.08810  0.84720  1.0000 0.70393543
C   C16       1.0  0.48900  0.91190  0.15280  1.0000 0.70393543
C   C17       1.0  0.24040  0.14920  0.54030  1.0000 0.6458448028
C   C18       1.0  0.75960  0.85080  0.45970  1.0000 0.644275949
C   C19       1.0  0.01790  0.49370  0.44370  1.0000 0.5165676331
C   C20       1.0  0.98210  0.50630  0.55630  1.0000 0.5165676331
C   C21       1.0  0.58930  0.52550  0.00450  1.0000 0.6062155222
C   C22       1.0  0.41070  0.47450  0.99550  1.0000 0.6048614835
N   N1        1.0  0.67190  0.16220  0.58970  1.0000 -0.3745867157
N   N2        1.0  0.32810  0.83780  0.41030  1.0000 -0.3745867157
O   O1        1.0  0.93680  0.13820  0.66420  1.0000 -0.61183159
O   O2        1.0  0.06320  0.86180  0.33580  1.0000 -0.61183159
O   O3        1.0  0.83010  0.09330  0.81260  1.0000 -0.4867928246
O   O4        1.0  0.16990  0.90670  0.18740  1.0000 -0.4867928246
O   O5        1.0  0.53850  0.18590  0.90990  1.0000 -0.6390213911
O   O6        1.0  0.46150  0.81410  0.09010  1.0000 -0.6461931611
O   O7        1.0  0.46190  0.96640  0.86550  1.0000 -0.7296065534
O   O8        1.0  0.53810  0.03360  0.13450  1.0000 -0.7296065534
O   O9        1.0  0.15880  0.03730  0.50750  1.0000 -0.7011781478
O   O10       1.0  0.84120  0.96270  0.49250  1.0000 -0.7011781478
O   O11       1.0  0.19260  0.25760  0.53980  1.0000 -0.5909399236
O   O12       1.0  0.80740  0.74240  0.46020  1.0000 -0.5909399236
O   O13       1.0  0.43930  0.19070  0.38610  1.0000 -0.4867928246
O   O14       1.0  0.56070  0.80930  0.61390  1.0000 -0.4867928246
O   O15       1.0  0.70180  0.20710  0.40120  1.0000 -0.6277274633
O   O16       1.0  0.29820  0.79290  0.59880  1.0000 -0.6277274633
O   O17       1.0  0.00660  0.37940  0.40320  1.0000 -0.5466407681
O   O18       1.0  0.99340  0.62060  0.59680  1.0000 -0.5466407681
O   O19       1.0  0.05970  0.60440  0.40420  1.0000 -0.5909399236
O   O20       1.0  0.94030  0.39560  0.59580  1.0000 -0.5909399236
O   O21       1.0  0.66640  0.44940  0.04240  1.0000 -0.6690094913
O   O22       1.0  0.33360  0.55060  0.95760  1.0000 -0.6690094913
O   O23       1.0  0.64540  0.63990  0.97520  1.0000 -0.6390213911
O   O24       1.0  0.35460  0.36010  0.02480  1.0000 -0.6390213911
