# DDEC6 charges by PACMAN v1.1 (https://github.com/mtap-research/PACMAN-charge/)
data_2014[Cu][nan]3[ASR]12
_chemical_formula_sum              "Cu6 H40 C56 N4 O28"
_cell_length_a       12.1676
_cell_length_b       12.1676
_cell_length_c       19.4405
_cell_angle_alpha    88.1313
_cell_angle_beta     91.8687
_cell_angle_gamma    127.017

_symmetry_space_group_name_H-M    "P 1"
_symmetry_Int_Tables_number       1

loop_
  _symmetry_equiv_pos_as_xyz
  'x, y, z'

loop_
  _atom_site_type_symbol
  _atom_site_label
  _atom_site_symmetry_multiplicity
  _atom_site_fract_x
  _atom_site_fract_y
  _atom_site_fract_z
  _atom_site_occupancy
  _atom_site_charge
Cu  Cu1       1.0  0.55300  0.15652  0.80397  1.0000 0.8513291115
Cu  Cu2       1.0  0.15652  0.55300  0.19603  1.0000 0.8513291115
Cu  Cu3       1.0  0.97202  0.01084  0.56228  1.0000 0.8103680545
Cu  Cu4       1.0  0.01084  0.97202  0.43772  1.0000 0.8103680545
Cu  Cu5       1.0  0.64709  0.40212  0.84978  1.0000 0.8513291115
Cu  Cu6       1.0  0.40212  0.64709  0.15022  1.0000 0.8513291115
H   H1        1.0  0.95140  0.22840  0.82860  1.0000 0.1212590525
H   H2        1.0  0.22840  0.95140  0.17140  1.0000 0.1212590525
H   H3        1.0  0.79890  0.60770  0.65230  1.0000 0.1399578908
H   H4        1.0  0.60770  0.79890  0.34770  1.0000 0.1399578908
H   H5        1.0  0.80100  0.28480  0.61630  1.0000 0.1399578908
H   H6        1.0  0.28480  0.80100  0.38370  1.0000 0.1399578908
H   H7        1.0  0.19890  0.14710  0.73320  1.0000 0.1212590525
H   H8        1.0  0.14710  0.19890  0.26680  1.0000 0.1212590525
H   H9        1.0  0.95650  0.42610  0.99280  1.0000 0.1399578908
H   H10       1.0  0.42610  0.95650  0.00720  1.0000 0.1399578908
H   H11       1.0  0.24730  0.36850  0.97420  1.0000 0.1399578908
H   H12       1.0  0.36850  0.24730  0.02580  1.0000 0.1399578908
H   H13       1.0  0.09480  0.37600  0.39860  1.0000 0.1212590525
H   H14       1.0  0.37600  0.09480  0.60140  1.0000 0.1212590525
H   H15       1.0  0.98060  0.60520  0.48310  1.0000 0.1335850591
H   H16       1.0  0.60520  0.98060  0.51690  1.0000 0.1335850591
H   H17       1.0  0.24450  0.29910  0.64740  1.0000 0.1084897054
H   H18       1.0  0.29910  0.24450  0.35260  1.0000 0.1084897054
H   H19       1.0  0.39900  0.35900  0.66400  1.0000 0.1084897054
H   H20       1.0  0.35900  0.39900  0.33600  1.0000 0.1084897054
H   H21       1.0  0.14290  0.38790  0.73800  1.0000 0.1084897054
H   H22       1.0  0.38790  0.14290  0.26200  1.0000 0.1084897054
H   H23       1.0  0.25170  0.47930  0.79660  1.0000 0.1020661527
H   H24       1.0  0.47930  0.25170  0.20340  1.0000 0.1020661527
H   H25       1.0  0.21140  0.63060  0.52120  1.0000 0.1084897054
H   H26       1.0  0.63060  0.21140  0.47880  1.0000 0.1084897054
H   H27       1.0  0.15850  0.52590  0.58420  1.0000 0.1020661527
H   H28       1.0  0.52590  0.15850  0.41580  1.0000 0.1020661527
H   H29       1.0  0.30010  0.46890  0.56080  1.0000 0.1020661527
H   H30       1.0  0.46890  0.30010  0.43920  1.0000 0.1020661527
H   H31       1.0  0.39240  0.62100  0.53110  1.0000 0.1212590525
H   H32       1.0  0.62100  0.39240  0.46890  1.0000 0.1212590525
H   H33       1.0  0.31990  0.55050  0.42070  1.0000 0.1084897054
H   H34       1.0  0.55050  0.31990  0.57930  1.0000 0.1084897054
H   H35       1.0  0.32260  0.42960  0.45010  1.0000 0.1084897054
H   H36       1.0  0.42960  0.32260  0.54990  1.0000 0.1084897054
H   H37       1.0  0.33800  0.52360  0.67370  1.0000 0.1084897054
H   H38       1.0  0.52360  0.33800  0.32630  1.0000 0.1084897054
H   H39       1.0  0.43250  0.52810  0.73320  1.0000 0.1212590525
H   H40       1.0  0.52810  0.43250  0.26680  1.0000 0.1212590525
C   C1        1.0  0.71723  0.37137  0.71180  1.0000 0.5668798918
C   C2        1.0  0.37137  0.71723  0.28820  1.0000 0.5668798918
C   C3        1.0  0.99176  0.27404  0.86981  1.0000 -0.14002747
C   C4        1.0  0.27404  0.99176  0.13019  1.0000 -0.1459711558
C   C5        1.0  0.17635  0.47825  0.06100  1.0000 0.5883960211
C   C6        1.0  0.47825  0.17635  0.93900  1.0000 0.5883960211
C   C7        1.0  0.93301  0.32319  0.90686  1.0000 -0.0195398116
C   C8        1.0  0.32319  0.93301  0.09314  1.0000 -0.0115992294
C   C9        1.0  0.17340  0.24120  0.85480  1.0000 0.4066101843
C   C10       1.0  0.24120  0.17340  0.14520  1.0000 0.4066101843
C   C11       1.0  0.91725  0.75655  0.53838  1.0000 0.5815070504
C   C12       1.0  0.75655  0.91725  0.46162  1.0000 0.5815070504
C   C13       1.0  0.07252  0.23048  0.46846  1.0000 0.5668798918
C   C14       1.0  0.23048  0.07252  0.53154  1.0000 0.5668798918
C   C15       1.0  0.11151  0.29389  0.89513  1.0000 -0.0195398116
C   C16       1.0  0.29389  0.11151  0.10487  1.0000 -0.0195398116
C   C17       1.0  0.80930  0.30690  0.87733  1.0000 0.5883960211
C   C18       1.0  0.30690  0.80930  0.12267  1.0000 0.5883960211
C   C19       1.0  0.82213  0.56367  0.62475  1.0000 -0.1195151171
C   C20       1.0  0.56367  0.82213  0.37525  1.0000 -0.1195151171
C   C21       1.0  0.79126  0.43714  0.64549  1.0000 -0.0195398116
C   C22       1.0  0.43714  0.79126  0.35451  1.0000 -0.0195398116
C   C23       1.0  0.82626  0.37154  0.60378  1.0000 -0.14002747
C   C24       1.0  0.37154  0.82626  0.39622  1.0000 -0.14002747
C   C25       1.0  0.89933  0.43587  0.54329  1.0000 -0.0195398116
C   C26       1.0  0.43587  0.89933  0.45671  1.0000 -0.0115992294
C   C27       1.0  0.11149  0.40651  0.99440  1.0000 -0.0115992294
C   C28       1.0  0.40651  0.11149  0.00560  1.0000 -0.0040362602
C   C29       1.0  0.39409  0.25951  0.77965  1.0000 0.5815070504
C   C30       1.0  0.25951  0.39409  0.22035  1.0000 0.5815070504
C   C31       1.0  0.26946  0.24294  0.74623  1.0000 -0.0337406388
C   C32       1.0  0.24294  0.26946  0.25377  1.0000 -0.0337406388
C   C33       1.0  0.94037  0.36803  0.49816  1.0000 0.4023327762
C   C34       1.0  0.36803  0.94037  0.50184  1.0000 0.4023327762
C   C35       1.0  0.99381  0.39119  0.96870  1.0000 -0.0998775727
C   C36       1.0  0.39119  0.99381  0.03130  1.0000 -0.0998775727
C   C37       1.0  0.16912  0.35788  0.95718  1.0000 -0.0942082619
C   C38       1.0  0.35788  0.16912  0.04282  1.0000 -0.0942082619
C   C39       1.0  0.12303  0.37517  0.44632  1.0000 -0.0195398116
C   C40       1.0  0.37517  0.12303  0.55368  1.0000 -0.0195398116
C   C41       1.0  0.93094  0.56166  0.52291  1.0000 -0.1195151171
C   C42       1.0  0.56166  0.93094  0.47709  1.0000 -0.1255751616
C   C43       1.0  0.31602  0.33958  0.68288  1.0000 -0.1953903055
C   C44       1.0  0.33958  0.31602  0.31712  1.0000 -0.1930554276
C   C45       1.0  0.22689  0.41331  0.76118  1.0000 -0.0998775727
C   C46       1.0  0.41331  0.22689  0.23882  1.0000 -0.0998775727
C   C47       1.0  0.88783  0.62357  0.56251  1.0000 -0.0040362602
C   C48       1.0  0.62357  0.88783  0.43749  1.0000 -0.0040362602
C   C49       1.0  0.18585  0.54135  0.53640  1.0000 -0.0998775727
C   C50       1.0  0.54135  0.18585  0.46360  1.0000 -0.0998775727
C   C51       1.0  0.30397  0.53143  0.52700  1.0000 -0.1607969692
C   C52       1.0  0.53143  0.30397  0.47300  1.0000 -0.1607969692
C   C53       1.0  0.28109  0.47651  0.45470  1.0000 -0.1930554276
C   C54       1.0  0.47651  0.28109  0.54530  1.0000 -0.1930554276
C   C55       1.0  0.34314  0.47066  0.71037  1.0000 -0.1607969692
C   C56       1.0  0.47066  0.34314  0.28963  1.0000 -0.1607969692
N   N1        1.0  0.21144  0.29076  0.79034  1.0000 -0.1138669318
N   N2        1.0  0.29076  0.21144  0.20966  1.0000 -0.1138669318
N   N3        1.0  0.07456  0.43004  0.49227  1.0000 -0.1195151171
N   N4        1.0  0.43004  0.07456  0.50773  1.0000 -0.1195151171
O   O1        1.0  0.72930  0.20230  0.84059  1.0000 -0.5192858717
O   O2        1.0  0.20230  0.72930  0.15941  1.0000 -0.5192858717
O   O3        1.0  0.89793  0.81947  0.58152  1.0000 -0.510438711
O   O4        1.0  0.81947  0.89793  0.41848  1.0000 -0.510438711
O   O5        1.0  0.39876  0.15864  0.77201  1.0000 -0.5302991038
O   O6        1.0  0.15864  0.39876  0.22799  1.0000 -0.5302991038
O   O7        1.0  0.05931  0.15609  0.41992  1.0000 -0.5192858717
O   O8        1.0  0.15609  0.05931  0.58008  1.0000 -0.5192858717
O   O9        1.0  0.30341  0.53579  0.06898  1.0000 -0.5192858717
O   O10       1.0  0.53579  0.30341  0.93102  1.0000 -0.5192858717
O   O11       1.0  0.48388  0.37212  0.80769  1.0000 -0.510438711
O   O12       1.0  0.37212  0.48388  0.19231  1.0000 -0.510438711
O   O13       1.0  0.95742  0.79558  0.47748  1.0000 -0.5192858717
O   O14       1.0  0.79558  0.95742  0.52252  1.0000 -0.5192858717
O   O15       1.0  0.05353  0.19907  0.53137  1.0000 -0.510438711
O   O16       1.0  0.19907  0.05353  0.46863  1.0000 -0.510438711
O   O17       1.0  0.64495  0.24185  0.71640  1.0000 -0.510438711
O   O18       1.0  0.24185  0.64495  0.28360  1.0000 -0.510438711
O   O19       1.0  0.09870  0.47690  0.10366  1.0000 -0.5302991038
O   O20       1.0  0.47690  0.09870  0.89634  1.0000 -0.5302991038
O   O21       1.0  0.73382  0.45178  0.75719  1.0000 -0.5302991038
O   O22       1.0  0.45178  0.73382  0.24281  1.0000 -0.5302991038
O   O23       1.0  0.79398  0.39702  0.89110  1.0000 -0.510438711
O   O24       1.0  0.39702  0.79398  0.10890  1.0000 -0.510438711
O   O25       1.0  0.18650  0.15450  0.87967  1.0000 -0.4667144483
O   O26       1.0  0.15450  0.18650  0.12033  1.0000 -0.4667144483
O   O27       1.0  0.85311  0.26109  0.46747  1.0000 -0.477389223
O   O28       1.0  0.26109  0.85311  0.53253  1.0000 -0.477389223
