# DDEC6 charges by PACMAN v1.1 (https://github.com/mtap-research/PACMAN-charge/)
data_2014[Co][acs]3[ASR]1
_chemical_formula_sum              "Co4 H12 C12 O24"
_cell_length_a       7.3016
_cell_length_b       7.9435
_cell_length_c       13.8339
_cell_angle_alpha    90
_cell_angle_beta     90
_cell_angle_gamma    90

_symmetry_space_group_name_H-M    "P 1"
_symmetry_Int_Tables_number       1

loop_
  _symmetry_equiv_pos_as_xyz
  'x, y, z'

loop_
  _atom_site_type_symbol
  _atom_site_label
  _atom_site_symmetry_multiplicity
  _atom_site_fract_x
  _atom_site_fract_y
  _atom_site_fract_z
  _atom_site_occupancy
  _atom_site_charge
Co  Co1       1.0  0.75969  0.21919  0.33541  1.0000 1.0260346778
Co  Co2       1.0  0.25969  0.28081  0.66459  1.0000 1.0260346778
Co  Co3       1.0  0.74031  0.78081  0.83541  1.0000 1.0260346778
Co  Co4       1.0  0.24031  0.71919  0.16459  1.0000 1.0260346778
H   H1        1.0  0.48020  0.93420  0.29560  1.0000 0.1079794812
H   H2        1.0  0.98020  0.56580  0.70440  1.0000 0.1079794812
H   H3        1.0  0.01980  0.06580  0.79560  1.0000 0.1079794812
H   H4        1.0  0.51980  0.43420  0.20440  1.0000 0.1079794812
H   H5        1.0  0.99120  0.50380  0.27320  1.0000 0.1079794812
H   H6        1.0  0.49120  0.99620  0.72680  1.0000 0.1079794812
H   H7        1.0  0.50880  0.49620  0.77320  1.0000 0.1079794812
H   H8        1.0  0.00880  0.00380  0.22680  1.0000 0.1079794812
H   H9        1.0  0.49470  0.31070  0.49180  1.0000 0.1079794812
H   H10       1.0  0.99470  0.18930  0.50820  1.0000 0.1079794812
H   H11       1.0  0.00530  0.68930  0.99180  1.0000 0.1079794812
H   H12       1.0  0.50530  0.81070  0.00820  1.0000 0.1079794812
C   C1        1.0  0.49870  0.98440  0.23405  1.0000 0.5060279616
C   C2        1.0  0.99870  0.51560  0.76595  1.0000 0.5060279616
C   C3        1.0  0.00130  0.01560  0.73405  1.0000 0.5060279616
C   C4        1.0  0.50130  0.48440  0.26595  1.0000 0.5060279616
C   C5        1.0  0.99100  0.44280  0.21412  1.0000 0.4954454326
C   C6        1.0  0.49100  0.05720  0.78588  1.0000 0.4954454326
C   C7        1.0  0.50900  0.55720  0.71412  1.0000 0.4954454326
C   C8        1.0  0.00900  0.94280  0.28588  1.0000 0.4954454326
C   C9        1.0  0.50940  0.19410  0.50501  1.0000 0.5060279616
C   C10       1.0  0.00940  0.30590  0.49499  1.0000 0.5060279616
C   C11       1.0  0.99060  0.80590  0.00501  1.0000 0.5060279616
C   C12       1.0  0.49060  0.69410  0.99499  1.0000 0.5060279616
O   O1        1.0  0.60839  0.10451  0.22848  1.0000 -0.4723369754
O   O2        1.0  0.10839  0.39549  0.77152  1.0000 -0.4723369754
O   O3        1.0  0.89161  0.89549  0.72848  1.0000 -0.4723369754
O   O4        1.0  0.39161  0.60451  0.27152  1.0000 -0.4723369754
O   O5        1.0  0.41139  0.92571  0.16384  1.0000 -0.4782001316
O   O6        1.0  0.91139  0.57429  0.83616  1.0000 -0.4782001316
O   O7        1.0  0.08861  0.07429  0.66384  1.0000 -0.4782001316
O   O8        1.0  0.58861  0.42571  0.33616  1.0000 -0.4782001316
O   O9        1.0  0.90291  0.30674  0.21147  1.0000 -0.4782001316
O   O10       1.0  0.40291  0.19326  0.78853  1.0000 -0.4782001316
O   O11       1.0  0.59709  0.69326  0.71147  1.0000 -0.4782001316
O   O12       1.0  0.09709  0.80674  0.28853  1.0000 -0.4782001316
O   O13       1.0  0.07831  0.50341  0.14450  1.0000 -0.4723369754
O   O14       1.0  0.57831  0.99659  0.85550  1.0000 -0.4723369754
O   O15       1.0  0.42169  0.49659  0.64450  1.0000 -0.4723369754
O   O16       1.0  0.92169  0.00341  0.35550  1.0000 -0.4723369754
O   O17       1.0  0.61960  0.11168  0.45314  1.0000 -0.4782001316
O   O18       1.0  0.11960  0.38832  0.54686  1.0000 -0.4782001316
O   O19       1.0  0.88040  0.88832  0.95314  1.0000 -0.4782001316
O   O20       1.0  0.38040  0.61168  0.04686  1.0000 -0.4782001316
O   O21       1.0  0.41822  0.13201  0.57273  1.0000 -0.4782001316
O   O22       1.0  0.91822  0.36799  0.42727  1.0000 -0.4782001316
O   O23       1.0  0.08178  0.86799  0.07273  1.0000 -0.4782001316
O   O24       1.0  0.58178  0.63201  0.92727  1.0000 -0.4782001316
