# DDEC6 charges by PACMAN v1.1 (https://github.com/mtap-research/PACMAN-charge/)
data_2014[Cu][bcu]3[ASR]9
_chemical_formula_sum              "Cu6 H32 C48 N52"
_cell_length_a       13.111
_cell_length_b       14.791
_cell_length_c       19.9664
_cell_angle_alpha    90
_cell_angle_beta     128.368
_cell_angle_gamma    90

_symmetry_space_group_name_H-M    "P 1"
_symmetry_Int_Tables_number       1

loop_
  _symmetry_equiv_pos_as_xyz
  'x, y, z'

loop_
  _atom_site_type_symbol
  _atom_site_label
  _atom_site_symmetry_multiplicity
  _atom_site_fract_x
  _atom_site_fract_y
  _atom_site_fract_z
  _atom_site_occupancy
  _atom_site_charge
Cu  Cu1       1.0  0.00000  0.00000  0.50000  1.0000 0.576906889
Cu  Cu2       1.0  0.00000  0.50000  0.00000  1.0000 0.576906889
Cu  Cu3       1.0  0.86594  0.19820  0.39180  1.0000 0.5085825914
Cu  Cu4       1.0  0.13406  0.69820  0.10820  1.0000 0.5085825914
Cu  Cu5       1.0  0.13406  0.80180  0.60820  1.0000 0.5085825914
Cu  Cu6       1.0  0.86594  0.30180  0.89180  1.0000 0.5085825914
H   H1        1.0  0.93920  0.14120  0.84550  1.0000 0.10984151
H   H2        1.0  0.06080  0.64120  0.65450  1.0000 0.10984151
H   H3        1.0  0.06080  0.85880  0.15450  1.0000 0.10984151
H   H4        1.0  0.93920  0.35880  0.34550  1.0000 0.10984151
H   H5        1.0  0.94930  0.08900  0.74160  1.0000 0.150312058
H   H6        1.0  0.05070  0.58900  0.75840  1.0000 0.150312058
H   H7        1.0  0.05070  0.91100  0.25840  1.0000 0.150312058
H   H8        1.0  0.94930  0.41100  0.24160  1.0000 0.150312058
H   H9        1.0  0.81490  0.32850  0.62550  1.0000 0.1430558556
H   H10       1.0  0.18510  0.82850  0.87450  1.0000 0.1430558556
H   H11       1.0  0.18510  0.67150  0.37450  1.0000 0.1430558556
H   H12       1.0  0.81490  0.17150  0.12550  1.0000 0.1430558556
H   H13       1.0  0.80400  0.37300  0.73090  1.0000 0.10984151
H   H14       1.0  0.19600  0.87300  0.76910  1.0000 0.10984151
H   H15       1.0  0.19600  0.62700  0.26910  1.0000 0.10984151
H   H16       1.0  0.80400  0.12700  0.23090  1.0000 0.10984151
H   H17       1.0  0.59380  0.30270  0.74120  1.0000 0.1046638929
H   H18       1.0  0.40620  0.80270  0.75880  1.0000 0.1046638929
H   H19       1.0  0.40620  0.69730  0.25880  1.0000 0.1046638929
H   H20       1.0  0.59380  0.19730  0.24120  1.0000 0.1046638929
H   H21       1.0  0.41070  0.21370  0.66800  1.0000 0.150312058
H   H22       1.0  0.58930  0.71370  0.83200  1.0000 0.150312058
H   H23       1.0  0.58930  0.78630  0.33200  1.0000 0.150312058
H   H24       1.0  0.41070  0.28630  0.16800  1.0000 0.150312058
H   H25       1.0  0.60610  0.03580  0.85980  1.0000 0.1430558556
H   H26       1.0  0.39390  0.53580  0.64020  1.0000 0.1430558556
H   H27       1.0  0.39390  0.96420  0.14020  1.0000 0.1430558556
H   H28       1.0  0.60610  0.46420  0.35980  1.0000 0.1430558556
H   H29       1.0  0.78260  0.12930  0.92760  1.0000 0.10984151
H   H30       1.0  0.21740  0.62930  0.57240  1.0000 0.10984151
H   H31       1.0  0.21740  0.87070  0.07240  1.0000 0.10984151
H   H32       1.0  0.78260  0.37070  0.42760  1.0000 0.10984151
C   C1        1.0  0.91250  0.17890  0.79990  1.0000 0.0638350838
C   C2        1.0  0.08750  0.67890  0.70010  1.0000 0.0638350838
C   C3        1.0  0.08750  0.82110  0.20010  1.0000 0.0638350838
C   C4        1.0  0.91250  0.32110  0.29990  1.0000 0.0638350838
C   C5        1.0  0.91990  0.14720  0.73830  1.0000 -0.1631844733
C   C6        1.0  0.08010  0.64720  0.76170  1.0000 -0.1631844733
C   C7        1.0  0.08010  0.85280  0.26170  1.0000 -0.1631844733
C   C8        1.0  0.91990  0.35280  0.23830  1.0000 -0.1631844733
C   C9        1.0  0.88250  0.20370  0.67110  1.0000 0.0905389816
C   C10       1.0  0.11750  0.70370  0.82890  1.0000 0.0905389816
C   C11       1.0  0.11750  0.79630  0.32890  1.0000 0.0905389816
C   C12       1.0  0.88250  0.29630  0.17110  1.0000 0.0905389816
C   C13       1.0  0.83980  0.28870  0.66940  1.0000 -0.1631844733
C   C14       1.0  0.16020  0.78870  0.83060  1.0000 -0.1631844733
C   C15       1.0  0.16020  0.71130  0.33060  1.0000 -0.1631844733
C   C16       1.0  0.83980  0.21130  0.16940  1.0000 -0.1631844733
C   C17       1.0  0.83370  0.31520  0.73290  1.0000 0.0696556142
C   C18       1.0  0.16630  0.81520  0.76710  1.0000 0.0696556142
C   C19       1.0  0.16630  0.68480  0.26710  1.0000 0.0696556142
C   C20       1.0  0.83370  0.18480  0.23290  1.0000 0.0696556142
C   C21       1.0  0.89270  0.17280  0.60600  1.0000 0.2152686907
C   C22       1.0  0.10730  0.67280  0.89400  1.0000 0.2113417589
C   C23       1.0  0.10730  0.82720  0.39400  1.0000 0.2152686907
C   C24       1.0  0.89270  0.32720  0.10600  1.0000 0.2152686907
C   C25       1.0  0.59590  0.24810  0.76520  1.0000 0.0784889789
C   C26       1.0  0.40410  0.74810  0.73480  1.0000 0.0784889789
C   C27       1.0  0.40410  0.75190  0.23480  1.0000 0.0784889789
C   C28       1.0  0.59590  0.25190  0.26520  1.0000 0.0784889789
C   C29       1.0  0.48550  0.19510  0.72080  1.0000 -0.1631844733
C   C30       1.0  0.51450  0.69510  0.77920  1.0000 -0.1631844733
C   C31       1.0  0.51450  0.80490  0.27920  1.0000 -0.1631844733
C   C32       1.0  0.48550  0.30490  0.22080  1.0000 -0.1631844733
C   C33       1.0  0.48750  0.11350  0.75590  1.0000 0.0905389816
C   C34       1.0  0.51250  0.61350  0.74410  1.0000 0.0905389816
C   C35       1.0  0.51250  0.88650  0.24410  1.0000 0.0905389816
C   C36       1.0  0.48750  0.38650  0.25590  1.0000 0.0905389816
C   C37       1.0  0.60100  0.09000  0.83420  1.0000 -0.1785204678
C   C38       1.0  0.39900  0.59000  0.66580  1.0000 -0.1785204678
C   C39       1.0  0.39900  0.91000  0.16580  1.0000 -0.1785204678
C   C40       1.0  0.60100  0.41000  0.33420  1.0000 -0.1785204678
C   C41       1.0  0.70680  0.14640  0.87450  1.0000 0.0696556142
C   C42       1.0  0.29320  0.64640  0.62550  1.0000 0.0696556142
C   C43       1.0  0.29320  0.85360  0.12550  1.0000 0.0696556142
C   C44       1.0  0.70680  0.35360  0.37450  1.0000 0.0696556142
C   C45       1.0  0.37261  0.05550  0.70861  1.0000 0.2113417589
C   C46       1.0  0.62739  0.55550  0.79139  1.0000 0.2113417589
C   C47       1.0  0.62739  0.94450  0.29139  1.0000 0.2113417589
C   C48       1.0  0.37261  0.44450  0.20861  1.0000 0.2113417589
N   N1        1.0  0.86924  0.26072  0.79724  1.0000 -0.194175855
N   N2        1.0  0.13076  0.76072  0.70276  1.0000 -0.1978764838
N   N3        1.0  0.13076  0.73928  0.20276  1.0000 -0.194175855
N   N4        1.0  0.86924  0.23928  0.29724  1.0000 -0.1978764838
N   N5        1.0  0.85068  0.22122  0.53608  1.0000 -0.2706421359
N   N6        1.0  0.14932  0.72122  0.96392  1.0000 -0.2706421359
N   N7        1.0  0.14932  0.77878  0.46392  1.0000 -0.2706421359
N   N8        1.0  0.85068  0.27878  0.03608  1.0000 -0.2706421359
N   N9        1.0  0.88002  0.16957  0.49612  1.0000 -0.0297405398
N   N10       1.0  0.11998  0.66957  0.00388  1.0000 -0.0297405398
N   N11       1.0  0.11998  0.83043  0.50388  1.0000 -0.0297405398
N   N12       1.0  0.88002  0.33043  0.99612  1.0000 -0.0297405398
N   N13       1.0  0.93672  0.09381  0.53972  1.0000 -0.0240628726
N   N14       1.0  0.06328  0.59381  0.96028  1.0000 -0.0240628726
N   N15       1.0  0.06328  0.90619  0.46028  1.0000 -0.0240628726
N   N16       1.0  0.93672  0.40619  0.03972  1.0000 -0.0240628726
N   N17       1.0  0.94578  0.09377  0.60968  1.0000 -0.2516723207
N   N18       1.0  0.05422  0.59377  0.89032  1.0000 -0.2516723207
N   N19       1.0  0.05422  0.90623  0.39032  1.0000 -0.2516723207
N   N20       1.0  0.94578  0.40623  0.10968  1.0000 -0.2516723207
N   N21       1.0  0.70557  0.22434  0.84097  1.0000 -0.1978764838
N   N22       1.0  0.29443  0.72434  0.65903  1.0000 -0.1978764838
N   N23       1.0  0.29443  0.77566  0.15903  1.0000 -0.1978764838
N   N24       1.0  0.70557  0.27566  0.34097  1.0000 -0.1978764838
N   N25       1.0  0.25776  0.08184  0.63626  1.0000 -0.2516723207
N   N26       1.0  0.74224  0.58184  0.86374  1.0000 -0.2516723207
N   N27       1.0  0.74224  0.91816  0.36374  1.0000 -0.2516723207
N   N28       1.0  0.25776  0.41816  0.13626  1.0000 -0.2516723207
N   N29       1.0  0.18286  0.00954  0.61246  1.0000 -0.0297405398
N   N30       1.0  0.81714  0.50954  0.88754  1.0000 -0.0297405398
N   N31       1.0  0.81714  0.99046  0.38754  1.0000 -0.0297405398
N   N32       1.0  0.18286  0.49046  0.11246  1.0000 -0.0297405398
N   N33       1.0  0.24818  0.94268  0.66698  1.0000 -0.0906478061
N   N34       1.0  0.75182  0.44268  0.83302  1.0000 -0.0906478061
N   N35       1.0  0.75182  0.05732  0.33302  1.0000 -0.0906478061
N   N36       1.0  0.24818  0.55732  0.16698  1.0000 -0.0906478061
N   N37       1.0  0.36915  0.96976  0.72915  1.0000 -0.2706421359
N   N38       1.0  0.63085  0.46976  0.77085  1.0000 -0.2706421359
N   N39       1.0  0.63085  0.03024  0.27085  1.0000 -0.2706421359
N   N40       1.0  0.36915  0.53024  0.22915  1.0000 -0.2706421359
N   N41       1.0  0.02545  0.12503  0.44235  1.0000 -0.4999720759
N   N42       1.0  0.97455  0.62503  0.05765  1.0000 -0.4999720759
N   N43       1.0  0.97455  0.87497  0.55765  1.0000 -0.4999720759
N   N44       1.0  0.02545  0.37497  0.94235  1.0000 -0.4999720759
N   N45       1.0  0.09750  0.13560  0.42810  1.0000 0.4150040739
N   N46       1.0  0.90250  0.63560  0.07190  1.0000 0.4150040739
N   N47       1.0  0.90250  0.86440  0.57190  1.0000 0.4150040739
N   N48       1.0  0.09750  0.36440  0.92810  1.0000 0.4141013914
N   N49       1.0  0.16970  0.14490  0.41480  1.0000 -0.3403113714
N   N50       1.0  0.83030  0.64490  0.08520  1.0000 -0.3403113714
N   N51       1.0  0.83030  0.85510  0.58520  1.0000 -0.3403113714
N   N52       1.0  0.16970  0.35510  0.91480  1.0000 -0.3403113714
