# DDEC6 charges by PACMAN v1.1 (https://github.com/mtap-research/PACMAN-charge/)
data_2014[La][nan]3[ASR]1
_chemical_formula_sum              "La8 H36 C84 N12 O48"
_cell_length_a       8.1241
_cell_length_b       15.6616
_cell_length_c       30.3843
_cell_angle_alpha    90
_cell_angle_beta     90
_cell_angle_gamma    90

_symmetry_space_group_name_H-M    "P 1"
_symmetry_Int_Tables_number       1

loop_
  _symmetry_equiv_pos_as_xyz
  'x, y, z'

loop_
  _atom_site_type_symbol
  _atom_site_label
  _atom_site_symmetry_multiplicity
  _atom_site_fract_x
  _atom_site_fract_y
  _atom_site_fract_z
  _atom_site_occupancy
  _atom_site_charge
La  La1       1.0  0.93440  0.70363  0.59121  1.0000 1.855597256
La  La2       1.0  0.56560  0.20363  0.40879  1.0000 1.855597256
La  La3       1.0  0.06560  0.29637  0.09121  1.0000 1.855597256
La  La4       1.0  0.43440  0.79637  0.90879  1.0000 1.8542720262
La  La5       1.0  0.06560  0.29637  0.40879  1.0000 1.855597256
La  La6       1.0  0.43440  0.79637  0.59121  1.0000 1.8542720262
La  La7       1.0  0.93440  0.70363  0.90879  1.0000 1.855597256
La  La8       1.0  0.56560  0.20363  0.09121  1.0000 1.855597256
H   H1        1.0  0.50690  0.44630  0.38940  1.0000 0.1108986937
H   H2        1.0  0.99310  0.94630  0.61060  1.0000 0.1108986937
H   H3        1.0  0.49310  0.55370  0.88940  1.0000 0.1108986937
H   H4        1.0  0.00690  0.05370  0.11060  1.0000 0.1108986937
H   H5        1.0  0.49310  0.55370  0.61060  1.0000 0.1108986937
H   H6        1.0  0.00690  0.05370  0.38940  1.0000 0.1108986937
H   H7        1.0  0.50690  0.44630  0.11060  1.0000 0.1108986937
H   H8        1.0  0.99310  0.94630  0.88940  1.0000 0.1108986937
H   H9        1.0  0.38750  0.65610  0.45230  1.0000 0.1200023327
H   H10       1.0  0.11250  0.15610  0.54770  1.0000 0.1200023327
H   H11       1.0  0.61250  0.34390  0.95230  1.0000 0.1200023327
H   H12       1.0  0.88750  0.84390  0.04770  1.0000 0.1200023327
H   H13       1.0  0.61250  0.34390  0.54770  1.0000 0.1200023327
H   H14       1.0  0.88750  0.84390  0.45230  1.0000 0.1200023327
H   H15       1.0  0.38750  0.65610  0.04770  1.0000 0.1200023327
H   H16       1.0  0.11250  0.15610  0.95230  1.0000 0.1200023327
H   H17       1.0  0.78390  0.52300  0.49200  1.0000 0.1374912222
H   H18       1.0  0.71610  0.02300  0.50800  1.0000 0.1374912222
H   H19       1.0  0.21610  0.47700  0.99200  1.0000 0.1374912222
H   H20       1.0  0.28390  0.97700  0.00800  1.0000 0.1374912222
H   H21       1.0  0.21610  0.47700  0.50800  1.0000 0.1374912222
H   H22       1.0  0.28390  0.97700  0.49200  1.0000 0.1374912222
H   H23       1.0  0.78390  0.52300  0.00800  1.0000 0.1374912222
H   H24       1.0  0.71610  0.02300  0.99200  1.0000 0.1374912222
H   H25       1.0  0.28040  0.92930  0.68540  1.0000 0.1108986937
H   H26       1.0  0.21960  0.42930  0.31460  1.0000 0.1108986937
H   H27       1.0  0.71960  0.07070  0.18540  1.0000 0.1108986937
H   H28       1.0  0.78040  0.57070  0.81460  1.0000 0.1108986937
H   H29       1.0  0.71960  0.07070  0.31460  1.0000 0.1108986937
H   H30       1.0  0.78040  0.57070  0.68540  1.0000 0.1108986937
H   H31       1.0  0.28040  0.92930  0.81460  1.0000 0.1108986937
H   H32       1.0  0.21960  0.42930  0.18540  1.0000 0.1108986937
H   H33       1.0  0.02940  0.74610  0.75000  1.0000 0.1330543418
H   H34       1.0  0.47060  0.24610  0.25000  1.0000 0.1330543418
H   H35       1.0  0.97060  0.25390  0.25000  1.0000 0.1330543418
H   H36       1.0  0.52940  0.75390  0.75000  1.0000 0.1330543418
C   C1        1.0  0.66080  0.47190  0.43974  1.0000 -0.0777112812
C   C2        1.0  0.83920  0.97190  0.56026  1.0000 -0.0777112812
C   C3        1.0  0.33920  0.52810  0.93974  1.0000 -0.0777112812
C   C4        1.0  0.16080  0.02810  0.06026  1.0000 -0.0777112812
C   C5        1.0  0.33920  0.52810  0.56026  1.0000 -0.0777112812
C   C6        1.0  0.16080  0.02810  0.43974  1.0000 -0.0777112812
C   C7        1.0  0.66080  0.47190  0.06026  1.0000 -0.0777112812
C   C8        1.0  0.83920  0.97190  0.93974  1.0000 -0.0777112812
C   C9        1.0  0.52880  0.48660  0.41202  1.0000 0.0723973435
C   C10       1.0  0.97120  0.98660  0.58798  1.0000 0.0723973435
C   C11       1.0  0.47120  0.51340  0.91202  1.0000 0.0723973435
C   C12       1.0  0.02880  0.01340  0.08798  1.0000 0.0723973435
C   C13       1.0  0.47120  0.51340  0.58798  1.0000 0.0723973435
C   C14       1.0  0.02880  0.01340  0.41202  1.0000 0.0723973435
C   C15       1.0  0.52880  0.48660  0.08798  1.0000 0.0723973435
C   C16       1.0  0.97120  0.98660  0.91202  1.0000 0.0723973435
C   C17       1.0  0.45950  0.60880  0.44872  1.0000 0.0723973435
C   C18       1.0  0.04050  0.10880  0.55128  1.0000 0.0723973435
C   C19       1.0  0.54050  0.39120  0.94872  1.0000 0.0723973435
C   C20       1.0  0.95950  0.89120  0.05128  1.0000 0.0723973435
C   C21       1.0  0.54050  0.39120  0.55128  1.0000 0.0723973435
C   C22       1.0  0.95950  0.89120  0.44872  1.0000 0.0723973435
C   C23       1.0  0.45950  0.60880  0.05128  1.0000 0.0723973435
C   C24       1.0  0.04050  0.10880  0.94872  1.0000 0.0723973435
C   C25       1.0  0.58920  0.59950  0.47823  1.0000 -0.0890413339
C   C26       1.0  0.91080  0.09950  0.52177  1.0000 -0.0890413339
C   C27       1.0  0.41080  0.40050  0.97823  1.0000 -0.0890413339
C   C28       1.0  0.08920  0.90050  0.02177  1.0000 -0.0890413339
C   C29       1.0  0.41080  0.40050  0.52177  1.0000 -0.0890413339
C   C30       1.0  0.08920  0.90050  0.47823  1.0000 -0.0890413339
C   C31       1.0  0.58920  0.59950  0.02177  1.0000 -0.0890413339
C   C32       1.0  0.91080  0.09950  0.97823  1.0000 -0.0890413339
C   C33       1.0  0.69210  0.53050  0.47300  1.0000 -0.0611857083
C   C34       1.0  0.80790  0.03050  0.52700  1.0000 -0.0611857083
C   C35       1.0  0.30790  0.46950  0.97300  1.0000 -0.0611857083
C   C36       1.0  0.19210  0.96950  0.02700  1.0000 -0.0611857083
C   C37       1.0  0.30790  0.46950  0.52700  1.0000 -0.0611857083
C   C38       1.0  0.19210  0.96950  0.47300  1.0000 -0.0611857083
C   C39       1.0  0.69210  0.53050  0.02700  1.0000 -0.0611857083
C   C40       1.0  0.80790  0.03050  0.97300  1.0000 -0.0611857083
C   C41       1.0  0.76760  0.39380  0.43579  1.0000 0.5813830231
C   C42       1.0  0.73240  0.89380  0.56421  1.0000 0.5813830231
C   C43       1.0  0.23240  0.60620  0.93579  1.0000 0.5813830231
C   C44       1.0  0.26760  0.10620  0.06421  1.0000 0.5813830231
C   C45       1.0  0.23240  0.60620  0.56421  1.0000 0.5813830231
C   C46       1.0  0.26760  0.10620  0.43579  1.0000 0.5813830231
C   C47       1.0  0.76760  0.39380  0.06421  1.0000 0.5813830231
C   C48       1.0  0.73240  0.89380  0.93579  1.0000 0.5813830231
C   C49       1.0  0.60890  0.65860  0.51632  1.0000 0.6213858609
C   C50       1.0  0.89110  0.15860  0.48368  1.0000 0.6213858609
C   C51       1.0  0.39110  0.34140  0.01632  1.0000 0.6213858609
C   C52       1.0  0.10890  0.84140  0.98368  1.0000 0.6213858609
C   C53       1.0  0.39110  0.34140  0.48368  1.0000 0.6213858609
C   C54       1.0  0.10890  0.84140  0.51632  1.0000 0.6213858609
C   C55       1.0  0.60890  0.65860  0.98368  1.0000 0.6213858609
C   C56       1.0  0.89110  0.15860  0.01632  1.0000 0.6213858609
C   C57       1.0  0.14800  0.83150  0.71064  1.0000 -0.0777112812
C   C58       1.0  0.35200  0.33150  0.28936  1.0000 -0.0777112812
C   C59       1.0  0.85200  0.16850  0.21064  1.0000 -0.0777112812
C   C60       1.0  0.64800  0.66850  0.78936  1.0000 -0.0777112812
C   C61       1.0  0.85200  0.16850  0.28936  1.0000 -0.0777112812
C   C62       1.0  0.64800  0.66850  0.71064  1.0000 -0.0777112812
C   C63       1.0  0.14800  0.83150  0.78936  1.0000 -0.0777112812
C   C64       1.0  0.35200  0.33150  0.21064  1.0000 -0.0777112812
C   C65       1.0  0.24560  0.90440  0.71234  1.0000 0.0835443564
C   C66       1.0  0.25440  0.40440  0.28766  1.0000 0.0835443564
C   C67       1.0  0.75440  0.09560  0.21234  1.0000 0.0835443564
C   C68       1.0  0.74560  0.59560  0.78766  1.0000 0.0835443564
C   C69       1.0  0.75440  0.09560  0.28766  1.0000 0.0835443564
C   C70       1.0  0.74560  0.59560  0.71234  1.0000 0.0835443564
C   C71       1.0  0.24560  0.90440  0.78766  1.0000 0.0835443564
C   C72       1.0  0.25440  0.40440  0.21234  1.0000 0.0835443564
C   C73       1.0  0.09770  0.79530  0.75000  1.0000 -0.0611857083
C   C74       1.0  0.40230  0.29530  0.25000  1.0000 -0.0611857083
C   C75       1.0  0.90230  0.20470  0.25000  1.0000 -0.0611857083
C   C76       1.0  0.59770  0.70470  0.75000  1.0000 -0.0611857083
C   C77       1.0  0.09640  0.79200  0.66846  1.0000 0.5981193815
C   C78       1.0  0.40360  0.29200  0.33154  1.0000 0.5981193815
C   C79       1.0  0.90360  0.20800  0.16846  1.0000 0.5981193815
C   C80       1.0  0.59640  0.70800  0.83154  1.0000 0.5981193815
C   C81       1.0  0.90360  0.20800  0.33154  1.0000 0.5981193815
C   C82       1.0  0.59640  0.70800  0.66846  1.0000 0.5981193815
C   C83       1.0  0.09640  0.79200  0.83154  1.0000 0.5981193815
C   C84       1.0  0.40360  0.29200  0.16846  1.0000 0.5981193815
N   N1        1.0  0.43060  0.55470  0.41547  1.0000 -0.2675653289
N   N2        1.0  0.06940  0.05470  0.58453  1.0000 -0.2675653289
N   N3        1.0  0.56940  0.44530  0.91547  1.0000 -0.2675653289
N   N4        1.0  0.93060  0.94530  0.08453  1.0000 -0.2675653289
N   N5        1.0  0.56940  0.44530  0.58453  1.0000 -0.2675653289
N   N6        1.0  0.93060  0.94530  0.41547  1.0000 -0.2675653289
N   N7        1.0  0.43060  0.55470  0.08453  1.0000 -0.2675653289
N   N8        1.0  0.06940  0.05470  0.91547  1.0000 -0.2675653289
N   N9        1.0  0.29290  0.94130  0.75000  1.0000 -0.2569026168
N   N10       1.0  0.20710  0.44130  0.25000  1.0000 -0.2569026168
N   N11       1.0  0.70710  0.05870  0.25000  1.0000 -0.2569026168
N   N12       1.0  0.79290  0.55870  0.75000  1.0000 -0.2569026168
O   O1        1.0  0.88970  0.38950  0.46119  1.0000 -0.5570747148
O   O2        1.0  0.61030  0.88950  0.53881  1.0000 -0.5570747148
O   O3        1.0  0.11030  0.61050  0.96119  1.0000 -0.5570747148
O   O4        1.0  0.38970  0.11050  0.03881  1.0000 -0.5570747148
O   O5        1.0  0.11030  0.61050  0.53881  1.0000 -0.5570747148
O   O6        1.0  0.38970  0.11050  0.46119  1.0000 -0.5570747148
O   O7        1.0  0.88970  0.38950  0.03881  1.0000 -0.5570747148
O   O8        1.0  0.61030  0.88950  0.96119  1.0000 -0.5570747148
O   O9        1.0  0.74180  0.33870  0.40625  1.0000 -0.660034072
O   O10       1.0  0.75820  0.83870  0.59375  1.0000 -0.660034072
O   O11       1.0  0.25820  0.66130  0.90625  1.0000 -0.660034072
O   O12       1.0  0.24180  0.16130  0.09375  1.0000 -0.660034072
O   O13       1.0  0.25820  0.66130  0.59375  1.0000 -0.660034072
O   O14       1.0  0.24180  0.16130  0.40625  1.0000 -0.660034072
O   O15       1.0  0.74180  0.33870  0.09375  1.0000 -0.660034072
O   O16       1.0  0.75820  0.83870  0.90625  1.0000 -0.660034072
O   O17       1.0  0.49410  0.71020  0.52466  1.0000 -0.607434016
O   O18       1.0  0.00590  0.21020  0.47534  1.0000 -0.607434016
O   O19       1.0  0.50590  0.28980  0.02466  1.0000 -0.607434016
O   O20       1.0  0.99410  0.78980  0.97534  1.0000 -0.607434016
O   O21       1.0  0.50590  0.28980  0.47534  1.0000 -0.607434016
O   O22       1.0  0.99410  0.78980  0.52466  1.0000 -0.607434016
O   O23       1.0  0.49410  0.71020  0.97534  1.0000 -0.607434016
O   O24       1.0  0.00590  0.21020  0.02466  1.0000 -0.607434016
O   O25       1.0  0.73890  0.65130  0.53863  1.0000 -0.6228686686
O   O26       1.0  0.76110  0.15130  0.46137  1.0000 -0.6228686686
O   O27       1.0  0.26110  0.34870  0.03863  1.0000 -0.6228686686
O   O28       1.0  0.23890  0.84870  0.96137  1.0000 -0.6228686686
O   O29       1.0  0.26110  0.34870  0.46137  1.0000 -0.6228686686
O   O30       1.0  0.23890  0.84870  0.53863  1.0000 -0.6228686686
O   O31       1.0  0.73890  0.65130  0.96137  1.0000 -0.6228686686
O   O32       1.0  0.76110  0.15130  0.03863  1.0000 -0.6228686686
O   O33       1.0  0.15540  0.81600  0.63204  1.0000 -0.660034072
O   O34       1.0  0.34460  0.31600  0.36796  1.0000 -0.660034072
O   O35       1.0  0.84460  0.18400  0.13204  1.0000 -0.660034072
O   O36       1.0  0.65540  0.68400  0.86796  1.0000 -0.660034072
O   O37       1.0  0.84460  0.18400  0.36796  1.0000 -0.660034072
O   O38       1.0  0.65540  0.68400  0.63204  1.0000 -0.660034072
O   O39       1.0  0.15540  0.81600  0.86796  1.0000 -0.660034072
O   O40       1.0  0.34460  0.31600  0.13204  1.0000 -0.660034072
O   O41       1.0  0.98880  0.73390  0.67043  1.0000 -0.5906067308
O   O42       1.0  0.51120  0.23390  0.32957  1.0000 -0.5906067308
O   O43       1.0  0.01120  0.26610  0.17043  1.0000 -0.5906067308
O   O44       1.0  0.48880  0.76610  0.82957  1.0000 -0.5906067308
O   O45       1.0  0.01120  0.26610  0.32957  1.0000 -0.5906067308
O   O46       1.0  0.48880  0.76610  0.67043  1.0000 -0.5906067308
O   O47       1.0  0.98880  0.73390  0.82957  1.0000 -0.5906067308
O   O48       1.0  0.51120  0.23390  0.17043  1.0000 -0.5906067308
