# DDEC6 charges by PACMAN v1.1 (https://github.com/mtap-research/PACMAN-charge/)
data_2014[Sm][nan]3[ASR]3
_chemical_formula_sum              "Sm4 H28 C60 O24"
_cell_length_a       14.1823
_cell_length_b       14.1823
_cell_length_c       13.6627
_cell_angle_alpha    82.0017
_cell_angle_beta     97.9983
_cell_angle_gamma    122.025

_symmetry_space_group_name_H-M    "P 1"
_symmetry_Int_Tables_number       1

loop_
  _symmetry_equiv_pos_as_xyz
  'x, y, z'

loop_
  _atom_site_type_symbol
  _atom_site_label
  _atom_site_symmetry_multiplicity
  _atom_site_fract_x
  _atom_site_fract_y
  _atom_site_fract_z
  _atom_site_occupancy
  _atom_site_charge
Sm  Sm1       1.0  0.61429  0.95475  0.53896  1.0000 2.0856273844
Sm  Sm2       1.0  0.95475  0.61429  0.96104  1.0000 2.0856273844
Sm  Sm3       1.0  0.38571  0.04525  0.46104  1.0000 2.0856273844
Sm  Sm4       1.0  0.04525  0.38571  0.03896  1.0000 2.0856273844
H   H1        1.0  0.82920  0.81560  0.41140  1.0000 0.1201064288
H   H2        1.0  0.81560  0.82920  0.08860  1.0000 0.1201064288
H   H3        1.0  0.17080  0.18440  0.58860  1.0000 0.1201064288
H   H4        1.0  0.18440  0.17080  0.91140  1.0000 0.1201064288
H   H5        1.0  0.86210  0.68350  0.37020  1.0000 0.1138379461
H   H6        1.0  0.68350  0.86210  0.12980  1.0000 0.1138379461
H   H7        1.0  0.13790  0.31650  0.62980  1.0000 0.1138379461
H   H8        1.0  0.31650  0.13790  0.87020  1.0000 0.1138379461
H   H9        1.0  0.53760  0.45040  0.38430  1.0000 0.1201064288
H   H10       1.0  0.45040  0.53760  0.11570  1.0000 0.1201064288
H   H11       1.0  0.46240  0.54960  0.61570  1.0000 0.1201064288
H   H12       1.0  0.54960  0.46240  0.88430  1.0000 0.1201064288
H   H13       1.0  0.50710  0.58510  0.42260  1.0000 0.1138379461
H   H14       1.0  0.58510  0.50710  0.07740  1.0000 0.1138379461
H   H15       1.0  0.49290  0.41490  0.57740  1.0000 0.1138379461
H   H16       1.0  0.41490  0.49290  0.92260  1.0000 0.1138379461
H   H17       1.0  0.83500  0.56860  0.24500  1.0000 0.1201064288
H   H18       1.0  0.56860  0.83500  0.25500  1.0000 0.1201064288
H   H19       1.0  0.16500  0.43140  0.75500  1.0000 0.1201064288
H   H20       1.0  0.43140  0.16500  0.74500  1.0000 0.1201064288
H   H21       1.0  0.83250  0.28330  0.31360  1.0000 0.1300699095
H   H22       1.0  0.28330  0.83250  0.18640  1.0000 0.1300699095
H   H23       1.0  0.16750  0.71670  0.68640  1.0000 0.1300699095
H   H24       1.0  0.71670  0.16750  0.81360  1.0000 0.1300699095
H   H25       1.0  0.63010  0.33930  0.44220  1.0000 0.1300699095
H   H26       1.0  0.33930  0.63010  0.05780  1.0000 0.1300699095
H   H27       1.0  0.36990  0.66070  0.55780  1.0000 0.1300699095
H   H28       1.0  0.66070  0.36990  0.94220  1.0000 0.1300699095
C   C1        1.0  0.64422  0.79482  0.46252  1.0000 0.5627704634
C   C2        1.0  0.79482  0.64422  0.03748  1.0000 0.5627704634
C   C3        1.0  0.35578  0.20518  0.53748  1.0000 0.5627704634
C   C4        1.0  0.20518  0.35578  0.96252  1.0000 0.5627704634
C   C5        1.0  0.66416  0.71220  0.42526  1.0000 -0.0255925524
C   C6        1.0  0.71220  0.66416  0.07474  1.0000 -0.0255925524
C   C7        1.0  0.33584  0.28780  0.57474  1.0000 -0.0255925524
C   C8        1.0  0.28780  0.33584  0.92526  1.0000 -0.0255925524
C   C9        1.0  0.77062  0.74218  0.40680  1.0000 -0.098681084
C   C10       1.0  0.74218  0.77062  0.09320  1.0000 -0.098681084
C   C11       1.0  0.22938  0.25782  0.59320  1.0000 -0.098681084
C   C12       1.0  0.25782  0.22938  0.90680  1.0000 -0.098681084
C   C13       1.0  0.79001  0.66259  0.38150  1.0000 -0.1514282997
C   C14       1.0  0.66259  0.79001  0.11850  1.0000 -0.1514282997
C   C15       1.0  0.20999  0.33741  0.61850  1.0000 -0.1514282997
C   C16       1.0  0.33741  0.20999  0.88150  1.0000 -0.1514282997
C   C17       1.0  0.70384  0.55204  0.37253  1.0000 0.0697398855
C   C18       1.0  0.55204  0.70384  0.12747  1.0000 0.0697398855
C   C19       1.0  0.29616  0.44796  0.62747  1.0000 0.0697398855
C   C20       1.0  0.44796  0.29616  0.87253  1.0000 0.0697398855
C   C21       1.0  0.59698  0.52342  0.38930  1.0000 -0.1514282997
C   C22       1.0  0.52342  0.59698  0.11070  1.0000 -0.1514282997
C   C23       1.0  0.40302  0.47658  0.61070  1.0000 -0.1514282997
C   C24       1.0  0.47658  0.40302  0.88930  1.0000 -0.1514282997
C   C25       1.0  0.57931  0.60469  0.41380  1.0000 -0.098681084
C   C26       1.0  0.60469  0.57931  0.08620  1.0000 -0.098681084
C   C27       1.0  0.42069  0.39531  0.58620  1.0000 -0.098681084
C   C28       1.0  0.39531  0.42069  0.91380  1.0000 -0.098681084
C   C29       1.0  0.73071  0.46943  0.34981  1.0000 0.0574533175
C   C30       1.0  0.46943  0.73071  0.15019  1.0000 0.0574533175
C   C31       1.0  0.26929  0.53057  0.65019  1.0000 0.0574533175
C   C32       1.0  0.53057  0.26929  0.84981  1.0000 0.0574533175
C   C33       1.0  0.80724  0.49962  0.28086  1.0000 -0.1425206513
C   C34       1.0  0.49962  0.80724  0.21914  1.0000 -0.1425206513
C   C35       1.0  0.19276  0.50038  0.71914  1.0000 -0.1425206513
C   C36       1.0  0.50038  0.19276  0.78086  1.0000 -0.1425206513
C   C37       1.0  0.84364  0.43034  0.26370  1.0000 -0.0174109673
C   C38       1.0  0.43034  0.84364  0.23630  1.0000 -0.0174109673
C   C39       1.0  0.15636  0.56966  0.73630  1.0000 -0.0174109673
C   C40       1.0  0.56966  0.15636  0.76370  1.0000 -0.0174109673
C   C41       1.0  0.80466  0.32842  0.32003  1.0000 -0.1079327539
C   C42       1.0  0.32842  0.80466  0.17997  1.0000 -0.1079327539
C   C43       1.0  0.19534  0.67158  0.67997  1.0000 -0.1079327539
C   C44       1.0  0.67158  0.19534  0.82003  1.0000 -0.1079327539
C   C45       1.0  0.72335  0.29459  0.38629  1.0000 -0.0174109673
C   C46       1.0  0.29459  0.72335  0.11371  1.0000 -0.0174109673
C   C47       1.0  0.27665  0.70541  0.61371  1.0000 -0.0174109673
C   C48       1.0  0.70541  0.27665  0.88629  1.0000 -0.0174109673
C   C49       1.0  0.68585  0.36357  0.39964  1.0000 -0.1514282997
C   C50       1.0  0.36357  0.68585  0.10036  1.0000 -0.1514282997
C   C51       1.0  0.31415  0.63643  0.60036  1.0000 -0.1514282997
C   C52       1.0  0.63643  0.31415  0.89964  1.0000 -0.1514282997
C   C53       1.0  0.92159  0.46417  0.18315  1.0000 0.6418466642
C   C54       1.0  0.46417  0.92159  0.31685  1.0000 0.6418466642
C   C55       1.0  0.07841  0.53583  0.81685  1.0000 0.6418466642
C   C56       1.0  0.53583  0.07841  0.68315  1.0000 0.6418466642
C   C57       1.0  0.67952  0.18108  0.44127  1.0000 0.6314368768
C   C58       1.0  0.18108  0.67952  0.05873  1.0000 0.6314368768
C   C59       1.0  0.32048  0.81892  0.55873  1.0000 0.6314368768
C   C60       1.0  0.81892  0.32048  0.94127  1.0000 0.6314368768
O   O1        1.0  0.54996  0.76388  0.48601  1.0000 -0.6206650213
O   O2        1.0  0.76388  0.54996  0.01399  1.0000 -0.6206650213
O   O3        1.0  0.45004  0.23612  0.51399  1.0000 -0.6206650213
O   O4        1.0  0.23612  0.45004  0.98601  1.0000 -0.6206650213
O   O5        1.0  0.72566  0.89444  0.47178  1.0000 -0.6515954958
O   O6        1.0  0.89444  0.72566  0.02822  1.0000 -0.6515954958
O   O7        1.0  0.27434  0.10556  0.52822  1.0000 -0.6515954958
O   O8        1.0  0.10556  0.27434  0.97178  1.0000 -0.6515954958
O   O9        1.0  0.58265  0.12811  0.46959  1.0000 -0.7450289653
O   O10       1.0  0.12811  0.58265  0.03041  1.0000 -0.7445235179
O   O11       1.0  0.41735  0.87189  0.53041  1.0000 -0.7445235179
O   O12       1.0  0.87189  0.41735  0.96959  1.0000 -0.7445235179
O   O13       1.0  0.74145  0.14071  0.45655  1.0000 -0.6117296444
O   O14       1.0  0.14071  0.74145  0.04345  1.0000 -0.6117296444
O   O15       1.0  0.25855  0.85929  0.54345  1.0000 -0.6117296444
O   O16       1.0  0.85929  0.25855  0.95655  1.0000 -0.6117296444
O   O17       1.0  0.94951  0.39563  0.16989  1.0000 -0.6844874547
O   O18       1.0  0.39563  0.94951  0.33011  1.0000 -0.6854236052
O   O19       1.0  0.05049  0.60437  0.83011  1.0000 -0.6854236052
O   O20       1.0  0.60437  0.05049  0.66989  1.0000 -0.6854236052
O   O21       1.0  0.95138  0.55520  0.13596  1.0000 -0.6206650213
O   O22       1.0  0.55520  0.95138  0.36404  1.0000 -0.6206650213
O   O23       1.0  0.04862  0.44480  0.86404  1.0000 -0.6206650213
O   O24       1.0  0.44480  0.04862  0.63596  1.0000 -0.6206650213
