# DDEC6 charges by PACMAN v1.1 (https://github.com/mtap-research/PACMAN-charge/)
data_2014[Co][nan]3[ASR]23
_chemical_formula_sum              "Co6 H6 C24 O18"
_cell_length_a       15.0961
_cell_length_b       15.0961
_cell_length_c       15.0961
_cell_angle_alpha    117.794
_cell_angle_beta     117.794
_cell_angle_gamma    117.794

_symmetry_space_group_name_H-M    "P 1"
_symmetry_Int_Tables_number       1

loop_
  _symmetry_equiv_pos_as_xyz
  'x, y, z'

loop_
  _atom_site_type_symbol
  _atom_site_label
  _atom_site_symmetry_multiplicity
  _atom_site_fract_x
  _atom_site_fract_y
  _atom_site_fract_z
  _atom_site_occupancy
  _atom_site_charge
Co  Co1       1.0  0.89810  0.19730  0.61460  1.0000 1.012612511
Co  Co2       1.0  0.19730  0.61460  0.89810  1.0000 1.012612511
Co  Co3       1.0  0.61460  0.89810  0.19730  1.0000 1.012612511
Co  Co4       1.0  0.19730  0.89810  0.61460  1.0000 1.012612511
Co  Co5       1.0  0.89810  0.61460  0.19730  1.0000 1.012612511
Co  Co6       1.0  0.61460  0.19730  0.89810  1.0000 1.012612511
H   H1        1.0  0.77085  0.28230  0.77085  1.0000 0.1726063631
H   H2        1.0  0.28230  0.77085  0.77085  1.0000 0.1726063631
H   H3        1.0  0.77085  0.77085  0.28230  1.0000 0.1726063631
H   H4        1.0  0.46595  0.89310  0.46595  1.0000 0.1367162756
H   H5        1.0  0.89310  0.46595  0.46595  1.0000 0.1367162756
H   H6        1.0  0.46595  0.46595  0.89310  1.0000 0.1367162756
C   C1        1.0  0.05580  0.49400  0.96210  1.0000 0.3472192429
C   C2        1.0  0.49400  0.96210  0.05580  1.0000 0.3472192429
C   C3        1.0  0.96210  0.05580  0.49400  1.0000 0.3472192429
C   C4        1.0  0.49400  0.05580  0.96210  1.0000 0.3472192429
C   C5        1.0  0.05580  0.96210  0.49400  1.0000 0.3472192429
C   C6        1.0  0.96210  0.49400  0.05580  1.0000 0.3472192429
C   C7        1.0  0.91990  0.41950  0.91990  1.0000 -0.3224555659
C   C8        1.0  0.41950  0.91990  0.91990  1.0000 -0.3224555659
C   C9        1.0  0.91990  0.91990  0.41950  1.0000 -0.3224555659
C   C10       1.0  0.26710  0.68170  0.17210  1.0000 -0.2162565895
C   C11       1.0  0.68170  0.17210  0.26710  1.0000 -0.2162565895
C   C12       1.0  0.17210  0.26710  0.68170  1.0000 -0.2162565895
C   C13       1.0  0.68170  0.26710  0.17210  1.0000 -0.2162565895
C   C14       1.0  0.26710  0.17210  0.68170  1.0000 -0.2162565895
C   C15       1.0  0.17210  0.68170  0.26710  1.0000 -0.2162565895
C   C16       1.0  0.43550  0.79360  0.25060  1.0000 0.6000988178
C   C17       1.0  0.79360  0.25060  0.43550  1.0000 0.6000988178
C   C18       1.0  0.25060  0.43550  0.79360  1.0000 0.6000988178
C   C19       1.0  0.79360  0.43550  0.25060  1.0000 0.6000988178
C   C20       1.0  0.43550  0.25060  0.79360  1.0000 0.6000988178
C   C21       1.0  0.25060  0.79360  0.43550  1.0000 0.6000988178
C   C22       1.0  0.32235  0.76360  0.32235  1.0000 -0.0377633194
C   C23       1.0  0.76360  0.32235  0.32235  1.0000 -0.0377633194
C   C24       1.0  0.32235  0.32235  0.76360  1.0000 -0.0377633194
O   O1        1.0  0.99830  0.41560  0.81600  1.0000 -0.6068653968
O   O2        1.0  0.41560  0.81600  0.99830  1.0000 -0.6068653968
O   O3        1.0  0.81600  0.99830  0.41560  1.0000 -0.6068653968
O   O4        1.0  0.41560  0.99830  0.81600  1.0000 -0.6068653968
O   O5        1.0  0.99830  0.81600  0.41560  1.0000 -0.6068653968
O   O6        1.0  0.81600  0.41560  0.99830  1.0000 -0.6068653968
O   O7        1.0  0.39820  0.73680  0.12210  1.0000 -0.5820650665
O   O8        1.0  0.73680  0.12210  0.39820  1.0000 -0.5820650665
O   O9        1.0  0.12210  0.39820  0.73680  1.0000 -0.5820650665
O   O10       1.0  0.73680  0.39820  0.12210  1.0000 -0.5820650665
O   O11       1.0  0.39820  0.12210  0.73680  1.0000 -0.5820650665
O   O12       1.0  0.12210  0.73680  0.39820  1.0000 -0.5820650665
O   O13       1.0  0.62230  0.94820  0.44320  1.0000 -0.5292953955
O   O14       1.0  0.94820  0.44320  0.62230  1.0000 -0.5292953955
O   O15       1.0  0.44320  0.62230  0.94820  1.0000 -0.5292953955
O   O16       1.0  0.94820  0.62230  0.44320  1.0000 -0.5292953955
O   O17       1.0  0.62230  0.44320  0.94820  1.0000 -0.5292953955
O   O18       1.0  0.44320  0.94820  0.62230  1.0000 -0.5292953955
