# DDEC6 charges by PACMAN v1.1 (https://github.com/mtap-research/PACMAN-charge/)
data_2014[Nd][nan]3[ASR]1
_chemical_formula_sum              "Nd4 H28 C60 O24"
_cell_length_a       14.212
_cell_length_b       14.212
_cell_length_c       13.6832
_cell_angle_alpha    82.1769
_cell_angle_beta     97.8231
_cell_angle_gamma    122.097

_symmetry_space_group_name_H-M    "P 1"
_symmetry_Int_Tables_number       1

loop_
  _symmetry_equiv_pos_as_xyz
  'x, y, z'

loop_
  _atom_site_type_symbol
  _atom_site_label
  _atom_site_symmetry_multiplicity
  _atom_site_fract_x
  _atom_site_fract_y
  _atom_site_fract_z
  _atom_site_occupancy
  _atom_site_charge
Nd  Nd1       1.0  0.61408  0.95395  0.53886  1.0000 2.0797029186
Nd  Nd2       1.0  0.95395  0.61408  0.96114  1.0000 2.0797029186
Nd  Nd3       1.0  0.38592  0.04605  0.46114  1.0000 2.0740492988
Nd  Nd4       1.0  0.04605  0.38592  0.03886  1.0000 2.0740492988
H   H1        1.0  0.82990  0.81410  0.41200  1.0000 0.1183399572
H   H2        1.0  0.81409  0.82990  0.08800  1.0000 0.1292530853
H   H3        1.0  0.17010  0.18590  0.58800  1.0000 0.1292530853
H   H4        1.0  0.18590  0.17010  0.91200  1.0000 0.1183399572
H   H5        1.0  0.86050  0.68029  0.37210  1.0000 0.1183399572
H   H6        1.0  0.68029  0.86050  0.12790  1.0000 0.1183399572
H   H7        1.0  0.13950  0.31971  0.62790  1.0000 0.1183399572
H   H8        1.0  0.31971  0.13950  0.87210  1.0000 0.1144692588
H   H9        1.0  0.53660  0.44899  0.38310  1.0000 0.1183399572
H   H10       1.0  0.44899  0.53660  0.11690  1.0000 0.1183399572
H   H11       1.0  0.46340  0.55100  0.61690  1.0000 0.1183399572
H   H12       1.0  0.55100  0.46340  0.88310  1.0000 0.1183399572
H   H13       1.0  0.50620  0.58300  0.42170  1.0000 0.1144692588
H   H14       1.0  0.58299  0.50620  0.07830  1.0000 0.1144692588
H   H15       1.0  0.49380  0.41701  0.57830  1.0000 0.1144692588
H   H16       1.0  0.41700  0.49380  0.92170  1.0000 0.1144692588
H   H17       1.0  0.83310  0.56869  0.24470  1.0000 0.1183399572
H   H18       1.0  0.56869  0.83310  0.25530  1.0000 0.1183399572
H   H19       1.0  0.16690  0.43130  0.75530  1.0000 0.1183399572
H   H20       1.0  0.43130  0.16690  0.74470  1.0000 0.1183399572
H   H21       1.0  0.83410  0.28549  0.31480  1.0000 0.1292530853
H   H22       1.0  0.28549  0.83410  0.18520  1.0000 0.1292530853
H   H23       1.0  0.16590  0.71450  0.68520  1.0000 0.1292530853
H   H24       1.0  0.71450  0.16590  0.81480  1.0000 0.1292530853
H   H25       1.0  0.62950  0.33869  0.44190  1.0000 0.1292530853
H   H26       1.0  0.33869  0.62950  0.05810  1.0000 0.1292530853
H   H27       1.0  0.37050  0.66130  0.55810  1.0000 0.1292530853
H   H28       1.0  0.66131  0.37050  0.94190  1.0000 0.1292530853
C   C1        1.0  0.64384  0.79273  0.46206  1.0000 0.5613619585
C   C2        1.0  0.79273  0.64384  0.03794  1.0000 0.5613619585
C   C3        1.0  0.35616  0.20726  0.53794  1.0000 0.5613619585
C   C4        1.0  0.20727  0.35616  0.96206  1.0000 0.5613619585
C   C5        1.0  0.66336  0.71013  0.42455  1.0000 -0.0256532196
C   C6        1.0  0.71013  0.66336  0.07545  1.0000 -0.0256532196
C   C7        1.0  0.33664  0.28986  0.57545  1.0000 -0.0256532196
C   C8        1.0  0.28986  0.33664  0.92455  1.0000 -0.0256532196
C   C9        1.0  0.77099  0.74081  0.40720  1.0000 -0.1000185858
C   C10       1.0  0.74081  0.77099  0.09280  1.0000 -0.1000185858
C   C11       1.0  0.22901  0.25920  0.59280  1.0000 -0.1000185858
C   C12       1.0  0.25919  0.22901  0.90720  1.0000 -0.1000185858
C   C13       1.0  0.78861  0.66019  0.38260  1.0000 -0.1512064972
C   C14       1.0  0.66019  0.78861  0.11740  1.0000 -0.1512064972
C   C15       1.0  0.21139  0.33981  0.61740  1.0000 -0.1512064972
C   C16       1.0  0.33981  0.21139  0.88260  1.0000 -0.1512064972
C   C17       1.0  0.70268  0.55046  0.37304  1.0000 0.0702625822
C   C18       1.0  0.55046  0.70268  0.12696  1.0000 0.0702625822
C   C19       1.0  0.29732  0.44954  0.62696  1.0000 0.0702625822
C   C20       1.0  0.44954  0.29732  0.87304  1.0000 0.0702625822
C   C21       1.0  0.59593  0.52187  0.38877  1.0000 -0.1512064972
C   C22       1.0  0.52187  0.59593  0.11123  1.0000 -0.1512064972
C   C23       1.0  0.40407  0.47813  0.61123  1.0000 -0.1512064972
C   C24       1.0  0.47814  0.40407  0.88877  1.0000 -0.1512064972
C   C25       1.0  0.57838  0.60257  0.41298  1.0000 -0.1000185858
C   C26       1.0  0.60257  0.57838  0.08702  1.0000 -0.1000185858
C   C27       1.0  0.42162  0.39742  0.58702  1.0000 -0.1000185858
C   C28       1.0  0.39742  0.42162  0.91298  1.0000 -0.1000185858
C   C29       1.0  0.73052  0.46796  0.35106  1.0000 0.0563273869
C   C30       1.0  0.46796  0.73052  0.14894  1.0000 0.0563273869
C   C31       1.0  0.26948  0.53204  0.64894  1.0000 0.0563273869
C   C32       1.0  0.53204  0.26948  0.85106  1.0000 0.0563273869
C   C33       1.0  0.80681  0.50026  0.28095  1.0000 -0.1430080708
C   C34       1.0  0.50026  0.80681  0.21905  1.0000 -0.1430080708
C   C35       1.0  0.19319  0.49973  0.71905  1.0000 -0.1430080708
C   C36       1.0  0.49973  0.19319  0.78095  1.0000 -0.1430080708
C   C37       1.0  0.84423  0.43052  0.26459  1.0000 -0.0187719158
C   C38       1.0  0.43052  0.84423  0.23541  1.0000 -0.0187719158
C   C39       1.0  0.15577  0.56948  0.73541  1.0000 -0.0187719158
C   C40       1.0  0.56947  0.15577  0.76459  1.0000 -0.0187719158
C   C41       1.0  0.80561  0.32984  0.32109  1.0000 -0.1000185858
C   C42       1.0  0.32984  0.80561  0.17891  1.0000 -0.1000185858
C   C43       1.0  0.19439  0.67015  0.67891  1.0000 -0.1000185858
C   C44       1.0  0.67015  0.19439  0.82109  1.0000 -0.1000185858
C   C45       1.0  0.72494  0.29479  0.38686  1.0000 -0.0187719158
C   C46       1.0  0.29479  0.72494  0.11314  1.0000 -0.0187719158
C   C47       1.0  0.27506  0.70520  0.61314  1.0000 -0.0187719158
C   C48       1.0  0.70520  0.27506  0.88686  1.0000 -0.0187719158
C   C49       1.0  0.68586  0.36351  0.40002  1.0000 -0.1512064972
C   C50       1.0  0.36351  0.68586  0.09998  1.0000 -0.1512064972
C   C51       1.0  0.31414  0.63648  0.59998  1.0000 -0.1512064972
C   C52       1.0  0.63648  0.31414  0.90002  1.0000 -0.1512064972
C   C53       1.0  0.92266  0.46561  0.18486  1.0000 0.6363015521
C   C54       1.0  0.46561  0.92266  0.31514  1.0000 0.6363015521
C   C55       1.0  0.07734  0.53438  0.81514  1.0000 0.6363015521
C   C56       1.0  0.53438  0.07734  0.68486  1.0000 0.6363015521
C   C57       1.0  0.68159  0.18248  0.44081  1.0000 0.6257203717
C   C58       1.0  0.18249  0.68159  0.05919  1.0000 0.6257203717
C   C59       1.0  0.31841  0.81751  0.55919  1.0000 0.6257203717
C   C60       1.0  0.81751  0.31841  0.94081  1.0000 0.6257203717
O   O1        1.0  0.54884  0.76177  0.48420  1.0000 -0.6212442171
O   O2        1.0  0.76177  0.54884  0.01580  1.0000 -0.6212442171
O   O3        1.0  0.45116  0.23822  0.51580  1.0000 -0.6212442171
O   O4        1.0  0.23822  0.45116  0.98420  1.0000 -0.6212442171
O   O5        1.0  0.72510  0.89150  0.47199  1.0000 -0.6455621671
O   O6        1.0  0.89149  0.72510  0.02801  1.0000 -0.6455621671
O   O7        1.0  0.27490  0.10850  0.52801  1.0000 -0.6444820713
O   O8        1.0  0.10850  0.27490  0.97199  1.0000 -0.6455621671
O   O9        1.0  0.58491  0.12932  0.47098  1.0000 -0.7500707906
O   O10       1.0  0.12932  0.58491  0.02902  1.0000 -0.7500707906
O   O11       1.0  0.41509  0.87067  0.52902  1.0000 -0.7500707906
O   O12       1.0  0.87067  0.41509  0.97098  1.0000 -0.7500707906
O   O13       1.0  0.74311  0.14197  0.45544  1.0000 -0.6090929162
O   O14       1.0  0.14196  0.74311  0.04456  1.0000 -0.6090929162
O   O15       1.0  0.25689  0.85803  0.54456  1.0000 -0.6090929162
O   O16       1.0  0.85803  0.25689  0.95544  1.0000 -0.6090929162
O   O17       1.0  0.95149  0.39703  0.17232  1.0000 -0.6908294957
O   O18       1.0  0.39702  0.95149  0.32768  1.0000 -0.6908294957
O   O19       1.0  0.04851  0.60298  0.82768  1.0000 -0.6908294957
O   O20       1.0  0.60298  0.04851  0.67232  1.0000 -0.6908294957
O   O21       1.0  0.95222  0.55524  0.13841  1.0000 -0.6012641739
O   O22       1.0  0.55523  0.95222  0.36159  1.0000 -0.6012641739
O   O23       1.0  0.04778  0.44477  0.86159  1.0000 -0.6012641739
O   O24       1.0  0.44476  0.04778  0.63841  1.0000 -0.6012641739
