# DDEC6 charges by PACMAN v1.1 (https://github.com/mtap-research/PACMAN-charge/)
data_2014[Cu][bnn]3[ASR]1
_chemical_formula_sum              "Cu4 H100 C108 S4 N16 O24"
_cell_length_a       11.1608
_cell_length_b       14.845
_cell_length_c       18.355
_cell_angle_alpha    90
_cell_angle_beta     90
_cell_angle_gamma    90

_symmetry_space_group_name_H-M    "P 1"
_symmetry_Int_Tables_number       1

loop_
  _symmetry_equiv_pos_as_xyz
  'x, y, z'

loop_
  _atom_site_type_symbol
  _atom_site_label
  _atom_site_symmetry_multiplicity
  _atom_site_fract_x
  _atom_site_fract_y
  _atom_site_fract_z
  _atom_site_occupancy
  _atom_site_charge
Cu  Cu1       1.0  0.89953  0.21103  0.22080  1.0000 0.6921747226
Cu  Cu2       1.0  0.89953  0.78897  0.77920  1.0000 0.6921747226
Cu  Cu3       1.0  0.10047  0.28897  0.72080  1.0000 0.6921747226
Cu  Cu4       1.0  0.10047  0.71103  0.27920  1.0000 0.6921747226
H   H1        1.0  0.49430  0.92690  0.05870  1.0000 0.1311891187
H   H2        1.0  0.49430  0.07310  0.94130  1.0000 0.1311891187
H   H3        1.0  0.50570  0.57310  0.55870  1.0000 0.1311891187
H   H4        1.0  0.50570  0.42690  0.44130  1.0000 0.1311891187
H   H5        1.0  0.34430  0.95210  0.14140  1.0000 0.1311891187
H   H6        1.0  0.34430  0.04790  0.85860  1.0000 0.1311891187
H   H7        1.0  0.65570  0.54790  0.64140  1.0000 0.1311891187
H   H8        1.0  0.65570  0.45210  0.35860  1.0000 0.1311891187
H   H9        1.0  0.57630  0.92840  0.30370  1.0000 0.1311891187
H   H10       1.0  0.57630  0.07160  0.69630  1.0000 0.1311891187
H   H11       1.0  0.42370  0.57160  0.80370  1.0000 0.1311891187
H   H12       1.0  0.42370  0.42840  0.19630  1.0000 0.1311891187
H   H13       1.0  0.72420  0.89840  0.22210  1.0000 0.1196558151
H   H14       1.0  0.72420  0.10160  0.77790  1.0000 0.1196558151
H   H15       1.0  0.27580  0.60160  0.72210  1.0000 0.1196558151
H   H16       1.0  0.27580  0.39840  0.27790  1.0000 0.1196558151
H   H17       1.0  0.32160  0.89180  0.30420  1.0000 0.1388819053
H   H18       1.0  0.32160  0.10820  0.69580  1.0000 0.1388819053
H   H19       1.0  0.67840  0.60820  0.80420  1.0000 0.1388819053
H   H20       1.0  0.67840  0.39180  0.19580  1.0000 0.1388819053
H   H21       1.0  0.27520  0.97610  0.26120  1.0000 0.1311891187
H   H22       1.0  0.27520  0.02390  0.73880  1.0000 0.1311891187
H   H23       1.0  0.72480  0.52390  0.76120  1.0000 0.1311891187
H   H24       1.0  0.72480  0.47610  0.23880  1.0000 0.1311891187
H   H25       1.0  0.36790  0.98820  0.32460  1.0000 0.1311891187
H   H26       1.0  0.36790  0.01180  0.67540  1.0000 0.1311891187
H   H27       1.0  0.63210  0.51180  0.82460  1.0000 0.1311891187
H   H28       1.0  0.63210  0.48820  0.17540  1.0000 0.1311891187
H   H29       1.0  0.91360  0.90030  0.16830  1.0000 0.0988585475
H   H30       1.0  0.91360  0.09970  0.83170  1.0000 0.0988585475
H   H31       1.0  0.08640  0.59970  0.66830  1.0000 0.0988585475
H   H32       1.0  0.08640  0.40030  0.33170  1.0000 0.0988585475
H   H33       1.0  0.11250  0.95990  0.15280  1.0000 0.1115526539
H   H34       1.0  0.11250  0.04010  0.84720  1.0000 0.1115526539
H   H35       1.0  0.88750  0.54010  0.65280  1.0000 0.1115526539
H   H36       1.0  0.88750  0.45990  0.34720  1.0000 0.1115526539
H   H37       1.0  0.07270  0.99460  0.07590  1.0000 0.1115526539
H   H38       1.0  0.07270  0.00540  0.92410  1.0000 0.1115526539
H   H39       1.0  0.92730  0.50540  0.57590  1.0000 0.1115526539
H   H40       1.0  0.92730  0.49460  0.42410  1.0000 0.1115526539
H   H41       1.0  0.02990  0.84200  0.04220  1.0000 0.1311891187
H   H42       1.0  0.02990  0.15800  0.95780  1.0000 0.1311891187
H   H43       1.0  0.97010  0.65800  0.54220  1.0000 0.1311891187
H   H44       1.0  0.97010  0.34200  0.45780  1.0000 0.1311891187
H   H45       1.0  0.16640  0.86020  0.05490  1.0000 0.1196558151
H   H46       1.0  0.16640  0.13980  0.94510  1.0000 0.1196558151
H   H47       1.0  0.83360  0.63980  0.55490  1.0000 0.1196558151
H   H48       1.0  0.83360  0.36020  0.44510  1.0000 0.1196558151
H   H49       1.0  0.85000  0.25090  0.04430  1.0000 0.1115526539
H   H50       1.0  0.85000  0.74910  0.95570  1.0000 0.1115526539
H   H51       1.0  0.15000  0.24910  0.54430  1.0000 0.1115526539
H   H52       1.0  0.15000  0.75090  0.45570  1.0000 0.1115526539
H   H53       1.0  0.84780  0.36240  0.96090  1.0000 0.1467974737
H   H54       1.0  0.84780  0.63760  0.03910  1.0000 0.1467974737
H   H55       1.0  0.15220  0.13760  0.46090  1.0000 0.1467974737
H   H56       1.0  0.15220  0.86240  0.53910  1.0000 0.1467974737
H   H57       1.0  0.95780  0.53320  0.11310  1.0000 0.1467974737
H   H58       1.0  0.95780  0.46680  0.88690  1.0000 0.1467974737
H   H59       1.0  0.04220  0.96680  0.61310  1.0000 0.1467974737
H   H60       1.0  0.04220  0.03320  0.38690  1.0000 0.1467974737
H   H61       1.0  0.95640  0.41750  0.19520  1.0000 0.1196558151
H   H62       1.0  0.95640  0.58250  0.80480  1.0000 0.1196558151
H   H63       1.0  0.04360  0.08250  0.69520  1.0000 0.1196558151
H   H64       1.0  0.04360  0.91750  0.30480  1.0000 0.1196558151
H   H65       1.0  0.69080  0.21170  0.33040  1.0000 0.1115526539
H   H66       1.0  0.69080  0.78830  0.66960  1.0000 0.1115526539
H   H67       1.0  0.30920  0.28830  0.83040  1.0000 0.1115526539
H   H68       1.0  0.30920  0.71170  0.16960  1.0000 0.1115526539
H   H69       1.0  0.48910  0.20180  0.33100  1.0000 0.1388819053
H   H70       1.0  0.48910  0.79820  0.66900  1.0000 0.1388819053
H   H71       1.0  0.51090  0.29820  0.83100  1.0000 0.1388819053
H   H72       1.0  0.51090  0.70180  0.16900  1.0000 0.1388819053
H   H73       1.0  0.49620  0.17050  0.11680  1.0000 0.1388819053
H   H74       1.0  0.49620  0.82950  0.88320  1.0000 0.1388819053
H   H75       1.0  0.50380  0.32950  0.61680  1.0000 0.1388819053
H   H76       1.0  0.50380  0.67050  0.38320  1.0000 0.1388819053
H   H77       1.0  0.69930  0.17700  0.12180  1.0000 0.1115526539
H   H78       1.0  0.69930  0.82300  0.87820  1.0000 0.1115526539
H   H79       1.0  0.30070  0.32300  0.62180  1.0000 0.1115526539
H   H80       1.0  0.30070  0.67700  0.37820  1.0000 0.1115526539
H   H81       1.0  0.30310  0.16200  0.32720  1.0000 0.1311891187
H   H82       1.0  0.30310  0.83800  0.67280  1.0000 0.1388819053
H   H83       1.0  0.69690  0.33800  0.82720  1.0000 0.1388819053
H   H84       1.0  0.69690  0.66200  0.17280  1.0000 0.1311891187
H   H85       1.0  0.10060  0.17460  0.32360  1.0000 0.1115526539
H   H86       1.0  0.10060  0.82540  0.67640  1.0000 0.1115526539
H   H87       1.0  0.89940  0.32540  0.82360  1.0000 0.1115526539
H   H88       1.0  0.89940  0.67460  0.17640  1.0000 0.1115526539
H   H89       1.0  0.10800  0.22850  0.11640  1.0000 0.1115526539
H   H90       1.0  0.10800  0.77150  0.88360  1.0000 0.1115526539
H   H91       1.0  0.89200  0.27150  0.61640  1.0000 0.1115526539
H   H92       1.0  0.89200  0.72850  0.38360  1.0000 0.1115526539
H   H93       1.0  0.31160  0.22070  0.11600  1.0000 0.1311891187
H   H94       1.0  0.31160  0.77930  0.88400  1.0000 0.1311891187
H   H95       1.0  0.68840  0.27930  0.61600  1.0000 0.1311891187
H   H96       1.0  0.68840  0.72070  0.38400  1.0000 0.1311891187
H   H97       1.0  0.82630  0.00740  0.05880  1.0000 0.2846838731
H   H98       1.0  0.82630  0.99260  0.94120  1.0000 0.2846838731
H   H99       1.0  0.17370  0.49260  0.55880  1.0000 0.2846838731
H   H100      1.0  0.17370  0.50740  0.44120  1.0000 0.2846838731
C   C1        1.0  0.51120  0.92620  0.10830  1.0000 -0.1049616587
C   C2        1.0  0.51120  0.07380  0.89170  1.0000 -0.1049616587
C   C3        1.0  0.48880  0.57380  0.60830  1.0000 -0.1117894667
C   C4        1.0  0.48880  0.42620  0.39170  1.0000 -0.1049616587
C   C5        1.0  0.42170  0.94100  0.15790  1.0000 -0.1707103195
C   C6        1.0  0.42170  0.05900  0.84210  1.0000 -0.1707103195
C   C7        1.0  0.57830  0.55900  0.65790  1.0000 -0.1707103195
C   C8        1.0  0.57830  0.44100  0.34210  1.0000 -0.1707103195
C   C9        1.0  0.44360  0.93980  0.23210  1.0000 0.165400644
C   C10       1.0  0.44360  0.06020  0.76790  1.0000 0.165400644
C   C11       1.0  0.55640  0.56020  0.73210  1.0000 0.165400644
C   C12       1.0  0.55640  0.43980  0.26790  1.0000 0.165400644
C   C13       1.0  0.55830  0.92630  0.25420  1.0000 -0.1538714718
C   C14       1.0  0.55830  0.07370  0.74580  1.0000 -0.1538714718
C   C15       1.0  0.44170  0.57370  0.75420  1.0000 -0.1538714718
C   C16       1.0  0.44170  0.42630  0.24580  1.0000 -0.1538714718
C   C17       1.0  0.64700  0.91010  0.20560  1.0000 -0.1117894667
C   C18       1.0  0.64700  0.08990  0.79440  1.0000 -0.1117894667
C   C19       1.0  0.35300  0.58990  0.70560  1.0000 -0.1117894667
C   C20       1.0  0.35300  0.41010  0.29440  1.0000 -0.1117894667
C   C21       1.0  0.62370  0.91070  0.13160  1.0000 -0.1117894667
C   C22       1.0  0.62370  0.08930  0.86840  1.0000 -0.1117894667
C   C23       1.0  0.37630  0.58930  0.63160  1.0000 -0.1117894667
C   C24       1.0  0.37630  0.41070  0.36840  1.0000 -0.1117894667
C   C25       1.0  0.34310  0.94990  0.28530  1.0000 -0.4678515222
C   C26       1.0  0.34310  0.05010  0.71470  1.0000 -0.4678515222
C   C27       1.0  0.65690  0.55010  0.78530  1.0000 -0.4678515222
C   C28       1.0  0.65690  0.44990  0.21470  1.0000 -0.4678515222
C   C29       1.0  0.93070  0.95340  0.13830  1.0000 0.0169027296
C   C30       1.0  0.93070  0.04660  0.86170  1.0000 0.0169027296
C   C31       1.0  0.06930  0.54660  0.63830  1.0000 0.0169027296
C   C32       1.0  0.06930  0.45340  0.36170  1.0000 0.0169027296
C   C33       1.0  0.91490  0.03870  0.18530  1.0000 0.5234942335
C   C34       1.0  0.91490  0.96130  0.81470  1.0000 0.5234942335
C   C35       1.0  0.08510  0.46130  0.68530  1.0000 0.5234942335
C   C36       1.0  0.08510  0.53870  0.31470  1.0000 0.5234942335
C   C37       1.0  0.05920  0.94830  0.11220  1.0000 -0.1707103195
C   C38       1.0  0.05920  0.05170  0.88780  1.0000 -0.1707103195
C   C39       1.0  0.94080  0.55170  0.61220  1.0000 -0.1707103195
C   C40       1.0  0.94080  0.44830  0.38780  1.0000 -0.1707103195
C   C41       1.0  0.08930  0.85590  0.07910  1.0000 -0.312354761
C   C42       1.0  0.08930  0.14410  0.92090  1.0000 -0.312354761
C   C43       1.0  0.91070  0.64410  0.57910  1.0000 -0.312354761
C   C44       1.0  0.91070  0.35590  0.42090  1.0000 -0.312354761
C   C45       1.0  0.09410  0.77790  0.13280  1.0000 0.5905175704
C   C46       1.0  0.09410  0.22210  0.86720  1.0000 0.5905175704
C   C47       1.0  0.90590  0.72210  0.63280  1.0000 0.5905175704
C   C48       1.0  0.90590  0.27790  0.36720  1.0000 0.5905175704
C   C49       1.0  0.87120  0.30880  0.05890  1.0000 0.0790950295
C   C50       1.0  0.87120  0.69120  0.94110  1.0000 0.0790950295
C   C51       1.0  0.12880  0.19120  0.55890  1.0000 0.0790950295
C   C52       1.0  0.12880  0.80880  0.44110  1.0000 0.0790950295
C   C53       1.0  0.87060  0.37540  0.00850  1.0000 -0.1797987298
C   C54       1.0  0.87060  0.62460  0.99150  1.0000 -0.1797987298
C   C55       1.0  0.12940  0.12460  0.50850  1.0000 -0.1797987298
C   C56       1.0  0.12940  0.87540  0.49150  1.0000 -0.1797987298
C   C57       1.0  0.90350  0.46290  0.02670  1.0000 0.0988585475
C   C58       1.0  0.90350  0.53710  0.97330  1.0000 0.0988585475
C   C59       1.0  0.09650  0.03710  0.52670  1.0000 0.0988585475
C   C60       1.0  0.09650  0.96290  0.47330  1.0000 0.0988585475
C   C61       1.0  0.93500  0.47600  0.09780  1.0000 -0.1707103195
C   C62       1.0  0.93500  0.52400  0.90220  1.0000 -0.1707103195
C   C63       1.0  0.06500  0.02400  0.59780  1.0000 -0.1707103195
C   C64       1.0  0.06500  0.97600  0.40220  1.0000 -0.1707103195
C   C65       1.0  0.93370  0.40600  0.14740  1.0000 0.0893921602
C   C66       1.0  0.93370  0.59400  0.85260  1.0000 0.0893921602
C   C67       1.0  0.06630  0.09400  0.64740  1.0000 0.0893921602
C   C68       1.0  0.06630  0.90600  0.35260  1.0000 0.0893921602
C   C69       1.0  0.65130  0.20370  0.28620  1.0000 0.0717247624
C   C70       1.0  0.65130  0.79630  0.71380  1.0000 0.0717247624
C   C71       1.0  0.34870  0.29630  0.78620  1.0000 0.0717247624
C   C72       1.0  0.34870  0.70370  0.21380  1.0000 0.0717247624
C   C73       1.0  0.52990  0.19870  0.28690  1.0000 -0.1707103195
C   C74       1.0  0.52990  0.80130  0.71310  1.0000 -0.1707103195
C   C75       1.0  0.47010  0.30130  0.78690  1.0000 -0.1707103195
C   C76       1.0  0.47010  0.69870  0.21310  1.0000 -0.1707103195
C   C77       1.0  0.46670  0.18910  0.22350  1.0000 0.0988585475
C   C78       1.0  0.46670  0.81090  0.77650  1.0000 0.0988585475
C   C79       1.0  0.53330  0.31090  0.72350  1.0000 0.0988585475
C   C80       1.0  0.53330  0.68910  0.27650  1.0000 0.0988585475
C   C81       1.0  0.53390  0.17980  0.16130  1.0000 -0.1797987298
C   C82       1.0  0.53390  0.82020  0.83870  1.0000 -0.1797987298
C   C83       1.0  0.46610  0.32020  0.66130  1.0000 -0.1797987298
C   C84       1.0  0.46610  0.67980  0.33870  1.0000 -0.1797987298
C   C85       1.0  0.65630  0.18410  0.16490  1.0000 0.0790950295
C   C86       1.0  0.65630  0.81590  0.83510  1.0000 0.0790950295
C   C87       1.0  0.34370  0.31590  0.66490  1.0000 0.0790950295
C   C88       1.0  0.34370  0.68410  0.33510  1.0000 0.0790950295
C   C89       1.0  0.33470  0.19030  0.22260  1.0000 0.0988585475
C   C90       1.0  0.33470  0.80970  0.77740  1.0000 0.0988585475
C   C91       1.0  0.66530  0.30970  0.72260  1.0000 0.0988585475
C   C92       1.0  0.66530  0.69030  0.27740  1.0000 0.0988585475
C   C93       1.0  0.26600  0.17650  0.28340  1.0000 -0.1797987298
C   C94       1.0  0.26600  0.82350  0.71660  1.0000 -0.1797987298
C   C95       1.0  0.73400  0.32350  0.78340  1.0000 -0.1797987298
C   C96       1.0  0.73400  0.67650  0.21660  1.0000 -0.1797987298
C   C97       1.0  0.14360  0.18390  0.28080  1.0000 0.0893921602
C   C98       1.0  0.14360  0.81610  0.71920  1.0000 0.0893921602
C   C99       1.0  0.85640  0.31610  0.78080  1.0000 0.0893921602
C   C100      1.0  0.85640  0.68390  0.21920  1.0000 0.0893921602
C   C101      1.0  0.14780  0.21590  0.15980  1.0000 0.0790950295
C   C102      1.0  0.14780  0.78410  0.84020  1.0000 0.0790950295
C   C103      1.0  0.85220  0.28410  0.65980  1.0000 0.0790950295
C   C104      1.0  0.85220  0.71590  0.34020  1.0000 0.0790950295
C   C105      1.0  0.27040  0.21060  0.15920  1.0000 -0.197600345
C   C106      1.0  0.27040  0.78940  0.84080  1.0000 -0.197600345
C   C107      1.0  0.72960  0.28940  0.65920  1.0000 -0.197600345
C   C108      1.0  0.72960  0.71060  0.34080  1.0000 -0.197600345
S   S1        1.0  0.73841  0.88390  0.06944  1.0000 1.0763414997
S   S2        1.0  0.73841  0.11610  0.93056  1.0000 1.0763414997
S   S3        1.0  0.26159  0.61610  0.56944  1.0000 1.0763414997
S   S4        1.0  0.26159  0.38390  0.43056  1.0000 1.0763414997
N   N1        1.0  0.71720  0.19770  0.22570  1.0000 -0.2100521427
N   N2        1.0  0.71720  0.80230  0.77430  1.0000 -0.2100521427
N   N3        1.0  0.28280  0.30230  0.72570  1.0000 -0.2100521427
N   N4        1.0  0.28280  0.69770  0.27430  1.0000 -0.2100521427
N   N5        1.0  0.08320  0.20360  0.22050  1.0000 -0.2100521427
N   N6        1.0  0.08320  0.79640  0.77950  1.0000 -0.2100521427
N   N7        1.0  0.91680  0.29640  0.72050  1.0000 -0.2100521427
N   N8        1.0  0.91680  0.70360  0.27950  1.0000 -0.2100521427
N   N9        1.0  0.90090  0.32200  0.12890  1.0000 -0.2856439751
N   N10       1.0  0.90090  0.67800  0.87110  1.0000 -0.2856439751
N   N11       1.0  0.09910  0.17800  0.62890  1.0000 -0.2856439751
N   N12       1.0  0.09910  0.82200  0.37110  1.0000 -0.2856439751
N   N13       1.0  0.84700  0.95530  0.07740  1.0000 -0.4938255723
N   N14       1.0  0.84700  0.04470  0.92260  1.0000 -0.4938255723
N   N15       1.0  0.15300  0.54470  0.57740  1.0000 -0.4938255723
N   N16       1.0  0.15300  0.45530  0.42260  1.0000 -0.4938255723
O   O1        1.0  0.91720  0.03390  0.25170  1.0000 -0.5293783349
O   O2        1.0  0.91720  0.96610  0.74830  1.0000 -0.5293783349
O   O3        1.0  0.08280  0.46610  0.75170  1.0000 -0.5293783349
O   O4        1.0  0.08280  0.53390  0.24830  1.0000 -0.5293783349
O   O5        1.0  0.90220  0.11130  0.14889  1.0000 -0.5293783349
O   O6        1.0  0.90220  0.88870  0.85111  1.0000 -0.5293783349
O   O7        1.0  0.09780  0.38870  0.64889  1.0000 -0.5293783349
O   O8        1.0  0.09780  0.61130  0.35111  1.0000 -0.5293783349
O   O9        1.0  0.09740  0.70230  0.11000  1.0000 -0.549211542
O   O10       1.0  0.09740  0.29770  0.89000  1.0000 -0.549211542
O   O11       1.0  0.90260  0.79770  0.61000  1.0000 -0.549211542
O   O12       1.0  0.90260  0.20230  0.39000  1.0000 -0.549211542
O   O13       1.0  0.09600  0.80050  0.20089  1.0000 -0.56588463
O   O14       1.0  0.09600  0.19950  0.79911  1.0000 -0.56588463
O   O15       1.0  0.90400  0.69950  0.70089  1.0000 -0.56588463
O   O16       1.0  0.90400  0.30050  0.29911  1.0000 -0.56588463
O   O17       1.0  0.78650  0.79890  0.09000  1.0000 -0.5293783349
O   O18       1.0  0.78650  0.20110  0.91000  1.0000 -0.5293783349
O   O19       1.0  0.21350  0.70110  0.59000  1.0000 -0.5293783349
O   O20       1.0  0.21350  0.29890  0.41000  1.0000 -0.5293783349
O   O21       1.0  0.69220  0.89520  0.99730  1.0000 -0.549211542
O   O22       1.0  0.69220  0.10480  0.00270  1.0000 -0.549211542
O   O23       1.0  0.30780  0.60480  0.49730  1.0000 -0.549211542
O   O24       1.0  0.30780  0.39520  0.50270  1.0000 -0.549211542
