# DDEC6 charges by PACMAN v1.1 (https://github.com/mtap-research/PACMAN-charge/)
data_2014[Cd][nan]3[ASR]12
_chemical_formula_sum              "Cd4 H48 C76 N4 O16"
_cell_length_a       12.4897
_cell_length_b       12.4897
_cell_length_c       10.66
_cell_angle_alpha    87.1426
_cell_angle_beta     92.8574
_cell_angle_gamma    87.8719

_symmetry_space_group_name_H-M    "P 1"
_symmetry_Int_Tables_number       1

loop_
  _symmetry_equiv_pos_as_xyz
  'x, y, z'

loop_
  _atom_site_type_symbol
  _atom_site_label
  _atom_site_symmetry_multiplicity
  _atom_site_fract_x
  _atom_site_fract_y
  _atom_site_fract_z
  _atom_site_occupancy
  _atom_site_charge
Cd  Cd1       1.0  0.85948  0.85948  0.75000  1.0000 0.6709062775
Cd  Cd2       1.0  0.14052  0.14052  0.25000  1.0000 0.6709062775
Cd  Cd3       1.0  0.00000  0.00000  0.00000  1.0000 1.0872781893
Cd  Cd4       1.0  0.00000  0.00000  0.50000  1.0000 1.0872781893
H   H1        1.0  0.77280  0.15980  0.95000  1.0000 0.1168220946
H   H2        1.0  0.15980  0.77280  0.55000  1.0000 0.1168220946
H   H3        1.0  0.22720  0.84020  0.05000  1.0000 0.1168220946
H   H4        1.0  0.84020  0.22720  0.45000  1.0000 0.1168220946
H   H5        1.0  0.88210  0.30390  0.64060  1.0000 0.110093413
H   H6        1.0  0.30390  0.88210  0.85940  1.0000 0.110093413
H   H7        1.0  0.11790  0.69610  0.35940  1.0000 0.110093413
H   H8        1.0  0.69610  0.11790  0.14060  1.0000 0.110093413
H   H9        1.0  0.70460  0.32220  0.00820  1.0000 0.110093413
H   H10       1.0  0.32220  0.70460  0.49180  1.0000 0.110093413
H   H11       1.0  0.29540  0.67780  0.99180  1.0000 0.110093413
H   H12       1.0  0.67780  0.29540  0.50820  1.0000 0.110093413
H   H13       1.0  0.72260  0.47520  0.88280  1.0000 0.1168220946
H   H14       1.0  0.47520  0.72260  0.61720  1.0000 0.1168220946
H   H15       1.0  0.27740  0.52480  0.11720  1.0000 0.1168220946
H   H16       1.0  0.52480  0.27740  0.38280  1.0000 0.1168220946
H   H17       1.0  0.83040  0.43640  0.50300  1.0000 0.1168220946
H   H18       1.0  0.43640  0.83040  0.99700  1.0000 0.1168220946
H   H19       1.0  0.16960  0.56360  0.49700  1.0000 0.1168220946
H   H20       1.0  0.56360  0.16960  0.00300  1.0000 0.1168220946
H   H21       1.0  0.81440  0.61240  0.80360  1.0000 0.110093413
H   H22       1.0  0.61240  0.81440  0.69640  1.0000 0.110093413
H   H23       1.0  0.18560  0.38760  0.19640  1.0000 0.110093413
H   H24       1.0  0.38760  0.18560  0.30360  1.0000 0.110093413
H   H25       1.0  0.90180  0.74540  0.48820  1.0000 0.1168220946
H   H26       1.0  0.74540  0.90180  0.01180  1.0000 0.1168220946
H   H27       1.0  0.09820  0.25460  0.51180  1.0000 0.1168220946
H   H28       1.0  0.25460  0.09820  0.98820  1.0000 0.1168220946
H   H29       1.0  0.88690  0.42290  0.32950  1.0000 0.110093413
H   H30       1.0  0.42290  0.88690  0.17050  1.0000 0.110093413
H   H31       1.0  0.11310  0.57710  0.67050  1.0000 0.110093413
H   H32       1.0  0.57710  0.11310  0.82950  1.0000 0.110093413
H   H33       1.0  0.89030  0.74390  0.28810  1.0000 0.1253724267
H   H34       1.0  0.74390  0.89030  0.21190  1.0000 0.1253724267
H   H35       1.0  0.10970  0.25610  0.71190  1.0000 0.1253724267
H   H36       1.0  0.25610  0.10970  0.78810  1.0000 0.1253724267
H   H37       1.0  0.90650  0.40790  0.11870  1.0000 0.1168220946
H   H38       1.0  0.40790  0.90650  0.38130  1.0000 0.1168220946
H   H39       1.0  0.09350  0.59210  0.88130  1.0000 0.1168220946
H   H40       1.0  0.59210  0.09350  0.61870  1.0000 0.1168220946
H   H41       1.0  0.91490  0.56210  0.98830  1.0000 0.1030417067
H   H42       1.0  0.56210  0.91490  0.51170  1.0000 0.1030417067
H   H43       1.0  0.08510  0.43790  0.01170  1.0000 0.1030417067
H   H44       1.0  0.43790  0.08510  0.48830  1.0000 0.1030417067
H   H45       1.0  0.85840  0.75300  0.68720  1.0000 0.1735693385
H   H46       1.0  0.75300  0.85840  0.81280  1.0000 0.1735693385
H   H47       1.0  0.14160  0.24700  0.31280  1.0000 0.1735693385
H   H48       1.0  0.24700  0.14160  0.18720  1.0000 0.1735693385
C   C1        1.0  0.87700  0.10740  0.74720  1.0000 0.5992950817
C   C2        1.0  0.10740  0.87700  0.75280  1.0000 0.5992950817
C   C3        1.0  0.12300  0.89260  0.25280  1.0000 0.5992950817
C   C4        1.0  0.89260  0.12300  0.24720  1.0000 0.5992950817
C   C5        1.0  0.83360  0.21380  0.78660  1.0000 -0.0140532301
C   C6        1.0  0.21380  0.83360  0.71340  1.0000 -0.0140532301
C   C7        1.0  0.16640  0.78620  0.21340  1.0000 -0.0140532301
C   C8        1.0  0.78620  0.16640  0.28660  1.0000 -0.0140532301
C   C9        1.0  0.78060  0.22120  0.89880  1.0000 -0.1123417
C   C10       1.0  0.22120  0.78060  0.60120  1.0000 -0.1123417
C   C11       1.0  0.21940  0.77880  0.10120  1.0000 -0.1123417
C   C12       1.0  0.77880  0.21940  0.39880  1.0000 -0.1123417
C   C13       1.0  0.84570  0.30730  0.71430  1.0000 -0.1502245496
C   C14       1.0  0.30730  0.84570  0.78570  1.0000 -0.1502245496
C   C15       1.0  0.15430  0.69270  0.28570  1.0000 -0.1502245496
C   C16       1.0  0.69270  0.15430  0.21430  1.0000 -0.1502245496
C   C17       1.0  0.73990  0.31830  0.93370  1.0000 -0.0896559254
C   C18       1.0  0.31830  0.73990  0.56630  1.0000 -0.0896559254
C   C19       1.0  0.26010  0.68170  0.06630  1.0000 -0.0896559254
C   C20       1.0  0.68170  0.26010  0.43370  1.0000 -0.0896559254
C   C21       1.0  0.80490  0.40570  0.74830  1.0000 0.072263673
C   C22       1.0  0.40570  0.80490  0.75170  1.0000 0.072263673
C   C23       1.0  0.19510  0.59430  0.25170  1.0000 0.072263673
C   C24       1.0  0.59430  0.19510  0.24830  1.0000 0.072263673
C   C25       1.0  0.75130  0.40990  0.85890  1.0000 -0.1398644949
C   C26       1.0  0.40990  0.75130  0.64110  1.0000 -0.1398644949
C   C27       1.0  0.24870  0.59010  0.14110  1.0000 -0.1398644949
C   C28       1.0  0.59010  0.24870  0.35890  1.0000 -0.1398644949
C   C29       1.0  0.82410  0.50470  0.66820  1.0000 0.0458583814
C   C30       1.0  0.50470  0.82410  0.83180  1.0000 0.0458583814
C   C31       1.0  0.17590  0.49530  0.33180  1.0000 0.0458583814
C   C32       1.0  0.49530  0.17590  0.16820  1.0000 0.0458583814
C   C33       1.0  0.83960  0.50080  0.54170  1.0000 -0.1725005804
C   C34       1.0  0.50080  0.83960  0.95830  1.0000 -0.1725005804
C   C35       1.0  0.16040  0.49920  0.45830  1.0000 -0.1725005804
C   C36       1.0  0.49920  0.16040  0.04170  1.0000 -0.1725005804
C   C37       1.0  0.82970  0.60590  0.71970  1.0000 -0.0358842219
C   C38       1.0  0.60590  0.82970  0.78030  1.0000 -0.0358842219
C   C39       1.0  0.17030  0.39410  0.28030  1.0000 -0.0358842219
C   C40       1.0  0.39410  0.17030  0.21970  1.0000 -0.0358842219
C   C41       1.0  0.86880  0.59060  0.46930  1.0000 0.04351029
C   C42       1.0  0.59060  0.86880  0.03070  1.0000 0.04351029
C   C43       1.0  0.13120  0.40940  0.53070  1.0000 0.04351029
C   C44       1.0  0.40940  0.13120  0.96930  1.0000 0.04351029
C   C45       1.0  0.87860  0.68500  0.53190  1.0000 -0.0238272351
C   C46       1.0  0.68500  0.87860  0.96810  1.0000 -0.0238272351
C   C47       1.0  0.12140  0.31500  0.46810  1.0000 -0.0238272351
C   C48       1.0  0.31500  0.12140  0.03190  1.0000 -0.0238272351
C   C49       1.0  0.88550  0.58490  0.33100  1.0000 0.072263673
C   C50       1.0  0.58490  0.88550  0.16900  1.0000 0.072263673
C   C51       1.0  0.11450  0.41510  0.66900  1.0000 0.072263673
C   C52       1.0  0.41510  0.11450  0.83100  1.0000 0.072263673
C   C53       1.0  0.89110  0.48470  0.27780  1.0000 -0.1398644949
C   C54       1.0  0.48470  0.89110  0.22220  1.0000 -0.1398644949
C   C55       1.0  0.10890  0.51530  0.72220  1.0000 -0.1398644949
C   C56       1.0  0.51530  0.10890  0.77780  1.0000 -0.1398644949
C   C57       1.0  0.89380  0.67700  0.25380  1.0000 -0.1502245496
C   C58       1.0  0.67700  0.89380  0.24620  1.0000 -0.1502245496
C   C59       1.0  0.10620  0.32300  0.74620  1.0000 -0.1502245496
C   C60       1.0  0.32300  0.10620  0.75380  1.0000 -0.1502245496
C   C61       1.0  0.90290  0.47530  0.15220  1.0000 -0.0896559254
C   C62       1.0  0.47530  0.90290  0.34780  1.0000 -0.0896559254
C   C63       1.0  0.09710  0.52470  0.84780  1.0000 -0.0896559254
C   C64       1.0  0.52470  0.09710  0.65220  1.0000 -0.0896559254
C   C65       1.0  0.90770  0.66990  0.12440  1.0000 -0.0290442825
C   C66       1.0  0.66990  0.90770  0.37560  1.0000 -0.0290442825
C   C67       1.0  0.09230  0.33010  0.87560  1.0000 -0.0290442825
C   C68       1.0  0.33010  0.09230  0.62440  1.0000 -0.0290442825
C   C69       1.0  0.90940  0.56800  0.07440  1.0000 -0.1246559973
C   C70       1.0  0.56800  0.90940  0.42560  1.0000 -0.1252871359
C   C71       1.0  0.09060  0.43200  0.92560  1.0000 -0.1252871359
C   C72       1.0  0.43200  0.09060  0.57440  1.0000 -0.1246559973
C   C73       1.0  0.92100  0.76600  0.03870  1.0000 0.5590141137
C   C74       1.0  0.76600  0.92100  0.46130  1.0000 0.5590141137
C   C75       1.0  0.07900  0.23400  0.96130  1.0000 0.5590141137
C   C76       1.0  0.23400  0.07900  0.53870  1.0000 0.5590141137
N   N1        1.0  0.85590  0.69230  0.65300  1.0000 -0.1725005804
N   N2        1.0  0.69230  0.85590  0.84700  1.0000 -0.1725005804
N   N3        1.0  0.14410  0.30770  0.34700  1.0000 -0.1725005804
N   N4        1.0  0.30770  0.14410  0.15300  1.0000 -0.1725005804
O   O1        1.0  0.87220  0.02760  0.82610  1.0000 -0.5768949966
O   O2        1.0  0.02760  0.87220  0.67390  1.0000 -0.5768949966
O   O3        1.0  0.12780  0.97240  0.17390  1.0000 -0.5768949966
O   O4        1.0  0.97240  0.12780  0.32610  1.0000 -0.5768949966
O   O5        1.0  0.91890  0.75350  0.92270  1.0000 -0.5768949966
O   O6        1.0  0.75350  0.91890  0.57730  1.0000 -0.5768949966
O   O7        1.0  0.08110  0.24650  0.07730  1.0000 -0.5768949966
O   O8        1.0  0.24650  0.08110  0.42270  1.0000 -0.5768949966
O   O9        1.0  0.91190  0.10510  0.63970  1.0000 -0.5424357037
O   O10       1.0  0.10510  0.91190  0.86030  1.0000 -0.5424357037
O   O11       1.0  0.08810  0.89490  0.36030  1.0000 -0.5424357037
O   O12       1.0  0.89490  0.08810  0.13970  1.0000 -0.5424357037
O   O13       1.0  0.93130  0.85490  0.08930  1.0000 -0.5569260101
O   O14       1.0  0.85490  0.93130  0.41070  1.0000 -0.5569260101
O   O15       1.0  0.06870  0.14510  0.91070  1.0000 -0.5569260101
O   O16       1.0  0.14510  0.06870  0.58930  1.0000 -0.5569260101
