# DDEC6 charges by PACMAN v1.1 (https://github.com/mtap-research/PACMAN-charge/)
data_2014[Zn][nan]3[ASR]14
_chemical_formula_sum              "Zn16 H36 C108 O72"
_cell_length_a       9.954
_cell_length_b       17.6382
_cell_length_c       35.3332
_cell_angle_alpha    77.1744
_cell_angle_beta     81.9024
_cell_angle_gamma    73.6102

_symmetry_space_group_name_H-M    "P 1"
_symmetry_Int_Tables_number       1

loop_
  _symmetry_equiv_pos_as_xyz
  'x, y, z'

loop_
  _atom_site_type_symbol
  _atom_site_label
  _atom_site_symmetry_multiplicity
  _atom_site_fract_x
  _atom_site_fract_y
  _atom_site_fract_z
  _atom_site_occupancy
  _atom_site_charge
Zn  Zn1       1.0  0.69397  0.60266  0.14467  1.0000 0.967256178
Zn  Zn2       1.0  0.30603  0.39734  0.85533  1.0000 0.967256178
Zn  Zn3       1.0  0.44130  0.89734  0.35533  1.0000 0.967256178
Zn  Zn4       1.0  0.55870  0.10266  0.64467  1.0000 0.967256178
Zn  Zn5       1.0  0.46425  0.65006  0.07419  1.0000 0.967256178
Zn  Zn6       1.0  0.53575  0.34994  0.92581  1.0000 0.967256178
Zn  Zn7       1.0  0.18850  0.84994  0.42581  1.0000 0.967256178
Zn  Zn8       1.0  0.81150  0.15006  0.57419  1.0000 0.967256178
Zn  Zn9       1.0  0.90695  0.05321  0.12792  1.0000 0.9392437682
Zn  Zn10      1.0  0.09305  0.94679  0.87208  1.0000 0.9392437682
Zn  Zn11      1.0  0.08809  0.44679  0.37208  1.0000 0.9392437682
Zn  Zn12      1.0  0.91191  0.55321  0.62792  1.0000 0.9392437682
Zn  Zn13      1.0  0.05565  0.14706  0.15582  1.0000 0.9041995005
Zn  Zn14      1.0  0.94435  0.85294  0.84418  1.0000 0.9041995005
Zn  Zn15      1.0  0.35853  0.35294  0.34418  1.0000 0.9041995005
Zn  Zn16      1.0  0.64147  0.64706  0.65582  1.0000 0.9041995005
H   H1        1.0  0.97598  0.49916  0.25354  1.0000 0.1323516733
H   H2        1.0  0.02402  0.50084  0.74646  1.0000 0.1323516733
H   H3        1.0  0.72869  0.00084  0.24646  1.0000 0.1323516733
H   H4        1.0  0.27131  0.99916  0.75354  1.0000 0.1323516733
H   H5        1.0  0.40973  0.51077  0.23645  1.0000 0.1323516733
H   H6        1.0  0.59027  0.48923  0.76355  1.0000 0.1323516733
H   H7        1.0  0.15695  0.98923  0.26355  1.0000 0.1323516733
H   H8        1.0  0.84305  0.01077  0.73645  1.0000 0.1323516733
H   H9        1.0  0.14885  0.60020  0.14030  1.0000 0.1374077693
H   H10       1.0  0.85115  0.39980  0.85970  1.0000 0.1374077693
H   H11       1.0  0.88934  0.89980  0.35970  1.0000 0.1374077693
H   H12       1.0  0.11066  0.10020  0.64030  1.0000 0.1374077693
H   H13       1.0  0.35401  0.49560  0.98749  1.0000 0.1323516733
H   H14       1.0  0.64599  0.50440  0.01251  1.0000 0.1323516733
H   H15       1.0  0.83711  0.00440  0.51251  1.0000 0.1323516733
H   H16       1.0  0.16289  0.99560  0.48749  1.0000 0.1323516733
H   H17       1.0  0.16755  0.63126  0.88215  1.0000 0.1374077693
H   H18       1.0  0.83245  0.36874  0.11785  1.0000 0.1374077693
H   H19       1.0  0.68096  0.86874  0.61785  1.0000 0.1374077693
H   H20       1.0  0.31904  0.13126  0.38215  1.0000 0.1374077693
H   H21       1.0  0.22011  0.75618  0.96924  1.0000 0.1323516733
H   H22       1.0  0.77989  0.24382  0.03076  1.0000 0.1323516733
H   H23       1.0  0.94552  0.74382  0.53076  1.0000 0.1323516733
H   H24       1.0  0.05448  0.25618  0.46924  1.0000 0.1323516733
H   H25       1.0  0.74095  0.84719  0.10877  1.0000 0.1323516733
H   H26       1.0  0.25905  0.15281  0.89123  1.0000 0.1323516733
H   H27       1.0  0.69692  0.65281  0.39123  1.0000 0.1323516733
H   H28       1.0  0.30308  0.34719  0.60877  1.0000 0.1323516733
H   H29       1.0  0.44950  0.07626  0.11933  1.0000 0.1374077693
H   H30       1.0  0.55050  0.92374  0.88067  1.0000 0.1323516733
H   H31       1.0  0.64509  0.42374  0.38067  1.0000 0.1374077693
H   H32       1.0  0.35491  0.57626  0.61933  1.0000 0.1323516733
H   H33       1.0  0.29446  0.87810  0.10738  1.0000 0.1374077693
H   H34       1.0  0.70554  0.12190  0.89262  1.0000 0.1374077693
H   H35       1.0  0.27995  0.62190  0.39262  1.0000 0.1374077693
H   H36       1.0  0.72005  0.37810  0.60738  1.0000 0.1374077693
C   C1        1.0  0.91218  0.57267  0.17811  1.0000 0.559593235
C   C2        1.0  0.08782  0.42733  0.82189  1.0000 0.559593235
C   C3        1.0  0.66296  0.92733  0.32189  1.0000 0.559593235
C   C4        1.0  0.33704  0.07267  0.67811  1.0000 0.559593235
C   C5        1.0  0.04676  0.55393  0.19532  1.0000 -0.0304926277
C   C6        1.0  0.95324  0.44607  0.80468  1.0000 -0.0304926277
C   C7        1.0  0.79600  0.94607  0.30468  1.0000 -0.0304926277
C   C8        1.0  0.20400  0.05393  0.69532  1.0000 -0.0304926277
C   C9        1.0  0.06296  0.51680  0.23435  1.0000 -0.068959288
C   C10       1.0  0.93704  0.48320  0.76565  1.0000 -0.068959288
C   C11       1.0  0.81411  0.98320  0.26565  1.0000 -0.068959288
C   C12       1.0  0.18589  0.01680  0.73435  1.0000 -0.068959288
C   C13       1.0  0.19525  0.50055  0.24825  1.0000 -0.0385410706
C   C14       1.0  0.80475  0.49945  0.75175  1.0000 -0.0385410706
C   C15       1.0  0.94406  0.99945  0.25175  1.0000 -0.0385410706
C   C16       1.0  0.05594  0.00055  0.74825  1.0000 -0.0385410706
C   C17       1.0  0.30878  0.52205  0.22456  1.0000 -0.068959288
C   C18       1.0  0.69122  0.47795  0.77544  1.0000 -0.068959288
C   C19       1.0  0.05539  0.97795  0.27544  1.0000 -0.068959288
C   C20       1.0  0.94461  0.02205  0.72456  1.0000 -0.068959288
C   C21       1.0  0.29107  0.55839  0.18562  1.0000 -0.0304926277
C   C22       1.0  0.70893  0.44161  0.81438  1.0000 -0.0304926277
C   C23       1.0  0.03508  0.94161  0.31438  1.0000 -0.0304926277
C   C24       1.0  0.96492  0.05839  0.68562  1.0000 -0.0304926277
C   C25       1.0  0.16072  0.57318  0.17097  1.0000 -0.068959288
C   C26       1.0  0.83928  0.42682  0.82903  1.0000 -0.068959288
C   C27       1.0  0.90487  0.92682  0.32903  1.0000 -0.068959288
C   C28       1.0  0.09513  0.07318  0.67097  1.0000 -0.068959288
C   C29       1.0  0.34333  0.62191  0.02016  1.0000 0.559593235
C   C30       1.0  0.65667  0.37809  0.97984  1.0000 0.559593235
C   C31       1.0  0.98540  0.87809  0.47984  1.0000 0.559593235
C   C32       1.0  0.01460  0.12191  0.52016  1.0000 0.559593235
C   C33       1.0  0.28880  0.62515  0.98277  1.0000 -0.0245926912
C   C34       1.0  0.71120  0.37485  0.01723  1.0000 -0.0245926912
C   C35       1.0  0.89672  0.87485  0.51723  1.0000 -0.0245926912
C   C36       1.0  0.10328  0.12515  0.48277  1.0000 -0.0245926912
C   C37       1.0  0.30401  0.55324  0.96989  1.0000 -0.0625925745
C   C38       1.0  0.69599  0.44676  0.03011  1.0000 -0.0625925745
C   C39       1.0  0.82713  0.94676  0.53011  1.0000 -0.0625925745
C   C40       1.0  0.17287  0.05324  0.46989  1.0000 -0.0625925745
C   C41       1.0  0.26059  0.55525  0.93365  1.0000 -0.0304926277
C   C42       1.0  0.73941  0.44475  0.06635  1.0000 -0.0304926277
C   C43       1.0  0.74949  0.94475  0.56635  1.0000 -0.0304926277
C   C44       1.0  0.25051  0.05525  0.43365  1.0000 -0.0304926277
C   C45       1.0  0.20022  0.62903  0.91070  1.0000 -0.068959288
C   C46       1.0  0.79978  0.37097  0.08930  1.0000 -0.068959288
C   C47       1.0  0.73996  0.87097  0.58930  1.0000 -0.068959288
C   C48       1.0  0.26004  0.12903  0.41070  1.0000 -0.068959288
C   C49       1.0  0.18552  0.70053  0.92377  1.0000 -0.0385410706
C   C50       1.0  0.81448  0.29947  0.07623  1.0000 -0.0385410706
C   C51       1.0  0.80982  0.79947  0.57623  1.0000 -0.0385410706
C   C52       1.0  0.19018  0.20053  0.42377  1.0000 -0.0385410706
C   C53       1.0  0.54358  0.76858  0.10521  1.0000 0.6102354125
C   C54       1.0  0.45642  0.23142  0.89479  1.0000 0.6102354125
C   C55       1.0  0.41738  0.73142  0.39479  1.0000 0.6102354125
C   C56       1.0  0.58262  0.26858  0.60521  1.0000 0.6102354125
C   C57       1.0  0.22973  0.69966  0.95978  1.0000 -0.068959288
C   C58       1.0  0.77027  0.30034  0.04022  1.0000 -0.068959288
C   C59       1.0  0.88918  0.80034  0.54022  1.0000 -0.068959288
C   C60       1.0  0.11082  0.19966  0.45978  1.0000 -0.068959288
C   C61       1.0  0.52023  0.85476  0.10739  1.0000 -0.0304926277
C   C62       1.0  0.47977  0.14524  0.89261  1.0000 -0.0304926277
C   C63       1.0  0.48238  0.64524  0.39261  1.0000 -0.0304926277
C   C64       1.0  0.51762  0.35476  0.60739  1.0000 -0.0304926277
C   C65       1.0  0.63344  0.88554  0.10960  1.0000 -0.068959288
C   C66       1.0  0.36656  0.11446  0.89040  1.0000 -0.068959288
C   C67       1.0  0.62857  0.61446  0.39040  1.0000 -0.068959288
C   C68       1.0  0.37143  0.38554  0.60960  1.0000 -0.068959288
C   C69       1.0  0.60689  0.96584  0.11325  1.0000 -0.0304926277
C   C70       1.0  0.39311  0.03416  0.88675  1.0000 -0.0304926277
C   C71       1.0  0.68597  0.53416  0.38675  1.0000 -0.0304926277
C   C72       1.0  0.31403  0.46584  0.61325  1.0000 -0.0304926277
C   C73       1.0  0.46996  0.01430  0.11541  1.0000 -0.0757399883
C   C74       1.0  0.53004  0.98570  0.88459  1.0000 -0.0757399883
C   C75       1.0  0.59966  0.48570  0.38459  1.0000 -0.0757399883
C   C76       1.0  0.40034  0.51430  0.61541  1.0000 -0.0757399883
C   C77       1.0  0.35864  0.98263  0.11312  1.0000 -0.0385410706
C   C78       1.0  0.64136  0.01737  0.88688  1.0000 -0.0385410706
C   C79       1.0  0.45438  0.51737  0.38688  1.0000 -0.0385410706
C   C80       1.0  0.54562  0.48263  0.61312  1.0000 -0.0385410706
C   C81       1.0  0.38235  0.90291  0.10883  1.0000 -0.068959288
C   C82       1.0  0.61765  0.09709  0.89117  1.0000 -0.068959288
C   C83       1.0  0.39409  0.59709  0.39117  1.0000 -0.068959288
C   C84       1.0  0.60591  0.40291  0.60883  1.0000 -0.068959288
C   C85       1.0  0.21610  0.03498  0.11808  1.0000 0.6041086362
C   C86       1.0  0.78390  0.96502  0.88192  1.0000 0.6041086362
C   C87       1.0  0.36916  0.46502  0.38192  1.0000 0.6041086362
C   C88       1.0  0.63084  0.53498  0.61808  1.0000 0.6041086362
C   C89       1.0  0.96505  0.04297  0.21155  1.0000 0.6041086362
C   C90       1.0  0.03495  0.95703  0.78845  1.0000 0.6041086362
C   C91       1.0  0.21957  0.45703  0.28845  1.0000 0.6041086362
C   C92       1.0  0.78043  0.54297  0.71155  1.0000 0.6041086362
C   C93       1.0  0.87501  0.22302  0.10208  1.0000 0.6041086362
C   C94       1.0  0.12499  0.77698  0.89792  1.0000 0.6041086362
C   C95       1.0  0.20011  0.27698  0.39792  1.0000 0.6041086362
C   C96       1.0  0.79989  0.72302  0.60208  1.0000 0.6041086362
C   C97       1.0  0.71934  0.00124  0.11750  1.0000 0.559593235
C   C98       1.0  0.28066  0.99876  0.88250  1.0000 0.559593235
C   C99       1.0  0.83809  0.49876  0.38250  1.0000 0.559593235
C   C100      1.0  0.16191  0.50124  0.61750  1.0000 0.559593235
C   C101      1.0  0.70923  0.51977  0.08238  1.0000 0.6102354125
C   C102      1.0  0.29077  0.48023  0.91762  1.0000 0.6102354125
C   C103      1.0  0.31139  0.98023  0.41762  1.0000 0.6102354125
C   C104      1.0  0.68861  0.01977  0.58238  1.0000 0.6102354125
C   C105      1.0  0.40799  0.58214  0.15857  1.0000 0.6153519944
C   C106      1.0  0.59201  0.41786  0.84143  1.0000 0.6102354125
C   C107      1.0  0.14870  0.91786  0.34143  1.0000 0.6153519944
C   C108      1.0  0.85130  0.08214  0.65857  1.0000 0.6153519944
O   O1        1.0  0.90689  0.60355  0.14141  1.0000 -0.4719458922
O   O2        1.0  0.09311  0.39645  0.85859  1.0000 -0.4719458922
O   O3        1.0  0.65185  0.89645  0.35859  1.0000 -0.4778632923
O   O4        1.0  0.34815  0.10355  0.64141  1.0000 -0.4778632923
O   O5        1.0  0.37899  0.55625  0.04398  1.0000 -0.4778632923
O   O6        1.0  0.62101  0.44375  0.95602  1.0000 -0.4778632923
O   O7        1.0  0.97922  0.94375  0.45602  1.0000 -0.4778632923
O   O8        1.0  0.02078  0.05625  0.54398  1.0000 -0.4778632923
O   O9        1.0  0.35831  0.68842  0.02736  1.0000 -0.5100215255
O   O10       1.0  0.64169  0.31158  0.97264  1.0000 -0.5100215255
O   O11       1.0  0.07409  0.81158  0.47264  1.0000 -0.5100215255
O   O12       1.0  0.92591  0.18842  0.52736  1.0000 -0.5100215255
O   O13       1.0  0.64729  0.71887  0.12227  1.0000 -0.5374377392
O   O14       1.0  0.35271  0.28113  0.87773  1.0000 -0.5374377392
O   O15       1.0  0.48843  0.78113  0.37773  1.0000 -0.5374377392
O   O16       1.0  0.51157  0.21887  0.62227  1.0000 -0.5374377392
O   O17       1.0  0.45495  0.75399  0.08673  1.0000 -0.5307086603
O   O18       1.0  0.54505  0.24601  0.91327  1.0000 -0.5307086603
O   O19       1.0  0.29566  0.74601  0.41327  1.0000 -0.5307086603
O   O20       1.0  0.70434  0.25399  0.58673  1.0000 -0.5307086603
O   O21       1.0  0.39037  0.59239  0.12254  1.0000 -0.5467537277
O   O22       1.0  0.60963  0.40761  0.87746  1.0000 -0.5467537277
O   O23       1.0  0.10529  0.90761  0.37746  1.0000 -0.5467537277
O   O24       1.0  0.89471  0.09239  0.62254  1.0000 -0.5467537277
O   O25       1.0  0.51127  0.59021  0.17378  1.0000 -0.5307086603
O   O26       1.0  0.48873  0.40979  0.82622  1.0000 -0.5307086603
O   O27       1.0  0.27526  0.90979  0.32622  1.0000 -0.5307086603
O   O28       1.0  0.72474  0.09021  0.67378  1.0000 -0.5307086603
O   O29       1.0  0.65525  0.58714  0.06055  1.0000 -0.5567484154
O   O30       1.0  0.34475  0.41286  0.93945  1.0000 -0.5567484154
O   O31       1.0  0.30294  0.91286  0.43945  1.0000 -0.5567484154
O   O32       1.0  0.69706  0.08714  0.56055  1.0000 -0.5567484154
O   O33       1.0  0.73602  0.51055  0.11786  1.0000 -0.5307086603
O   O34       1.0  0.26398  0.48945  0.88214  1.0000 -0.5307086603
O   O35       1.0  0.36443  0.98945  0.38214  1.0000 -0.5307086603
O   O36       1.0  0.63557  0.01055  0.61786  1.0000 -0.5307086603
O   O37       1.0  0.11292  0.00402  0.12178  1.0000 -0.5374377392
O   O38       1.0  0.88708  0.99598  0.87822  1.0000 -0.5307086603
O   O39       1.0  0.23871  0.49598  0.37822  1.0000 -0.5307086603
O   O40       1.0  0.76129  0.50402  0.62178  1.0000 -0.5374377392
O   O41       1.0  0.20800  0.10889  0.12024  1.0000 -0.5307086603
O   O42       1.0  0.79200  0.89111  0.87976  1.0000 -0.5307086603
O   O43       1.0  0.43712  0.39111  0.37976  1.0000 -0.5307086603
O   O44       1.0  0.56288  0.60889  0.62024  1.0000 -0.5307086603
O   O45       1.0  0.88625  0.04308  0.18617  1.0000 -0.5467537277
O   O46       1.0  0.11375  0.95692  0.81383  1.0000 -0.5374377392
O   O47       1.0  0.11551  0.45692  0.31383  1.0000 -0.5467537277
O   O48       1.0  0.88449  0.54308  0.68617  1.0000 -0.5467537277
O   O49       1.0  0.06344  0.08100  0.20557  1.0000 -0.5307086603
O   O50       1.0  0.93656  0.91900  0.79443  1.0000 -0.5307086603
O   O51       1.0  0.35001  0.41900  0.29443  1.0000 -0.5307086603
O   O52       1.0  0.64999  0.58100  0.70557  1.0000 -0.5307086603
O   O53       1.0  0.90362  0.22926  0.13608  1.0000 -0.5374377392
O   O54       1.0  0.09638  0.77074  0.86392  1.0000 -0.5374377392
O   O55       1.0  0.26896  0.27074  0.36392  1.0000 -0.5374377392
O   O56       1.0  0.73104  0.72926  0.63608  1.0000 -0.5374377392
O   O57       1.0  0.89682  0.15684  0.09060  1.0000 -0.5307086603
O   O58       1.0  0.10318  0.84316  0.90940  1.0000 -0.5307086603
O   O59       1.0  0.14426  0.34316  0.40940  1.0000 -0.5307086603
O   O60       1.0  0.85574  0.65684  0.59060  1.0000 -0.5307086603
O   O61       1.0  0.84996  0.96326  0.11237  1.0000 -0.5100215255
O   O62       1.0  0.15004  0.03674  0.88763  1.0000 -0.5100215255
O   O63       1.0  0.92559  0.53674  0.38763  1.0000 -0.5100215255
O   O64       1.0  0.07441  0.46326  0.61237  1.0000 -0.5100215255
O   O65       1.0  0.68763  0.07053  0.12730  1.0000 -0.4981003656
O   O66       1.0  0.31237  0.92947  0.87270  1.0000 -0.4981003656
O   O67       1.0  0.88546  0.42947  0.37270  1.0000 -0.4981003656
O   O68       1.0  0.11454  0.57053  0.62730  1.0000 -0.4981003656
O   O69       1.0  0.79907  0.55985  0.19763  1.0000 -0.486700873
O   O70       1.0  0.20093  0.44015  0.80237  1.0000 -0.486700873
O   O71       1.0  0.55655  0.94015  0.30237  1.0000 -0.486700873
O   O72       1.0  0.44345  0.05985  0.69763  1.0000 -0.486700873
