# DDEC6 charges by PACMAN v1.1 (https://github.com/mtap-research/PACMAN-charge/)
data_2014[Ce][fit]3[ASR]1
_chemical_formula_sum              "Ce2 H38 C68 O16"
_cell_length_a       9.5603
_cell_length_b       12.1386
_cell_length_c       15.9458
_cell_angle_alpha    88.455
_cell_angle_beta     105.583
_cell_angle_gamma    109.767

_symmetry_space_group_name_H-M    "P 1"
_symmetry_Int_Tables_number       1

loop_
  _symmetry_equiv_pos_as_xyz
  'x, y, z'

loop_
  _atom_site_type_symbol
  _atom_site_label
  _atom_site_symmetry_multiplicity
  _atom_site_fract_x
  _atom_site_fract_y
  _atom_site_fract_z
  _atom_site_occupancy
  _atom_site_charge
Ce  Ce1       1.0  0.29554  0.02553  0.98171  1.0000 2.0127811345
Ce  Ce2       1.0  0.70446  0.97447  0.01829  1.0000 2.0127811345
H   H1        1.0  0.99180  0.20020  0.94150  1.0000 0.3682968381
H   H2        1.0  0.00820  0.79980  0.05850  1.0000 0.3682968381
H   H3        1.0  0.33980  0.70680  0.48510  1.0000 0.1193681677
H   H4        1.0  0.66020  0.29320  0.51490  1.0000 0.1193681677
H   H5        1.0  0.17690  0.30200  0.48510  1.0000 0.111760481
H   H6        1.0  0.82310  0.69800  0.51490  1.0000 0.111760481
H   H7        1.0  0.08510  0.49180  0.67540  1.0000 0.111760481
H   H8        1.0  0.91490  0.50820  0.32460  1.0000 0.111760481
H   H9        1.0  0.03730  0.39610  0.79790  1.0000 0.111760481
H   H10       1.0  0.96270  0.60390  0.20210  1.0000 0.111760481
H   H11       1.0  0.20700  0.15120  0.74140  1.0000 0.1281924832
H   H12       1.0  0.79300  0.84880  0.25860  1.0000 0.1281924832
H   H13       1.0  0.26120  0.25040  0.62050  1.0000 0.111760481
H   H14       1.0  0.73880  0.74960  0.37950  1.0000 0.111760481
H   H15       1.0  0.46470  0.61450  0.72230  1.0000 0.1193681677
H   H16       1.0  0.53530  0.38550  0.27770  1.0000 0.1193681677
H   H17       1.0  0.49970  0.75100  0.83320  1.0000 0.1281924832
H   H18       1.0  0.50030  0.24900  0.16680  1.0000 0.1281924832
H   H19       1.0  0.15350  0.84720  0.68190  1.0000 0.1193681677
H   H20       1.0  0.84650  0.15280  0.31810  1.0000 0.1193681677
H   H21       1.0  0.13060  0.72230  0.56730  1.0000 0.1193681677
H   H22       1.0  0.86940  0.27770  0.43270  1.0000 0.1193681677
H   H23       1.0  0.23010  0.74960  0.34890  1.0000 0.111760481
H   H24       1.0  0.76990  0.25040  0.65110  1.0000 0.111760481
H   H25       1.0  0.27490  0.85260  0.22890  1.0000 0.1281924832
H   H26       1.0  0.72510  0.14740  0.77110  1.0000 0.1281924832
H   H27       1.0  0.49030  0.63770  0.17620  1.0000 0.1193681677
H   H28       1.0  0.50970  0.36230  0.82380  1.0000 0.1193681677
H   H29       1.0  0.43250  0.52830  0.29300  1.0000 0.111760481
H   H30       1.0  0.56750  0.47170  0.70700  1.0000 0.111760481
H   H31       1.0  0.05330  0.43090  0.24750  1.0000 0.111760481
H   H32       1.0  0.94670  0.56910  0.75250  1.0000 0.111760481
H   H33       1.0  0.98940  0.30530  0.12450  1.0000 0.1193681677
H   H34       1.0  0.01060  0.69470  0.87550  1.0000 0.1193681677
H   H35       1.0  0.26980  0.13700  0.25940  1.0000 0.1281924832
H   H36       1.0  0.73020  0.86300  0.74060  1.0000 0.1281924832
H   H37       1.0  0.31850  0.25280  0.38560  1.0000 0.1193681677
H   H38       1.0  0.68150  0.74720  0.61440  1.0000 0.1193681677
C   C1        1.0  0.22380  0.44890  0.56040  1.0000 0.0293928056
C   C2        1.0  0.77620  0.55110  0.43960  1.0000 0.0293928056
C   C3        1.0  0.27300  0.57190  0.55950  1.0000 0.0293928056
C   C4        1.0  0.72700  0.42810  0.44050  1.0000 0.0293928056
C   C5        1.0  0.30440  0.62360  0.48450  1.0000 -0.1934210596
C   C6        1.0  0.69560  0.37640  0.51550  1.0000 -0.1934210596
C   C7        1.0  0.28670  0.55950  0.40830  1.0000 0.0293928056
C   C8        1.0  0.71330  0.44050  0.59170  1.0000 0.0293928056
C   C9        1.0  0.23320  0.43560  0.40790  1.0000 0.0293928056
C   C10       1.0  0.76680  0.56440  0.59210  1.0000 0.0293928056
C   C11       1.0  0.20740  0.38500  0.48450  1.0000 -0.1980365005
C   C12       1.0  0.79260  0.61500  0.51550  1.0000 -0.1980365005
C   C13       1.0  0.18390  0.38390  0.63640  1.0000 0.0763246479
C   C14       1.0  0.81610  0.61610  0.36360  1.0000 0.0763246479
C   C15       1.0  0.11270  0.42400  0.68940  1.0000 -0.1580205149
C   C16       1.0  0.88730  0.57600  0.31060  1.0000 -0.1580205149
C   C17       1.0  0.08230  0.36620  0.76160  1.0000 -0.0986087335
C   C18       1.0  0.91770  0.63380  0.23840  1.0000 -0.0986087335
C   C19       1.0  0.11710  0.26460  0.78190  1.0000 -0.0497821619
C   C20       1.0  0.88290  0.73540  0.21810  1.0000 -0.0497821619
C   C21       1.0  0.18390  0.22110  0.72850  1.0000 -0.0901161401
C   C22       1.0  0.81610  0.77890  0.27150  1.0000 -0.0901161401
C   C23       1.0  0.21620  0.28040  0.65680  1.0000 -0.1497237005
C   C24       1.0  0.78380  0.71960  0.34320  1.0000 -0.1497237005
C   C25       1.0  0.08600  0.20110  0.85920  1.0000 0.5832320663
C   C26       1.0  0.91400  0.79890  0.14080  1.0000 0.5832320663
C   C27       1.0  0.29400  0.65370  0.63390  1.0000 0.0763246479
C   C28       1.0  0.70600  0.34630  0.36610  1.0000 0.0763246479
C   C29       1.0  0.40270  0.66290  0.71330  1.0000 -0.1497237005
C   C30       1.0  0.59730  0.33710  0.28670  1.0000 -0.1497237005
C   C31       1.0  0.42150  0.74270  0.78000  1.0000 -0.0901161401
C   C32       1.0  0.57850  0.25730  0.22000  1.0000 -0.0901161401
C   C33       1.0  0.32760  0.80990  0.76980  1.0000 -0.0372185049
C   C34       1.0  0.67240  0.19010  0.23020  1.0000 -0.0372185049
C   C35       1.0  0.21820  0.80090  0.68980  1.0000 -0.0901161401
C   C36       1.0  0.78180  0.19910  0.31020  1.0000 -0.0901161401
C   C37       1.0  0.20300  0.72560  0.62210  1.0000 -0.1580205149
C   C38       1.0  0.79700  0.27440  0.37790  1.0000 -0.1580205149
C   C39       1.0  0.33650  0.88780  0.84250  1.0000 0.606909028
C   C40       1.0  0.66350  0.11220  0.15750  1.0000 0.606909028
C   C41       1.0  0.32220  0.62590  0.33210  1.0000 0.0682805243
C   C42       1.0  0.67780  0.37410  0.66790  1.0000 0.0682805243
C   C43       1.0  0.27990  0.72480  0.31270  1.0000 -0.1497237005
C   C44       1.0  0.72010  0.27520  0.68730  1.0000 -0.1497237005
C   C45       1.0  0.30860  0.78730  0.24220  1.0000 -0.0901161401
C   C46       1.0  0.69140  0.21270  0.75780  1.0000 -0.0901161401
C   C47       1.0  0.38710  0.75550  0.19010  1.0000 -0.024029882
C   C48       1.0  0.61290  0.24450  0.80990  1.0000 -0.024029882
C   C49       1.0  0.43470  0.65930  0.21020  1.0000 -0.0986087335
C   C50       1.0  0.56530  0.34070  0.78980  1.0000 -0.0986087335
C   C51       1.0  0.40110  0.59470  0.28030  1.0000 -0.1497237005
C   C52       1.0  0.59890  0.40530  0.71970  1.0000 -0.1497237005
C   C53       1.0  0.41700  0.82490  0.11360  1.0000 0.6287859592
C   C54       1.0  0.58300  0.17510  0.88640  1.0000 0.6287859592
C   C55       1.0  0.19520  0.35700  0.32870  1.0000 0.0682805243
C   C56       1.0  0.80480  0.64300  0.67130  1.0000 0.0682805243
C   C57       1.0  0.09640  0.37050  0.25050  1.0000 -0.1444824573
C   C58       1.0  0.90360  0.62950  0.74950  1.0000 -0.1444824573
C   C59       1.0  0.06000  0.29680  0.17680  1.0000 -0.0901161401
C   C60       1.0  0.94000  0.70320  0.82320  1.0000 -0.0901161401
C   C61       1.0  0.12660  0.21050  0.17940  1.0000 -0.0372185049
C   C62       1.0  0.87340  0.78950  0.82060  1.0000 -0.0372185049
C   C63       1.0  0.22410  0.19570  0.25720  1.0000 -0.0901161401
C   C64       1.0  0.77590  0.80430  0.74280  1.0000 -0.0901161401
C   C65       1.0  0.25560  0.26630  0.33200  1.0000 -0.1580205149
C   C66       1.0  0.74440  0.73370  0.66800  1.0000 -0.1580205149
C   C67       1.0  0.09920  0.14090  0.09750  1.0000 0.6387387428
C   C68       1.0  0.90080  0.85910  0.90250  1.0000 0.6387387428
O   O1        1.0  0.12540  0.11650  0.88222  1.0000 -0.5669356671
O   O2        1.0  0.87460  0.88350  0.11778  1.0000 -0.5669356671
O   O3        1.0  0.01090  0.24250  0.90054  1.0000 -0.4545349715
O   O4        1.0  0.98910  0.75750  0.09946  1.0000 -0.4545349715
O   O5        1.0  0.23690  0.93720  0.83265  1.0000 -0.5870150414
O   O6        1.0  0.76310  0.06280  0.16735  1.0000 -0.5870150414
O   O7        1.0  0.44120  0.90180  0.91540  1.0000 -0.7133292046
O   O8        1.0  0.55880  0.09820  0.08460  1.0000 -0.7133292046
O   O9        1.0  0.53420  0.83080  0.09040  1.0000 -0.6193895426
O   O10       1.0  0.46580  0.16920  0.90960  1.0000 -0.6193895426
O   O11       1.0  0.32130  0.87600  0.07869  1.0000 -0.648167738
O   O12       1.0  0.67870  0.12400  0.92131  1.0000 -0.648167738
O   O13       1.0  0.20630  0.10940  0.08704  1.0000 -0.6324920741
O   O14       1.0  0.79370  0.89060  0.91296  1.0000 -0.6324920741
O   O15       1.0  0.96970  0.12170  0.03898  1.0000 -0.6592718449
O   O16       1.0  0.03030  0.87830  0.96102  1.0000 -0.6592718449
