# DDEC6 charges by PACMAN v1.1 (https://github.com/mtap-research/PACMAN-charge/)
data_2014[Cu][nan]3[ASR]17
_chemical_formula_sum              "Cu16 H24 C72 Se4 O60"
_cell_length_a       21.4019
_cell_length_b       21.4019
_cell_length_c       14.1609
_cell_angle_alpha    79.5849
_cell_angle_beta     100.415
_cell_angle_gamma    146.954

_symmetry_space_group_name_H-M    "P 1"
_symmetry_Int_Tables_number       1

loop_
  _symmetry_equiv_pos_as_xyz
  'x, y, z'

loop_
  _atom_site_type_symbol
  _atom_site_label
  _atom_site_symmetry_multiplicity
  _atom_site_fract_x
  _atom_site_fract_y
  _atom_site_fract_z
  _atom_site_occupancy
  _atom_site_charge
Cu  Cu1       1.0  0.95370  0.40460  0.50734  1.0000 0.8629183559
Cu  Cu2       1.0  0.40460  0.95370  0.99266  1.0000 0.8629183559
Cu  Cu3       1.0  0.04630  0.59540  0.49266  1.0000 0.8629183559
Cu  Cu4       1.0  0.59540  0.04630  0.00734  1.0000 0.8629183559
Cu  Cu5       1.0  0.44082  0.56474  0.04574  1.0000 0.9400501339
Cu  Cu6       1.0  0.56474  0.44082  0.45426  1.0000 0.9400501339
Cu  Cu7       1.0  0.55918  0.43526  0.95426  1.0000 0.9400501339
Cu  Cu8       1.0  0.43526  0.55918  0.54574  1.0000 0.9400501339
Cu  Cu9       1.0  0.22560  0.32416  0.92050  1.0000 0.9400501339
Cu  Cu10      1.0  0.32416  0.22560  0.57950  1.0000 0.9400501339
Cu  Cu11      1.0  0.77440  0.67584  0.07950  1.0000 0.9400501339
Cu  Cu12      1.0  0.67584  0.77440  0.42050  1.0000 0.9400501339
Cu  Cu13      1.0  0.24079  0.32289  0.67683  1.0000 0.9337805895
Cu  Cu14      1.0  0.32289  0.24079  0.82317  1.0000 0.9337805895
Cu  Cu15      1.0  0.75921  0.67711  0.32317  1.0000 0.9337805895
Cu  Cu16      1.0  0.67711  0.75921  0.17683  1.0000 0.9337805895
H   H1        1.0  0.41050  0.72330  0.94240  1.0000 0.1385239764
H   H2        1.0  0.72330  0.41050  0.55760  1.0000 0.1385239764
H   H3        1.0  0.58950  0.27670  0.05760  1.0000 0.1385239764
H   H4        1.0  0.27670  0.58950  0.44240  1.0000 0.1385239764
H   H5        1.0  0.17230  0.48250  0.74650  1.0000 0.1385239764
H   H6        1.0  0.48250  0.17230  0.75350  1.0000 0.1349675743
H   H7        1.0  0.82770  0.51750  0.25350  1.0000 0.1385239764
H   H8        1.0  0.51750  0.82770  0.24650  1.0000 0.1385239764
H   H9        1.0  0.25520  0.73400  0.75200  1.0000 0.1385239764
H   H10       1.0  0.73400  0.25520  0.74800  1.0000 0.1385239764
H   H11       1.0  0.74480  0.26600  0.24800  1.0000 0.1385239764
H   H12       1.0  0.26600  0.74480  0.25200  1.0000 0.1385239764
H   H13       1.0  0.28190  0.39910  0.29350  1.0000 0.1147075681
H   H14       1.0  0.39910  0.28190  0.20650  1.0000 0.1147075681
H   H15       1.0  0.71810  0.60090  0.70650  1.0000 0.1147075681
H   H16       1.0  0.60090  0.71810  0.79350  1.0000 0.1147075681
H   H17       1.0  0.00690  0.10690  0.43890  1.0000 0.1385239764
H   H18       1.0  0.10690  0.00690  0.06110  1.0000 0.1385239764
H   H19       1.0  0.99310  0.89310  0.56110  1.0000 0.1385239764
H   H20       1.0  0.89310  0.99310  0.93890  1.0000 0.1385239764
H   H21       1.0  0.00610  0.10870  0.15320  1.0000 0.1385239764
H   H22       1.0  0.10870  0.00610  0.34680  1.0000 0.1385239764
H   H23       1.0  0.99390  0.89130  0.84680  1.0000 0.1385239764
H   H24       1.0  0.89130  0.99390  0.65320  1.0000 0.1385239764
C   C1        1.0  0.40430  0.84390  0.90340  1.0000 0.5909526809
C   C2        1.0  0.84390  0.40430  0.59660  1.0000 0.5909526809
C   C3        1.0  0.59570  0.15610  0.09660  1.0000 0.5909526809
C   C4        1.0  0.15610  0.59570  0.40340  1.0000 0.5909526809
C   C5        1.0  0.34250  0.74410  0.85450  1.0000 -0.0123451383
C   C6        1.0  0.74410  0.34250  0.64550  1.0000 -0.0123451383
C   C7        1.0  0.65750  0.25590  0.14550  1.0000 -0.0123451383
C   C8        1.0  0.25590  0.65750  0.35450  1.0000 -0.0123451383
C   C9        1.0  0.35740  0.69220  0.89140  1.0000 -0.0983948452
C   C10       1.0  0.69220  0.35740  0.60860  1.0000 -0.0983948452
C   C11       1.0  0.64260  0.30780  0.10860  1.0000 -0.0983948452
C   C12       1.0  0.30780  0.64260  0.39140  1.0000 -0.0983948452
C   C13       1.0  0.29240  0.59360  0.85160  1.0000 -0.0123451383
C   C14       1.0  0.59360  0.29240  0.64840  1.0000 -0.0123451383
C   C15       1.0  0.70760  0.40640  0.14840  1.0000 -0.0123451383
C   C16       1.0  0.40640  0.70760  0.35160  1.0000 -0.0123451383
C   C17       1.0  0.21500  0.54800  0.77330  1.0000 -0.0983948452
C   C18       1.0  0.54800  0.21500  0.72670  1.0000 -0.0983948452
C   C19       1.0  0.78500  0.45200  0.22670  1.0000 -0.0983948452
C   C20       1.0  0.45200  0.78500  0.27330  1.0000 -0.0983948452
C   C21       1.0  0.20280  0.60240  0.73580  1.0000 -0.0123451383
C   C22       1.0  0.60240  0.20280  0.76420  1.0000 -0.0123451383
C   C23       1.0  0.79720  0.39760  0.26420  1.0000 -0.0123451383
C   C24       1.0  0.39760  0.79720  0.23580  1.0000 -0.0123451383
C   C25       1.0  0.26510  0.69930  0.77660  1.0000 -0.0907925326
C   C26       1.0  0.69930  0.26510  0.72340  1.0000 -0.0907925326
C   C27       1.0  0.73490  0.30070  0.22340  1.0000 -0.0907925326
C   C28       1.0  0.30070  0.73490  0.27660  1.0000 -0.0907925326
C   C29       1.0  0.12230  0.55770  0.64950  1.0000 0.5909526809
C   C30       1.0  0.55770  0.12230  0.85050  1.0000 0.5909526809
C   C31       1.0  0.87770  0.44230  0.35050  1.0000 0.5909526809
C   C32       1.0  0.44230  0.87770  0.14950  1.0000 0.5909526809
C   C33       1.0  0.30870  0.53710  0.89720  1.0000 0.5997859824
C   C34       1.0  0.53710  0.30870  0.60280  1.0000 0.5997859824
C   C35       1.0  0.69130  0.46290  0.10280  1.0000 0.5997859824
C   C36       1.0  0.46290  0.69130  0.39720  1.0000 0.5997859824
C   C37       1.0  0.21800  0.33320  0.11900  1.0000 0.5997859824
C   C38       1.0  0.33320  0.21800  0.38100  1.0000 0.5997859824
C   C39       1.0  0.78200  0.66680  0.88100  1.0000 0.5997859824
C   C40       1.0  0.66680  0.78200  0.61900  1.0000 0.5997859824
C   C41       1.0  0.15300  0.26480  0.20880  1.0000 -0.0123451383
C   C42       1.0  0.26480  0.15300  0.29120  1.0000 -0.0123451383
C   C43       1.0  0.84700  0.73520  0.79120  1.0000 -0.0123451383
C   C44       1.0  0.73520  0.84700  0.70880  1.0000 -0.0123451383
C   C45       1.0  0.20810  0.32090  0.29420  1.0000 -0.119791119
C   C46       1.0  0.32090  0.20810  0.20580  1.0000 -0.119791119
C   C47       1.0  0.79190  0.67910  0.70580  1.0000 -0.119791119
C   C48       1.0  0.67910  0.79190  0.79420  1.0000 -0.119791119
C   C49       1.0  0.15420  0.26180  0.38050  1.0000 -0.0123451383
C   C50       1.0  0.26180  0.15420  0.11950  1.0000 -0.0123451383
C   C51       1.0  0.84580  0.73820  0.61950  1.0000 -0.0123451383
C   C52       1.0  0.73820  0.84580  0.88050  1.0000 -0.0123451383
C   C53       1.0  0.04360  0.14660  0.38140  1.0000 -0.0907925326
C   C54       1.0  0.14660  0.04360  0.11860  1.0000 -0.0907925326
C   C55       1.0  0.95640  0.85340  0.61860  1.0000 -0.0907925326
C   C56       1.0  0.85340  0.95640  0.88140  1.0000 -0.0907925326
C   C57       1.0  0.98640  0.08900  0.29530  1.0000 -0.0172112231
C   C58       1.0  0.08900  0.98640  0.20470  1.0000 -0.0172112231
C   C59       1.0  0.01360  0.91100  0.70470  1.0000 -0.0172112231
C   C60       1.0  0.91100  0.01360  0.79530  1.0000 -0.0172112231
C   C61       1.0  0.04240  0.14760  0.20960  1.0000 -0.0983948452
C   C62       1.0  0.14760  0.04240  0.29040  1.0000 -0.0983948452
C   C63       1.0  0.95760  0.85240  0.79040  1.0000 -0.0983948452
C   C64       1.0  0.85240  0.95760  0.70960  1.0000 -0.0983948452
C   C65       1.0  0.86310  0.96570  0.29400  1.0000 0.5997859824
C   C66       1.0  0.96570  0.86310  0.20600  1.0000 0.5997859824
C   C67       1.0  0.13690  0.03430  0.70600  1.0000 0.5997859824
C   C68       1.0  0.03430  0.13690  0.79400  1.0000 0.5997859824
C   C69       1.0  0.21980  0.32700  0.47120  1.0000 0.6052123694
C   C70       1.0  0.32700  0.21980  0.02880  1.0000 0.6052123694
C   C71       1.0  0.78020  0.67300  0.52880  1.0000 0.6052123694
C   C72       1.0  0.67300  0.78020  0.97120  1.0000 0.6052123694
Se  Se1       1.0  0.43648  0.46920  0.86198  1.0000 1.153532335
Se  Se2       1.0  0.46920  0.43648  0.63802  1.0000 1.153532335
Se  Se3       1.0  0.56352  0.53080  0.13802  1.0000 1.153532335
Se  Se4       1.0  0.53080  0.56352  0.36198  1.0000 1.153532335
O   O1        1.0  0.50820  0.91880  0.93180  1.0000 -0.519703989
O   O2        1.0  0.91880  0.50820  0.56820  1.0000 -0.519703989
O   O3        1.0  0.49180  0.08120  0.06820  1.0000 -0.519703989
O   O4        1.0  0.08120  0.49180  0.43180  1.0000 -0.519703989
O   O5        1.0  0.34845  0.84535  0.91340  1.0000 -0.5129953587
O   O6        1.0  0.84535  0.34845  0.58660  1.0000 -0.5129953587
O   O7        1.0  0.65155  0.15465  0.08660  1.0000 -0.5129953587
O   O8        1.0  0.15465  0.65155  0.41340  1.0000 -0.5129953587
O   O9        1.0  0.12969  0.62151  0.61000  1.0000 -0.5375025036
O   O10       1.0  0.62151  0.12969  0.89000  1.0000 -0.5375025036
O   O11       1.0  0.87031  0.37849  0.39000  1.0000 -0.5375025036
O   O12       1.0  0.37849  0.87031  0.11000  1.0000 -0.5375025036
O   O13       1.0  0.05361  0.46059  0.62290  1.0000 -0.5129953587
O   O14       1.0  0.46059  0.05361  0.87710  1.0000 -0.5129953587
O   O15       1.0  0.94639  0.53941  0.37710  1.0000 -0.5129953587
O   O16       1.0  0.53941  0.94639  0.12290  1.0000 -0.5129953587
O   O17       1.0  0.35683  0.56797  0.98020  1.0000 -0.5375025036
O   O18       1.0  0.56797  0.35683  0.51980  1.0000 -0.5375025036
O   O19       1.0  0.64317  0.43203  0.01980  1.0000 -0.5375025036
O   O20       1.0  0.43203  0.64317  0.48020  1.0000 -0.5375025036
O   O21       1.0  0.27322  0.46578  0.85180  1.0000 -0.5796479197
O   O22       1.0  0.46578  0.27322  0.64820  1.0000 -0.5796479197
O   O23       1.0  0.72678  0.53422  0.14820  1.0000 -0.5796479197
O   O24       1.0  0.53422  0.72678  0.35180  1.0000 -0.5796479197
O   O25       1.0  0.16570  0.28150  0.04090  1.0000 -0.5129953587
O   O26       1.0  0.28150  0.16570  0.45910  1.0000 -0.5129953587
O   O27       1.0  0.83430  0.71850  0.95910  1.0000 -0.5129953587
O   O28       1.0  0.71850  0.83430  0.54090  1.0000 -0.5129953587
O   O29       1.0  0.31882  0.43558  0.12920  1.0000 -0.5375025036
O   O30       1.0  0.43558  0.31882  0.37080  1.0000 -0.5375025036
O   O31       1.0  0.68118  0.56442  0.87080  1.0000 -0.5375025036
O   O32       1.0  0.56442  0.68118  0.62920  1.0000 -0.5375025036
O   O33       1.0  0.81140  0.92700  0.36930  1.0000 -0.519703989
O   O34       1.0  0.92700  0.81140  0.13070  1.0000 -0.519703989
O   O35       1.0  0.18860  0.07300  0.63070  1.0000 -0.519703989
O   O36       1.0  0.07300  0.18860  0.86930  1.0000 -0.5129953587
O   O37       1.0  0.82343  0.91377  0.22090  1.0000 -0.519703989
O   O38       1.0  0.91377  0.82343  0.27910  1.0000 -0.519703989
O   O39       1.0  0.17657  0.08623  0.77910  1.0000 -0.519703989
O   O40       1.0  0.08623  0.17657  0.72090  1.0000 -0.519703989
O   O41       1.0  0.17764  0.26896  0.54960  1.0000 -0.5129953587
O   O42       1.0  0.26896  0.17764  0.95040  1.0000 -0.5129953587
O   O43       1.0  0.82236  0.73104  0.45040  1.0000 -0.5129953587
O   O44       1.0  0.73104  0.82236  0.04960  1.0000 -0.5129953587
O   O45       1.0  0.31056  0.43484  0.45960  1.0000 -0.5721895308
O   O46       1.0  0.43484  0.31056  0.04040  1.0000 -0.5721895308
O   O47       1.0  0.68944  0.56516  0.54040  1.0000 -0.5721895308
O   O48       1.0  0.56516  0.68944  0.95960  1.0000 -0.5721895308
O   O49       1.0  0.38699  0.43321  0.97050  1.0000 -0.7086697431
O   O50       1.0  0.43321  0.38699  0.52950  1.0000 -0.7086697431
O   O51       1.0  0.61301  0.56679  0.02950  1.0000 -0.7086697431
O   O52       1.0  0.56679  0.61301  0.47050  1.0000 -0.7086697431
O   O53       1.0  0.29819  0.35961  0.80950  1.0000 -0.7415645929
O   O54       1.0  0.35961  0.29819  0.69050  1.0000 -0.7415645929
O   O55       1.0  0.70181  0.64039  0.19050  1.0000 -0.7415645929
O   O56       1.0  0.64039  0.70181  0.30950  1.0000 -0.7415645929
O   O57       1.0  0.45432  0.40588  0.86180  1.0000 -0.7237524004
O   O58       1.0  0.40588  0.45432  0.63820  1.0000 -0.7237524004
O   O59       1.0  0.54568  0.59412  0.13820  1.0000 -0.7237524004
O   O60       1.0  0.59412  0.54568  0.36180  1.0000 -0.7237524004
