# DDEC6 charges by PACMAN v1.1 (https://github.com/mtap-research/PACMAN-charge/)
data_2014[Mn][nan]3[ASR]9
_chemical_formula_sum              "Mn6 H6 C18 N18 Cl6"
_cell_length_a       14.4151
_cell_length_b       14.4151
_cell_length_c       14.4151
_cell_angle_alpha    116.375
_cell_angle_beta     116.375
_cell_angle_gamma    116.375

_symmetry_space_group_name_H-M    "P 1"
_symmetry_Int_Tables_number       1

loop_
  _symmetry_equiv_pos_as_xyz
  'x, y, z'

loop_
  _atom_site_type_symbol
  _atom_site_label
  _atom_site_symmetry_multiplicity
  _atom_site_fract_x
  _atom_site_fract_y
  _atom_site_fract_z
  _atom_site_occupancy
  _atom_site_charge
Mn  Mn1       1.0  0.71779  0.28221  0.00000  1.0000 0.6065922291
Mn  Mn2       1.0  0.28221  0.00000  0.71779  1.0000 0.6065922291
Mn  Mn3       1.0  0.00000  0.71778  0.28221  1.0000 0.6065922291
Mn  Mn4       1.0  0.28221  0.71778  0.00000  1.0000 0.6065922291
Mn  Mn5       1.0  0.71779  0.00000  0.28221  1.0000 0.6022004635
Mn  Mn6       1.0  0.00000  0.28221  0.71779  1.0000 0.6065922291
H   H1        1.0  0.75955  0.19213  0.19213  1.0000 0.1350017041
H   H2        1.0  0.19213  0.19213  0.75955  1.0000 0.134482056
H   H3        1.0  0.19213  0.75955  0.19213  1.0000 0.134482056
H   H4        1.0  0.24045  0.80787  0.80787  1.0000 0.134482056
H   H5        1.0  0.80787  0.24045  0.80787  1.0000 0.134482056
H   H6        1.0  0.80787  0.80787  0.24045  1.0000 0.134482056
C   C1        1.0  0.92982  0.46034  0.36265  1.0000 0.1585753263
C   C2        1.0  0.46034  0.36265  0.92982  1.0000 0.1585753263
C   C3        1.0  0.36265  0.92982  0.46034  1.0000 0.1585753263
C   C4        1.0  0.07018  0.63735  0.53966  1.0000 0.1585753263
C   C5        1.0  0.53966  0.07018  0.63735  1.0000 0.1585753263
C   C6        1.0  0.63735  0.53966  0.07018  1.0000 0.1585753263
C   C7        1.0  0.07018  0.53966  0.63735  1.0000 0.1585753263
C   C8        1.0  0.53966  0.63735  0.07018  1.0000 0.1585753263
C   C9        1.0  0.63735  0.07018  0.53966  1.0000 0.1585753263
C   C10       1.0  0.92982  0.36265  0.46034  1.0000 0.1585753263
C   C11       1.0  0.46034  0.92982  0.36265  1.0000 0.1585753263
C   C12       1.0  0.36265  0.46034  0.92982  1.0000 0.1585753263
C   C13       1.0  0.85921  0.32107  0.32107  1.0000 -0.2481496135
C   C14       1.0  0.32107  0.32107  0.85921  1.0000 -0.2481496135
C   C15       1.0  0.32107  0.85921  0.32107  1.0000 -0.2481496135
C   C16       1.0  0.14079  0.67893  0.67893  1.0000 -0.2481496135
C   C17       1.0  0.67893  0.14079  0.67893  1.0000 -0.2481496135
C   C18       1.0  0.67893  0.67893  0.14079  1.0000 -0.2481496135
N   N1        1.0  0.89180  0.46651  0.26235  1.0000 -0.2207679835
N   N2        1.0  0.46651  0.26235  0.89180  1.0000 -0.2207679835
N   N3        1.0  0.26235  0.89180  0.46651  1.0000 -0.2207679835
N   N4        1.0  0.10820  0.73765  0.53349  1.0000 -0.2207679835
N   N5        1.0  0.53349  0.10820  0.73765  1.0000 -0.2207679835
N   N6        1.0  0.73765  0.53349  0.10820  1.0000 -0.2207679835
N   N7        1.0  0.10820  0.53349  0.73765  1.0000 -0.2207679835
N   N8        1.0  0.53349  0.73765  0.10820  1.0000 -0.2207679835
N   N9        1.0  0.73765  0.10820  0.53349  1.0000 -0.2207679835
N   N10       1.0  0.89180  0.26235  0.46651  1.0000 -0.2207679835
N   N11       1.0  0.46651  0.89180  0.26235  1.0000 -0.2207679835
N   N12       1.0  0.26235  0.46651  0.89180  1.0000 -0.2207679835
N   N13       1.0  0.00000  0.63138  0.36862  1.0000 0.0119762863
N   N14       1.0  0.63138  0.36862  0.00000  1.0000 0.0119762863
N   N15       1.0  0.36862  0.00000  0.63138  1.0000 0.0119762863
N   N16       1.0  0.00000  0.36862  0.63138  1.0000 0.0119762863
N   N17       1.0  0.36862  0.63138  0.00000  1.0000 0.0119762863
N   N18       1.0  0.63138  0.00000  0.36862  1.0000 0.0119762863
Cl  Cl1       1.0  0.92296  0.50000  0.07704  1.0000 -0.3798702905
Cl  Cl2       1.0  0.50000  0.07704  0.92296  1.0000 -0.3798702905
Cl  Cl3       1.0  0.07704  0.92296  0.50000  1.0000 -0.3798702905
Cl  Cl4       1.0  0.07704  0.50000  0.92296  1.0000 -0.3798702905
Cl  Cl5       1.0  0.50000  0.92296  0.07704  1.0000 -0.3798702905
Cl  Cl6       1.0  0.92296  0.07704  0.50000  1.0000 -0.3798702905
