# DDEC6 charges by PACMAN v1.1 (https://github.com/mtap-research/PACMAN-charge/)
data_2014[ZnEu][nan]3[ASR]1
_chemical_formula_sum              "Eu2 Zn2 H20 C40 N6 O20"
_cell_length_a       10.59
_cell_length_b       11.333
_cell_length_c       12.464
_cell_angle_alpha    86.46
_cell_angle_beta     82.19
_cell_angle_gamma    89.17

_symmetry_space_group_name_H-M    "P 1"
_symmetry_Int_Tables_number       1

loop_
  _symmetry_equiv_pos_as_xyz
  'x, y, z'

loop_
  _atom_site_type_symbol
  _atom_site_label
  _atom_site_symmetry_multiplicity
  _atom_site_fract_x
  _atom_site_fract_y
  _atom_site_fract_z
  _atom_site_occupancy
  _atom_site_charge
Eu  Eu1       1.0  0.07151  0.51475  0.23896  1.0000 2.007656485
Eu  Eu2       1.0  0.92849  0.48525  0.76104  1.0000 2.007656485
Zn  Zn1       1.0  0.13215  0.83727  0.79891  1.0000 0.7449266613
Zn  Zn2       1.0  0.86785  0.16273  0.20109  1.0000 0.7449266613
H   H1        1.0  0.17750  0.90250  0.32540  1.0000 0.1183315069
H   H2        1.0  0.82250  0.09750  0.67460  1.0000 0.1183315069
H   H3        1.0  0.21870  0.06240  0.42000  1.0000 0.1296216071
H   H4        1.0  0.78130  0.93760  0.58000  1.0000 0.1296216071
H   H5        1.0  0.20300  0.04100  0.60830  1.0000 0.1183315069
H   H6        1.0  0.79700  0.95900  0.39170  1.0000 0.1183315069
H   H7        1.0  0.59360  0.12290  0.30470  1.0000 0.1113499441
H   H8        1.0  0.40640  0.87710  0.69530  1.0000 0.1113499441
H   H9        1.0  0.39680  0.20810  0.31800  1.0000 0.1296216071
H   H10       1.0  0.60320  0.79190  0.68200  1.0000 0.1296216071
H   H11       1.0  0.54200  0.47050  0.11120  1.0000 0.1479855031
H   H12       1.0  0.45800  0.52950  0.88880  1.0000 0.1479855031
H   H13       1.0  0.73680  0.38110  0.10570  1.0000 0.1296216071
H   H14       1.0  0.26320  0.61890  0.89430  1.0000 0.1296216071
H   H15       1.0  0.31270  0.88380  0.05420  1.0000 0.1296216071
H   H16       1.0  0.68730  0.11620  0.94580  1.0000 0.1296216071
H   H17       1.0  0.34520  0.06990  0.11110  1.0000 0.1296216071
H   H18       1.0  0.65480  0.93010  0.88890  1.0000 0.1296216071
H   H19       1.0  0.17320  0.17990  0.18310  1.0000 0.1183315069
H   H20       1.0  0.82680  0.82010  0.81690  1.0000 0.1183315069
C   C1        1.0  0.06690  0.67830  0.63730  1.0000 0.5434635282
C   C2        1.0  0.93310  0.32170  0.36270  1.0000 0.5434635282
C   C3        1.0  0.11700  0.78470  0.56890  1.0000 0.0811327454
C   C4        1.0  0.88300  0.21530  0.43110  1.0000 0.0811327454
C   C5        1.0  0.12960  0.78900  0.45620  1.0000 -0.0225615715
C   C6        1.0  0.87040  0.21100  0.54380  1.0000 -0.0225615715
C   C7        1.0  0.16880  0.89590  0.40080  1.0000 -0.0713833918
C   C8        1.0  0.83120  0.10410  0.59920  1.0000 -0.0713833918
C   C9        1.0  0.19450  0.99060  0.45650  1.0000 -0.141598679
C   C10       1.0  0.80550  0.00940  0.54350  1.0000 -0.141598679
C   C11       1.0  0.18380  0.97740  0.56980  1.0000 0.0811327454
C   C12       1.0  0.81620  0.02260  0.43020  1.0000 0.0811327454
C   C13       1.0  0.58340  0.19440  0.26610  1.0000 0.056723103
C   C14       1.0  0.41660  0.80560  0.73390  1.0000 0.056723103
C   C15       1.0  0.46490  0.24470  0.27400  1.0000 -0.1616342961
C   C16       1.0  0.53510  0.75530  0.72600  1.0000 -0.1616342961
C   C17       1.0  0.44650  0.34970  0.21650  1.0000 0.0287103132
C   C18       1.0  0.55350  0.65030  0.78350  1.0000 0.0287103132
C   C19       1.0  0.55090  0.40010  0.15210  1.0000 -0.141598679
C   C20       1.0  0.44910  0.59990  0.84790  1.0000 -0.141598679
C   C21       1.0  0.66740  0.34560  0.14890  1.0000 0.0811327454
C   C22       1.0  0.33260  0.65440  0.85110  1.0000 0.0811327454
C   C23       1.0  0.31750  0.40700  0.22240  1.0000 0.5624753535
C   C24       1.0  0.68250  0.59300  0.77760  1.0000 0.5624753535
C   C25       1.0  0.88120  0.92130  0.14210  1.0000 0.5235994161
C   C26       1.0  0.11880  0.07870  0.85790  1.0000 0.5250639618
C   C27       1.0  0.02050  0.95820  0.13060  1.0000 0.0669860393
C   C28       1.0  0.97950  0.04180  0.86940  1.0000 0.0669860393
C   C29       1.0  0.12100  0.88620  0.08910  1.0000 -0.0713833918
C   C30       1.0  0.87900  0.11380  0.91090  1.0000 -0.0713833918
C   C31       1.0  0.09980  0.76370  0.05420  1.0000 0.6510448754
C   C32       1.0  0.90020  0.23630  0.94580  1.0000 0.6510448754
C   C33       1.0  0.24360  0.92940  0.08210  1.0000 -0.0713833918
C   C34       1.0  0.75640  0.07060  0.91790  1.0000 -0.0713833918
C   C35       1.0  0.26310  0.04000  0.11620  1.0000 -0.1306073963
C   C36       1.0  0.73690  0.96000  0.88380  1.0000 -0.1306073963
C   C37       1.0  0.15970  0.10610  0.15820  1.0000 0.0811327454
C   C38       1.0  0.84030  0.89390  0.84180  1.0000 0.0811327454
C   C39       1.0  0.10280  0.68690  0.39070  1.0000 0.6047740281
C   C40       1.0  0.89720  0.31310  0.60930  1.0000 0.6047740281
N   N1        1.0  0.14690  0.87590  0.62380  1.0000 -0.2511400058
N   N2        1.0  0.85310  0.12410  0.37620  1.0000 -0.2511400058
N   N3        1.0  0.68650  0.24350  0.20500  1.0000 -0.2046548276
N   N4        1.0  0.31350  0.75650  0.79500  1.0000 -0.2046548276
N   N5        1.0  0.03960  0.06600  0.16400  1.0000 -0.2385891601
N   N6        1.0  0.96040  0.93400  0.83600  1.0000 -0.2385891601
O   O1        1.0  0.99600  0.67960  0.35900  1.0000 -0.6020196974
O   O2        1.0  0.00400  0.32040  0.64100  1.0000 -0.6020196974
O   O3        1.0  0.03460  0.59000  0.59360  1.0000 -0.5388166904
O   O4        1.0  0.96540  0.41000  0.40640  1.0000 -0.5388166904
O   O5        1.0  0.05380  0.68380  0.74000  1.0000 -0.6206900477
O   O6        1.0  0.94620  0.31620  0.26000  1.0000 -0.6206900477
O   O7        1.0  0.22470  0.35880  0.28360  1.0000 -0.645083934
O   O8        1.0  0.77530  0.64120  0.71640  1.0000 -0.645083934
O   O9        1.0  0.30280  0.50180  0.16670  1.0000 -0.6206900477
O   O10       1.0  0.69720  0.49820  0.83330  1.0000 -0.6206900477
O   O11       1.0  0.79880  0.99760  0.17380  1.0000 -0.5527490377
O   O12       1.0  0.20120  0.00240  0.82620  1.0000 -0.5527490377
O   O13       1.0  0.85800  0.81880  0.12120  1.0000 -0.4890078008
O   O14       1.0  0.14200  0.18120  0.87880  1.0000 -0.4890078008
O   O15       1.0  0.10660  0.68060  0.12380  1.0000 -0.6755986511
O   O16       1.0  0.89340  0.31940  0.87620  1.0000 -0.6743641793
O   O17       1.0  0.08390  0.75100  0.95760  1.0000 -0.5340358316
O   O18       1.0  0.91610  0.24900  0.04240  1.0000 -0.5340358316
O   O19       1.0  0.19280  0.61680  0.36180  1.0000 -0.5934517681
O   O20       1.0  0.80720  0.38320  0.63820  1.0000 -0.5934517681
