# DDEC6 charges by PACMAN v1.1 (https://github.com/mtap-research/PACMAN-charge/)
data_2014[Mg][nan]3[ASR]6
_chemical_formula_sum              "Mg4 H32 C52 N4 O20"
_cell_length_a       12.3433
_cell_length_b       12.3433
_cell_length_c       11.9349
_cell_angle_alpha    68.517
_cell_angle_beta     111.483
_cell_angle_gamma    84.2404

_symmetry_space_group_name_H-M    "P 1"
_symmetry_Int_Tables_number       1

loop_
  _symmetry_equiv_pos_as_xyz
  'x, y, z'

loop_
  _atom_site_type_symbol
  _atom_site_label
  _atom_site_symmetry_multiplicity
  _atom_site_fract_x
  _atom_site_fract_y
  _atom_site_fract_z
  _atom_site_occupancy
  _atom_site_charge
Mg  Mg1       1.0  0.69776  0.69776  0.75000  1.0000 1.3523478277
Mg  Mg2       1.0  0.30224  0.30224  0.25000  1.0000 1.3523478277
Mg  Mg3       1.0  0.50000  0.00000  0.50000  1.0000 1.3523478277
Mg  Mg4       1.0  0.00000  0.50000  0.00000  1.0000 1.3523478277
H   H1        1.0  0.28600  0.82800  0.25500  1.0000 0.1180604913
H   H2        1.0  0.82800  0.28600  0.24500  1.0000 0.1180604913
H   H3        1.0  0.71400  0.17200  0.74500  1.0000 0.1180604913
H   H4        1.0  0.17200  0.71400  0.75500  1.0000 0.1180604913
H   H5        1.0  0.16500  0.72700  0.15800  1.0000 0.1064851724
H   H6        1.0  0.72700  0.16500  0.34200  1.0000 0.1064851724
H   H7        1.0  0.83500  0.27300  0.84200  1.0000 0.1064851724
H   H8        1.0  0.27300  0.83500  0.65800  1.0000 0.1064851724
H   H9        1.0  0.30800  0.45400  0.50100  1.0000 0.1283270766
H   H10       1.0  0.45400  0.30800  0.99900  1.0000 0.1283270766
H   H11       1.0  0.69200  0.54600  0.49900  1.0000 0.1283270766
H   H12       1.0  0.54600  0.69200  0.00100  1.0000 0.1283270766
H   H13       1.0  0.42500  0.56100  0.59600  1.0000 0.145672483
H   H14       1.0  0.56100  0.42500  0.90400  1.0000 0.1403538855
H   H15       1.0  0.57500  0.43900  0.40400  1.0000 0.1403538855
H   H16       1.0  0.43900  0.57500  0.09600  1.0000 0.1403538855
H   H17       1.0  0.75600  0.04400  0.63000  1.0000 0.1283270766
H   H18       1.0  0.04400  0.75600  0.87000  1.0000 0.1283270766
H   H19       1.0  0.24400  0.95600  0.37000  1.0000 0.1283270766
H   H20       1.0  0.95600  0.24400  0.13000  1.0000 0.1283270766
H   H21       1.0  0.91900  0.09900  0.58800  1.0000 0.1403538855
H   H22       1.0  0.09900  0.91900  0.91200  1.0000 0.1403538855
H   H23       1.0  0.08100  0.90100  0.41200  1.0000 0.1403538855
H   H24       1.0  0.90100  0.08100  0.08800  1.0000 0.1403538855
H   H25       1.0  0.93800  0.84000  0.46100  1.0000 0.1403538855
H   H26       1.0  0.84000  0.93800  0.03900  1.0000 0.1403538855
H   H27       1.0  0.06200  0.16000  0.53900  1.0000 0.1403538855
H   H28       1.0  0.16000  0.06200  0.96100  1.0000 0.1403538855
H   H29       1.0  0.78600  0.77600  0.52300  1.0000 0.145672483
H   H30       1.0  0.77600  0.78600  0.97700  1.0000 0.145672483
H   H31       1.0  0.21400  0.22400  0.47700  1.0000 0.145672483
H   H32       1.0  0.22400  0.21400  0.02300  1.0000 0.145672483
C   C1        1.0  0.37330  0.69870  0.44190  1.0000 -0.0391554411
C   C2        1.0  0.69870  0.37330  0.05810  1.0000 -0.0391554411
C   C3        1.0  0.62670  0.30130  0.55810  1.0000 -0.0391554411
C   C4        1.0  0.30130  0.62670  0.94190  1.0000 -0.0391554411
C   C5        1.0  0.28960  0.75340  0.30940  1.0000 -0.1101964458
C   C6        1.0  0.75340  0.28960  0.19060  1.0000 -0.1101964458
C   C7        1.0  0.71040  0.24660  0.69060  1.0000 -0.1101964458
C   C8        1.0  0.24660  0.71040  0.80940  1.0000 -0.1101964458
C   C9        1.0  0.21950  0.68950  0.25500  1.0000 -0.1201959595
C   C10       1.0  0.68950  0.21950  0.24500  1.0000 -0.1201959595
C   C11       1.0  0.78050  0.31050  0.74500  1.0000 -0.1201959595
C   C12       1.0  0.31050  0.78050  0.75500  1.0000 -0.1201959595
C   C13       1.0  0.23240  0.56940  0.32910  1.0000 -0.0185651134
C   C14       1.0  0.56940  0.23240  0.17090  1.0000 -0.0185651134
C   C15       1.0  0.76760  0.43060  0.67090  1.0000 -0.0185651134
C   C16       1.0  0.43060  0.76760  0.82910  1.0000 -0.0185651134
C   C17       1.0  0.31570  0.51590  0.46170  1.0000 -0.104234372
C   C18       1.0  0.51590  0.31570  0.03830  1.0000 -0.104234372
C   C19       1.0  0.68430  0.48410  0.53830  1.0000 -0.104234372
C   C20       1.0  0.48410  0.68430  0.96170  1.0000 -0.104234372
C   C21       1.0  0.38430  0.58050  0.51600  1.0000 -0.0927642516
C   C22       1.0  0.58050  0.38430  0.98400  1.0000 -0.0927642516
C   C23       1.0  0.61570  0.41950  0.48400  1.0000 -0.0927642516
C   C24       1.0  0.41950  0.61570  0.01600  1.0000 -0.0927642516
C   C25       1.0  0.45530  0.76470  0.50180  1.0000 0.616671867
C   C26       1.0  0.76470  0.45530  0.99820  1.0000 0.616671867
C   C27       1.0  0.54470  0.23530  0.49820  1.0000 0.616671867
C   C28       1.0  0.23530  0.54470  0.00180  1.0000 0.616671867
C   C29       1.0  0.16790  0.49630  0.26400  1.0000 0.6270071186
C   C30       1.0  0.49630  0.16790  0.23600  1.0000 0.6270071186
C   C31       1.0  0.83210  0.50370  0.73600  1.0000 0.6270071186
C   C32       1.0  0.50370  0.83210  0.76400  1.0000 0.6270071186
C   C33       1.0  0.80720  0.99920  0.60480  1.0000 -0.0391554411
C   C34       1.0  0.99920  0.80720  0.89520  1.0000 -0.0391554411
C   C35       1.0  0.19280  0.00080  0.39520  1.0000 -0.0391554411
C   C36       1.0  0.00080  0.19280  0.10480  1.0000 -0.0391554411
C   C37       1.0  0.89910  0.03470  0.57560  1.0000 -0.1805954657
C   C38       1.0  0.03470  0.89910  0.92440  1.0000 -0.1805954657
C   C39       1.0  0.10090  0.96530  0.42440  1.0000 -0.1805954657
C   C40       1.0  0.96530  0.10090  0.07560  1.0000 -0.1805954657
C   C41       1.0  0.95160  0.97940  0.51870  1.0000 0.0922652532
C   C42       1.0  0.97940  0.95160  0.98130  1.0000 0.0922652532
C   C43       1.0  0.04840  0.02060  0.48130  1.0000 0.0922652532
C   C44       1.0  0.02060  0.04840  0.01870  1.0000 0.0922652532
C   C45       1.0  0.90910  0.88650  0.49740  1.0000 -0.1805954657
C   C46       1.0  0.88650  0.90910  0.00260  1.0000 -0.1805954657
C   C47       1.0  0.09090  0.11350  0.50260  1.0000 -0.1805954657
C   C48       1.0  0.11350  0.09090  0.99740  1.0000 -0.1805954657
C   C49       1.0  0.81900  0.85100  0.52850  1.0000 -0.0135387548
C   C50       1.0  0.85100  0.81900  0.97150  1.0000 -0.0135387548
C   C51       1.0  0.18100  0.14900  0.47150  1.0000 -0.0135387548
C   C52       1.0  0.14900  0.18100  0.02850  1.0000 -0.0135387548
N   N1        1.0  0.76930  0.90890  0.58130  1.0000 0.3297324695
N   N2        1.0  0.90890  0.76930  0.91870  1.0000 0.3297324695
N   N3        1.0  0.23070  0.09110  0.41870  1.0000 0.3297324695
N   N4        1.0  0.09110  0.23070  0.08130  1.0000 0.3297324695
O   O1        1.0  0.53571  0.70449  0.61800  1.0000 -0.6278074838
O   O2        1.0  0.70449  0.53571  0.88200  1.0000 -0.6278074838
O   O3        1.0  0.46429  0.29551  0.38200  1.0000 -0.6278074838
O   O4        1.0  0.29551  0.46429  0.11800  1.0000 -0.6278074838
O   O5        1.0  0.43642  0.87722  0.43140  1.0000 -0.6463289193
O   O6        1.0  0.87722  0.43642  0.06860  1.0000 -0.6463289193
O   O7        1.0  0.56358  0.12278  0.56860  1.0000 -0.6463289193
O   O8        1.0  0.12278  0.56358  0.93140  1.0000 -0.6463289193
O   O9        1.0  0.21177  0.38367  0.32390  1.0000 -0.6463289193
O   O10       1.0  0.38367  0.21177  0.17610  1.0000 -0.6463289193
O   O11       1.0  0.78823  0.61633  0.67610  1.0000 -0.6463289193
O   O12       1.0  0.61633  0.78823  0.82390  1.0000 -0.6463289193
O   O13       1.0  0.07592  0.55116  0.15280  1.0000 -0.6278074838
O   O14       1.0  0.55116  0.07592  0.34720  1.0000 -0.6278074838
O   O15       1.0  0.92408  0.44884  0.84720  1.0000 -0.6278074838
O   O16       1.0  0.44884  0.92408  0.65280  1.0000 -0.6278074838
O   O17       1.0  0.67989  0.87505  0.61170  1.0000 -0.6200186245
O   O18       1.0  0.87505  0.67989  0.88830  1.0000 -0.6200186245
O   O19       1.0  0.32011  0.12495  0.38830  1.0000 -0.6200186245
O   O20       1.0  0.12495  0.32011  0.11170  1.0000 -0.6200186245
