# DDEC6 charges by PACMAN v1.1 (https://github.com/mtap-research/PACMAN-charge/)
data_2015[Nd][fgl]3[ASR]1
_chemical_formula_sum              "Nd18 H36 C108 N36 O72"
_cell_length_a       12.328
_cell_length_b       16.07
_cell_length_c       28.5442
_cell_angle_alpha    106.349
_cell_angle_beta     96.5046
_cell_angle_gamma    90

_symmetry_space_group_name_H-M    "P 1"
_symmetry_Int_Tables_number       1

loop_
  _symmetry_equiv_pos_as_xyz
  'x, y, z'

loop_
  _atom_site_type_symbol
  _atom_site_label
  _atom_site_symmetry_multiplicity
  _atom_site_fract_x
  _atom_site_fract_y
  _atom_site_fract_z
  _atom_site_occupancy
  _atom_site_charge
Nd  Nd1       1.0  0.60692  0.18818  0.45357  1.0000 1.9113972094
Nd  Nd2       1.0  0.39308  0.81182  0.54643  1.0000 1.9113972094
Nd  Nd3       1.0  0.89308  0.73461  0.54643  1.0000 1.9113972094
Nd  Nd4       1.0  0.10692  0.26539  0.45357  1.0000 1.9113972094
Nd  Nd5       1.0  0.83647  0.04011  0.19530  1.0000 1.9186494059
Nd  Nd6       1.0  0.16353  0.95989  0.80470  1.0000 1.9113972094
Nd  Nd7       1.0  0.66353  0.84481  0.80470  1.0000 1.9113972094
Nd  Nd8       1.0  0.33647  0.15519  0.19530  1.0000 1.9113972094
Nd  Nd9       1.0  0.78036  0.81735  0.34145  1.0000 1.9186494059
Nd  Nd10      1.0  0.21964  0.18265  0.65855  1.0000 1.9186494059
Nd  Nd11      1.0  0.71964  0.47590  0.65855  1.0000 1.9113972094
Nd  Nd12      1.0  0.28036  0.52410  0.34145  1.0000 1.9113972094
Nd  Nd13      1.0  0.64777  0.52878  0.13359  1.0000 1.9259610083
Nd  Nd14      1.0  0.35223  0.47122  0.86641  1.0000 1.9186494059
Nd  Nd15      1.0  0.85223  0.39518  0.86641  1.0000 1.9259610083
Nd  Nd16      1.0  0.14777  0.60482  0.13359  1.0000 1.9259610083
Nd  Nd17      1.0  0.75000  0.15023  0.00000  1.0000 1.9186494059
Nd  Nd18      1.0  0.25000  0.84977  0.00000  1.0000 1.9186494059
H   H1        1.0  0.25967  0.15145  0.30778  1.0000 0.0803823887
H   H2        1.0  0.74033  0.84855  0.69222  1.0000 0.0803823887
H   H3        1.0  0.24033  0.84367  0.69222  1.0000 0.0803823887
H   H4        1.0  0.75967  0.15633  0.30778  1.0000 0.0803823887
H   H5        1.0  0.64689  0.08627  0.33296  1.0000 0.0898787549
H   H6        1.0  0.35311  0.91373  0.66704  1.0000 0.0898787549
H   H7        1.0  0.85311  0.75331  0.66704  1.0000 0.0898787549
H   H8        1.0  0.14689  0.24669  0.33296  1.0000 0.0898787549
H   H9        1.0  0.57431  0.85548  0.47304  1.0000 0.0898787549
H   H10       1.0  0.42569  0.14452  0.52696  1.0000 0.0898787549
H   H11       1.0  0.92569  0.38243  0.52696  1.0000 0.0898787549
H   H12       1.0  0.07431  0.61757  0.47304  1.0000 0.0898787549
H   H13       1.0  0.10841  0.64416  0.41635  1.0000 0.0898787549
H   H14       1.0  0.89159  0.35584  0.58365  1.0000 0.0898787549
H   H15       1.0  0.39159  0.22780  0.58365  1.0000 0.0898787549
H   H16       1.0  0.60841  0.77220  0.41635  1.0000 0.0898787549
H   H17       1.0  0.92655  0.66984  0.25928  1.0000 0.0898787549
H   H18       1.0  0.07345  0.33016  0.74072  1.0000 0.0898787549
H   H19       1.0  0.57345  0.41057  0.74072  1.0000 0.0898787549
H   H20       1.0  0.42655  0.58943  0.25928  1.0000 0.0898787549
H   H21       1.0  0.02074  0.74346  0.22975  1.0000 0.0803823887
H   H22       1.0  0.97926  0.25654  0.77025  1.0000 0.0803823887
H   H23       1.0  0.47926  0.51371  0.77025  1.0000 0.0803823887
H   H24       1.0  0.52074  0.48629  0.22975  1.0000 0.0803823887
H   H25       1.0  0.04086  0.93660  0.12512  1.0000 0.0803823887
H   H26       1.0  0.95914  0.06340  0.87488  1.0000 0.0803823887
H   H27       1.0  0.45914  0.81149  0.87488  1.0000 0.0803823887
H   H28       1.0  0.54086  0.18851  0.12512  1.0000 0.0803823887
H   H29       1.0  0.69870  0.49842  0.01510  1.0000 0.0803823887
H   H30       1.0  0.30130  0.50158  0.98490  1.0000 0.0803823887
H   H31       1.0  0.80130  0.48333  0.98490  1.0000 0.0803823887
H   H32       1.0  0.19870  0.51667  0.01510  1.0000 0.0803823887
H   H33       1.0  0.01243  0.90884  0.05603  1.0000 0.0803823887
H   H34       1.0  0.98757  0.09116  0.94397  1.0000 0.0803823887
H   H35       1.0  0.48757  0.85281  0.94397  1.0000 0.0803823887
H   H36       1.0  0.51243  0.14719  0.05603  1.0000 0.0803823887
C   C1        1.0  0.39891  0.14886  0.36118  1.0000 0.0172438413
C   C2        1.0  0.60109  0.85114  0.63882  1.0000 0.0256216135
C   C3        1.0  0.10109  0.78768  0.63882  1.0000 0.0256216135
C   C4        1.0  0.89891  0.21232  0.36118  1.0000 0.0256216135
C   C5        1.0  0.34634  0.13801  0.31394  1.0000 0.0803823887
C   C6        1.0  0.65366  0.86199  0.68606  1.0000 0.0803823887
C   C7        1.0  0.15366  0.82407  0.68606  1.0000 0.0803823887
C   C8        1.0  0.84634  0.17593  0.31394  1.0000 0.0803823887
C   C9        1.0  0.51007  0.09642  0.27960  1.0000 0.0172438413
C   C10       1.0  0.48993  0.90358  0.72040  1.0000 0.0172438413
C   C11       1.0  0.98993  0.81682  0.72040  1.0000 0.0172438413
C   C12       1.0  0.01007  0.18318  0.27960  1.0000 0.0172438413
C   C13       1.0  0.56131  0.10317  0.32686  1.0000 0.0803823887
C   C14       1.0  0.43869  0.89683  0.67314  1.0000 0.0803823887
C   C15       1.0  0.93869  0.77631  0.67314  1.0000 0.0803823887
C   C16       1.0  0.06131  0.22369  0.32686  1.0000 0.0803823887
C   C17       1.0  0.34917  0.18514  0.40722  1.0000 0.6123408911
C   C18       1.0  0.65083  0.81486  0.59278  1.0000 0.6123408911
C   C19       1.0  0.15083  0.77792  0.59278  1.0000 0.6123408911
C   C20       1.0  0.84917  0.22208  0.40722  1.0000 0.6123408911
C   C21       1.0  0.56503  0.08022  0.23427  1.0000 0.6123408911
C   C22       1.0  0.43497  0.91978  0.76573  1.0000 0.6123408911
C   C23       1.0  0.93497  0.84596  0.76573  1.0000 0.6123408911
C   C24       1.0  0.06503  0.15404  0.23427  1.0000 0.6123408911
C   C25       1.0  0.57497  0.98733  0.46660  1.0000 0.0172438413
C   C26       1.0  0.42503  0.01267  0.53340  1.0000 0.0172438413
C   C27       1.0  0.92503  0.52072  0.53340  1.0000 0.0172438413
C   C28       1.0  0.07497  0.47928  0.46660  1.0000 0.0172438413
C   C29       1.0  0.54174  0.92032  0.48435  1.0000 0.0803823887
C   C30       1.0  0.45826  0.07968  0.51565  1.0000 0.0803823887
C   C31       1.0  0.95826  0.43597  0.51565  1.0000 0.0803823887
C   C32       1.0  0.04174  0.56403  0.48435  1.0000 0.0803823887
C   C33       1.0  0.65478  0.98157  0.43059  1.0000 0.6123408911
C   C34       1.0  0.34522  0.01843  0.56941  1.0000 0.6123408911
C   C35       1.0  0.84522  0.55098  0.56941  1.0000 0.6159165103
C   C36       1.0  0.15478  0.44902  0.43059  1.0000 0.6159165103
C   C37       1.0  0.96893  0.69282  0.37977  1.0000 0.0099480011
C   C38       1.0  0.03107  0.30718  0.62023  1.0000 0.0099480011
C   C39       1.0  0.53107  0.31305  0.62023  1.0000 0.0099480011
C   C40       1.0  0.46893  0.68695  0.37977  1.0000 0.0099480011
C   C41       1.0  0.06618  0.64964  0.38161  1.0000 0.0803823887
C   C42       1.0  0.93382  0.35036  0.61839  1.0000 0.0803823887
C   C43       1.0  0.43382  0.26803  0.61839  1.0000 0.0803823887
C   C44       1.0  0.56618  0.73197  0.38161  1.0000 0.0803823887
C   C45       1.0  0.06718  0.62217  0.29633  1.0000 0.0099480011
C   C46       1.0  0.93282  0.37783  0.70367  1.0000 0.0099480011
C   C47       1.0  0.43282  0.32585  0.70367  1.0000 0.0099480011
C   C48       1.0  0.56718  0.67415  0.29633  1.0000 0.0099480011
C   C49       1.0  0.96900  0.66486  0.29429  1.0000 0.0803823887
C   C50       1.0  0.03100  0.33514  0.70571  1.0000 0.0803823887
C   C51       1.0  0.53100  0.37056  0.70571  1.0000 0.0803823887
C   C52       1.0  0.46900  0.62944  0.29429  1.0000 0.0803823887
C   C53       1.0  0.91130  0.73392  0.42274  1.0000 0.6123408911
C   C54       1.0  0.08870  0.26608  0.57726  1.0000 0.6123408911
C   C55       1.0  0.58870  0.31118  0.57726  1.0000 0.6123408911
C   C56       1.0  0.41130  0.68882  0.42274  1.0000 0.6123408911
C   C57       1.0  0.13189  0.58615  0.25501  1.0000 0.6159165103
C   C58       1.0  0.86811  0.41385  0.74499  1.0000 0.6159165103
C   C59       1.0  0.36811  0.33114  0.74499  1.0000 0.6159165103
C   C60       1.0  0.63189  0.66886  0.25501  1.0000 0.6159165103
C   C61       1.0  0.96596  0.86234  0.21440  1.0000 0.0099480011
C   C62       1.0  0.03404  0.13766  0.78560  1.0000 0.0099480011
C   C63       1.0  0.53404  0.64794  0.78560  1.0000 0.0099480011
C   C64       1.0  0.46596  0.35206  0.21440  1.0000 0.0099480011
C   C65       1.0  0.02359  0.78567  0.20578  1.0000 0.0803823887
C   C66       1.0  0.97641  0.21433  0.79422  1.0000 0.0803823887
C   C67       1.0  0.47641  0.57988  0.79422  1.0000 0.0803823887
C   C68       1.0  0.52359  0.42012  0.20578  1.0000 0.0803823887
C   C69       1.0  0.09005  0.81327  0.13755  1.0000 0.0034729038
C   C70       1.0  0.90995  0.18673  0.86245  1.0000 0.0034729038
C   C71       1.0  0.40995  0.67571  0.86245  1.0000 0.0034729038
C   C72       1.0  0.59005  0.32429  0.13755  1.0000 0.0034729038
C   C73       1.0  0.03408  0.89121  0.14701  1.0000 0.0898787549
C   C74       1.0  0.96592  0.10879  0.85299  1.0000 0.0898787549
C   C75       1.0  0.46592  0.74420  0.85299  1.0000 0.0898787549
C   C76       1.0  0.53408  0.25580  0.14701  1.0000 0.0898787549
C   C77       1.0  0.89832  0.89415  0.25474  1.0000 0.6159165103
C   C78       1.0  0.10168  0.10585  0.74526  1.0000 0.6159165103
C   C79       1.0  0.60168  0.63942  0.74526  1.0000 0.6159165103
C   C80       1.0  0.39832  0.36058  0.25474  1.0000 0.6159165103
C   C81       1.0  0.15117  0.77789  0.09519  1.0000 0.6123408911
C   C82       1.0  0.84883  0.22211  0.90481  1.0000 0.6159165103
C   C83       1.0  0.34883  0.68270  0.90481  1.0000 0.6159165103
C   C84       1.0  0.65117  0.31730  0.09519  1.0000 0.6159165103
C   C85       1.0  0.44351  0.51640  0.04079  1.0000 0.0099480011
C   C86       1.0  0.55649  0.48360  0.95921  1.0000 0.0034729038
C   C87       1.0  0.05649  0.47561  0.95921  1.0000 0.0034729038
C   C88       1.0  0.94351  0.52439  0.04079  1.0000 0.0099480011
C   C89       1.0  0.61013  0.49861  0.00695  1.0000 0.0898787549
C   C90       1.0  0.38987  0.50139  0.99305  1.0000 0.0898787549
C   C91       1.0  0.88987  0.49165  0.99305  1.0000 0.0898787549
C   C92       1.0  0.11013  0.50835  0.00695  1.0000 0.0898787549
C   C93       1.0  0.39285  0.53224  0.08674  1.0000 0.6123408911
C   C94       1.0  0.60715  0.46776  0.91326  1.0000 0.6123408911
C   C95       1.0  0.10715  0.44550  0.91326  1.0000 0.6123408911
C   C96       1.0  0.89285  0.55450  0.08674  1.0000 0.6123408911
C   C97       1.0  0.93064  0.01626  0.03619  1.0000 0.0099480011
C   C98       1.0  0.06936  0.98374  0.96381  1.0000 0.0099480011
C   C99       1.0  0.56936  0.98007  0.96381  1.0000 0.0099480011
C   C100      1.0  0.43064  0.01993  0.03619  1.0000 0.0099480011
C   C101      1.0  0.00646  0.95043  0.03143  1.0000 0.0898787549
C   C102      1.0  0.99354  0.04957  0.96857  1.0000 0.0898787549
C   C103      1.0  0.49354  0.91900  0.96857  1.0000 0.0898787549
C   C104      1.0  0.50646  0.08100  0.03143  1.0000 0.0898787549
C   C105      1.0  0.85263  0.03807  0.07327  1.0000 0.6123408911
C   C106      1.0  0.14737  0.96193  0.92673  1.0000 0.6123408911
C   C107      1.0  0.64737  0.96480  0.92673  1.0000 0.6123408911
C   C108      1.0  0.35263  0.03520  0.07327  1.0000 0.6123408911
N   N1        1.0  0.51081  0.13295  0.36793  1.0000 -0.3990132951
N   N2        1.0  0.48919  0.86705  0.63207  1.0000 -0.3990132951
N   N3        1.0  0.98919  0.76502  0.63207  1.0000 -0.3990132951
N   N4        1.0  0.01081  0.23498  0.36793  1.0000 -0.3990132951
N   N5        1.0  0.39904  0.11591  0.27320  1.0000 -0.3885597928
N   N6        1.0  0.60096  0.88409  0.72680  1.0000 -0.3885597928
N   N7        1.0  0.10096  0.84271  0.72680  1.0000 -0.3885597928
N   N8        1.0  0.89904  0.15729  0.27320  1.0000 -0.3885597928
N   N9        1.0  0.53244  0.06965  0.48308  1.0000 -0.3885597928
N   N10       1.0  0.46756  0.93035  0.51692  1.0000 -0.3885597928
N   N11       1.0  0.96756  0.58657  0.51692  1.0000 -0.3885597928
N   N12       1.0  0.03244  0.41343  0.48308  1.0000 -0.3885597928
N   N13       1.0  0.91912  0.70222  0.33485  1.0000 -0.3990132951
N   N14       1.0  0.08088  0.29778  0.66515  1.0000 -0.3990132951
N   N15       1.0  0.58088  0.36737  0.66515  1.0000 -0.3990132951
N   N16       1.0  0.41912  0.63263  0.33485  1.0000 -0.3990132951
N   N17       1.0  0.11665  0.61343  0.34137  1.0000 -0.3990132951
N   N18       1.0  0.88335  0.38657  0.65863  1.0000 -0.3990132951
N   N19       1.0  0.38335  0.27206  0.65863  1.0000 -0.3990132951
N   N20       1.0  0.61665  0.72794  0.34137  1.0000 -0.3990132951
N   N21       1.0  0.96861  0.91545  0.18296  1.0000 -0.378347092
N   N22       1.0  0.03139  0.08455  0.81704  1.0000 -0.378347092
N   N23       1.0  0.53139  0.73249  0.81704  1.0000 -0.378347092
N   N24       1.0  0.46861  0.26751  0.18296  1.0000 -0.378347092
N   N25       1.0  0.08328  0.75835  0.16784  1.0000 -0.378347092
N   N26       1.0  0.91672  0.24165  0.83216  1.0000 -0.378347092
N   N27       1.0  0.41672  0.59051  0.83216  1.0000 -0.378347092
N   N28       1.0  0.58328  0.40949  0.16784  1.0000 -0.378347092
N   N29       1.0  0.55785  0.51523  0.04731  1.0000 -0.3690768113
N   N30       1.0  0.44215  0.48477  0.95269  1.0000 -0.3690768113
N   N31       1.0  0.94215  0.46792  0.95269  1.0000 -0.3690768113
N   N32       1.0  0.05785  0.53208  0.04731  1.0000 -0.3690768113
N   N33       1.0  0.92414  0.06698  0.00316  1.0000 -0.3690768113
N   N34       1.0  0.07586  0.93302  0.99684  1.0000 -0.3690768113
N   N35       1.0  0.57586  0.06382  0.99684  1.0000 -0.3690768113
N   N36       1.0  0.42414  0.93618  0.00316  1.0000 -0.3690768113
O   O1        1.0  0.41807  0.21663  0.44622  1.0000 -0.6822384527
O   O2        1.0  0.58193  0.78337  0.55378  1.0000 -0.6822384527
O   O3        1.0  0.08193  0.77042  0.55378  1.0000 -0.6822384527
O   O4        1.0  0.91807  0.22958  0.44622  1.0000 -0.6822384527
O   O5        1.0  0.24496  0.18454  0.40808  1.0000 -0.6822384527
O   O6        1.0  0.75504  0.81546  0.59192  1.0000 -0.6891256241
O   O7        1.0  0.25504  0.77646  0.59192  1.0000 -0.6891256241
O   O8        1.0  0.74496  0.22354  0.40808  1.0000 -0.6891256241
O   O9        1.0  0.50257  0.08471  0.19525  1.0000 -0.6957149251
O   O10       1.0  0.49743  0.91529  0.80475  1.0000 -0.6957149251
O   O11       1.0  0.99743  0.88946  0.80475  1.0000 -0.6957149251
O   O12       1.0  0.00257  0.11054  0.19525  1.0000 -0.6957149251
O   O13       1.0  0.66769  0.06661  0.23428  1.0000 -0.6699138575
O   O14       1.0  0.33231  0.93339  0.76572  1.0000 -0.6699138575
O   O15       1.0  0.83231  0.83233  0.76572  1.0000 -0.6699138575
O   O16       1.0  0.16769  0.16767  0.23428  1.0000 -0.6699138575
O   O17       1.0  0.69013  0.05529  0.42690  1.0000 -0.6891256241
O   O18       1.0  0.30987  0.94471  0.57310  1.0000 -0.6822384527
O   O19       1.0  0.80987  0.62839  0.57310  1.0000 -0.6822384527
O   O20       1.0  0.19013  0.37161  0.42690  1.0000 -0.6822384527
O   O21       1.0  0.68334  0.90863  0.40414  1.0000 -0.6699138575
O   O22       1.0  0.31666  0.09137  0.59586  1.0000 -0.6699138575
O   O23       1.0  0.81666  0.50449  0.59586  1.0000 -0.6699138575
O   O24       1.0  0.18334  0.49551  0.40414  1.0000 -0.6699138575
O   O25       1.0  0.93662  0.71925  0.46437  1.0000 -0.6699138575
O   O26       1.0  0.06338  0.28075  0.53563  1.0000 -0.6699138575
O   O27       1.0  0.56338  0.25488  0.53563  1.0000 -0.6699138575
O   O28       1.0  0.43662  0.74512  0.46437  1.0000 -0.6699138575
O   O29       1.0  0.83343  0.78438  0.41525  1.0000 -0.6891256241
O   O30       1.0  0.16657  0.21562  0.58475  1.0000 -0.6891256241
O   O31       1.0  0.66657  0.36913  0.58475  1.0000 -0.6891256241
O   O32       1.0  0.33343  0.63087  0.41525  1.0000 -0.6822384527
O   O33       1.0  0.21397  0.54032  0.26410  1.0000 -0.6891256241
O   O34       1.0  0.78603  0.45968  0.73590  1.0000 -0.6891256241
O   O35       1.0  0.28603  0.27622  0.73590  1.0000 -0.6891256241
O   O36       1.0  0.71397  0.72378  0.26410  1.0000 -0.6891256241
O   O37       1.0  0.10961  0.60251  0.21359  1.0000 -0.6822384527
O   O38       1.0  0.89039  0.39749  0.78641  1.0000 -0.6822384527
O   O39       1.0  0.39039  0.38892  0.78641  1.0000 -0.6822384527
O   O40       1.0  0.60961  0.61108  0.21359  1.0000 -0.6822384527
O   O41       1.0  0.84130  0.96130  0.25302  1.0000 -0.6822384527
O   O42       1.0  0.15870  0.03870  0.74698  1.0000 -0.6822384527
O   O43       1.0  0.65870  0.70828  0.74698  1.0000 -0.6822384527
O   O44       1.0  0.34130  0.29172  0.25302  1.0000 -0.6822384527
O   O45       1.0  0.89669  0.85757  0.28942  1.0000 -0.6891256241
O   O46       1.0  0.10331  0.14243  0.71058  1.0000 -0.6822384527
O   O47       1.0  0.60331  0.56815  0.71058  1.0000 -0.6822384527
O   O48       1.0  0.39669  0.43185  0.28942  1.0000 -0.6822384527
O   O49       1.0  0.19394  0.70305  0.09226  1.0000 -0.6891256241
O   O50       1.0  0.80606  0.29695  0.90774  1.0000 -0.6891256241
O   O51       1.0  0.30606  0.61079  0.90774  1.0000 -0.6891256241
O   O52       1.0  0.69394  0.38921  0.09226  1.0000 -0.6891256241
O   O53       1.0  0.15862  0.81720  0.06211  1.0000 -0.6822384527
O   O54       1.0  0.84138  0.18280  0.93789  1.0000 -0.6822384527
O   O55       1.0  0.34138  0.75509  0.93789  1.0000 -0.6822384527
O   O56       1.0  0.65862  0.24491  0.06211  1.0000 -0.6822384527
O   O57       1.0  0.46035  0.54521  0.12671  1.0000 -0.6891256241
O   O58       1.0  0.53965  0.45479  0.87329  1.0000 -0.6891256241
O   O59       1.0  0.03965  0.41850  0.87329  1.0000 -0.6891256241
O   O60       1.0  0.96035  0.58150  0.12671  1.0000 -0.6891256241
O   O61       1.0  0.28884  0.53248  0.08760  1.0000 -0.6822384527
O   O62       1.0  0.71116  0.46752  0.91240  1.0000 -0.6822384527
O   O63       1.0  0.21116  0.44488  0.91240  1.0000 -0.6822384527
O   O64       1.0  0.78884  0.55512  0.08760  1.0000 -0.6822384527
O   O65       1.0  0.78380  0.09702  0.06854  1.0000 -0.6891256241
O   O66       1.0  0.21620  0.90298  0.93146  1.0000 -0.6891256241
O   O67       1.0  0.71620  0.02849  0.93146  1.0000 -0.6891256241
O   O68       1.0  0.28380  0.97151  0.06854  1.0000 -0.6891256241
O   O69       1.0  0.85330  0.00140  0.10819  1.0000 -0.6822384527
O   O70       1.0  0.14670  0.99860  0.89181  1.0000 -0.6822384527
O   O71       1.0  0.64670  0.89321  0.89181  1.0000 -0.6822384527
O   O72       1.0  0.35330  0.10679  0.10819  1.0000 -0.6822384527
