# DDEC6 charges by PACMAN v1.1 (https://github.com/mtap-research/PACMAN-charge/)
data_2015[Zn][sea]3[ASR]1
_chemical_formula_sum              "Zn5 H16 C48 O24"
_cell_length_a       9.3789
_cell_length_b       10.9247
_cell_length_c       19.2247
_cell_angle_alpha    99.6565
_cell_angle_beta     103.946
_cell_angle_gamma    107.714

_symmetry_space_group_name_H-M    "P 1"
_symmetry_Int_Tables_number       1

loop_
  _symmetry_equiv_pos_as_xyz
  'x, y, z'

loop_
  _atom_site_type_symbol
  _atom_site_label
  _atom_site_symmetry_multiplicity
  _atom_site_fract_x
  _atom_site_fract_y
  _atom_site_fract_z
  _atom_site_occupancy
  _atom_site_charge
Zn  Zn1       1.0  0.00000  0.00000  0.00000  1.0000 1.081077571
Zn  Zn2       1.0  0.82197  0.10205  0.13786  1.0000 0.9630167437
Zn  Zn3       1.0  0.17803  0.89795  0.86214  1.0000 0.9630167437
Zn  Zn4       1.0  0.72372  0.40198  0.76793  1.0000 0.9293594313
Zn  Zn5       1.0  0.27628  0.59802  0.23207  1.0000 0.9293594313
H   H1        1.0  0.39140  0.75900  0.03750  1.0000 0.1377582541
H   H2        1.0  0.60860  0.24100  0.96250  1.0000 0.1377582541
H   H3        1.0  0.24000  0.40860  0.88130  1.0000 0.1316083101
H   H4        1.0  0.76000  0.59140  0.11870  1.0000 0.1316083101
H   H5        1.0  0.42450  0.15340  0.16590  1.0000 0.1377582541
H   H6        1.0  0.57550  0.84660  0.83410  1.0000 0.1377582541
H   H7        1.0  0.68090  0.67360  0.92680  1.0000 0.1316083101
H   H8        1.0  0.31910  0.32640  0.07320  1.0000 0.1316083101
H   H9        1.0  0.22870  0.28770  0.31410  1.0000 0.1316083101
H   H10       1.0  0.77130  0.71230  0.68590  1.0000 0.1316083101
H   H11       1.0  0.12030  0.34750  0.97400  1.0000 0.1316083101
H   H12       1.0  0.87970  0.65250  0.02600  1.0000 0.1316083101
H   H13       1.0  0.70360  0.39570  0.36880  1.0000 0.1316083101
H   H14       1.0  0.29640  0.60430  0.63120  1.0000 0.1316083101
H   H15       1.0  0.37510  0.65200  0.51690  1.0000 0.1316083101
H   H16       1.0  0.62490  0.34800  0.48310  1.0000 0.1316083101
C   C1        1.0  0.40967  0.69967  0.00147  1.0000 -0.1383923141
C   C2        1.0  0.59033  0.30033  0.99853  1.0000 -0.1383923141
C   C3        1.0  0.68572  0.86112  0.03552  1.0000 0.5948846293
C   C4        1.0  0.31428  0.13888  0.96448  1.0000 0.5948846293
C   C5        1.0  0.32004  0.49184  0.90894  1.0000 -0.1383923141
C   C6        1.0  0.67996  0.50816  0.09106  1.0000 -0.1383923141
C   C7        1.0  0.14392  0.14212  0.17492  1.0000 0.6083333445
C   C8        1.0  0.85608  0.85788  0.82508  1.0000 0.6083333445
C   C9        1.0  0.29003  0.57773  0.96123  1.0000 0.0810959144
C   C10       1.0  0.70997  0.42227  0.03877  1.0000 0.0810959144
C   C11       1.0  0.43578  0.20508  0.21318  1.0000 -0.0978424075
C   C12       1.0  0.56422  0.79492  0.78682  1.0000 -0.0978424075
C   C13       1.0  0.58235  0.64855  0.93605  1.0000 -0.1063141534
C   C14       1.0  0.41765  0.35145  0.06395  1.0000 -0.1063141534
C   C15       1.0  0.30367  0.21297  0.23127  1.0000 -0.0073071096
C   C16       1.0  0.69633  0.78703  0.76873  1.0000 -0.0073071096
C   C17       1.0  0.55523  0.73463  0.98923  1.0000 -0.0073071096
C   C18       1.0  0.44477  0.26537  0.01077  1.0000 -0.0073071096
C   C19       1.0  0.13780  0.53870  0.97810  1.0000 0.0613334486
C   C20       1.0  0.86220  0.46130  0.02190  1.0000 0.0613334486
C   C21       1.0  0.58416  0.27266  0.26416  1.0000 -0.0073071096
C   C22       1.0  0.41584  0.72734  0.73584  1.0000 -0.0043959128
C   C23       1.0  0.31975  0.28575  0.30125  1.0000 -0.1246058094
C   C24       1.0  0.68025  0.71425  0.69875  1.0000 -0.1263382532
C   C25       1.0  0.46593  0.52693  0.89683  1.0000 -0.0073071096
C   C26       1.0  0.53407  0.47307  0.10317  1.0000 -0.0073071096
C   C27       1.0  0.06214  0.62794  0.99264  1.0000 -0.0454446291
C   C28       1.0  0.93786  0.37206  0.00736  1.0000 -0.0454446291
C   C29       1.0  0.07246  0.41046  0.98486  1.0000 -0.1455009627
C   C30       1.0  0.92754  0.58954  0.01514  1.0000 -0.1455009627
C   C31       1.0  0.10291  0.75991  0.97411  1.0000 0.6011128379
C   C32       1.0  0.89709  0.24009  0.02589  1.0000 0.6011128379
C   C33       1.0  0.50272  0.43282  0.84322  1.0000 0.5635968996
C   C34       1.0  0.49728  0.56718  0.15678  1.0000 0.5635968996
C   C35       1.0  0.72648  0.26308  0.24468  1.0000 0.5635968996
C   C36       1.0  0.27352  0.73692  0.75532  1.0000 0.5635968996
C   C37       1.0  0.60154  0.34894  0.33414  1.0000 -0.1263382532
C   C38       1.0  0.39846  0.65106  0.66586  1.0000 -0.1263382532
C   C39       1.0  0.46909  0.35599  0.35269  1.0000 0.0810959144
C   C40       1.0  0.53091  0.64401  0.64731  1.0000 0.0810959144
C   C41       1.0  0.48751  0.43331  0.42801  1.0000 0.0613334486
C   C42       1.0  0.51249  0.56669  0.57199  1.0000 0.0613334486
C   C43       1.0  0.42680  0.59050  0.51030  1.0000 -0.1383923141
C   C44       1.0  0.57320  0.40950  0.48970  1.0000 -0.1383923141
C   C45       1.0  0.41320  0.52760  0.43840  1.0000 -0.0255689556
C   C46       1.0  0.58680  0.47240  0.56160  1.0000 -0.0255689556
C   C47       1.0  0.32980  0.56870  0.37520  1.0000 0.5635968996
C   C48       1.0  0.67020  0.43130  0.62480  1.0000 0.5635968996
O   O1        1.0  0.13582  0.11162  0.10852  1.0000 -0.5364014553
O   O2        1.0  0.86418  0.88838  0.89148  1.0000 -0.5364014553
O   O3        1.0  0.82254  0.87974  0.03254  1.0000 -0.5683240639
O   O4        1.0  0.17746  0.12026  0.96746  1.0000 -0.5683240639
O   O5        1.0  0.65156  0.94046  0.07846  1.0000 -0.5111487406
O   O6        1.0  0.34844  0.05954  0.92154  1.0000 -0.5111487406
O   O7        1.0  0.02655  0.11965  0.20025  1.0000 -0.5364014553
O   O8        1.0  0.97345  0.88035  0.79975  1.0000 -0.5364014553
O   O9        1.0  0.10740  0.85978  0.01810  1.0000 -0.527492066
O   O10       1.0  0.89260  0.14022  0.98190  1.0000 -0.527492066
O   O11       1.0  0.12137  0.75491  0.91077  1.0000 -0.550787692
O   O12       1.0  0.87863  0.24509  0.08923  1.0000 -0.550787692
O   O13       1.0  0.70136  0.15416  0.19886  1.0000 -0.527492066
O   O14       1.0  0.29864  0.84584  0.80114  1.0000 -0.527492066
O   O15       1.0  0.64468  0.47178  0.84208  1.0000 -0.5683240639
O   O16       1.0  0.35532  0.52822  0.15792  1.0000 -0.5683240639
O   O17       1.0  0.85460  0.35640  0.27200  1.0000 -0.4629946994
O   O18       1.0  0.14540  0.64360  0.72800  1.0000 -0.4629946994
O   O19       1.0  0.40153  0.59483  0.32803  1.0000 -0.5111487406
O   O20       1.0  0.59847  0.40517  0.67197  1.0000 -0.5111487406
O   O21       1.0  0.39960  0.32750  0.80470  1.0000 -0.4506565826
O   O22       1.0  0.60040  0.67250  0.19530  1.0000 -0.4506565826
O   O23       1.0  0.19924  0.57614  0.37184  1.0000 -0.4114587651
O   O24       1.0  0.80076  0.42386  0.62816  1.0000 -0.4114587651
