# DDEC6 charges by PACMAN v1.1 (https://github.com/mtap-research/PACMAN-charge/)
data_2015[Cu][nan]3[ASR]11
_chemical_formula_sum              "Cu8 H88 C136 N16 O16"
_cell_length_a       14.9828
_cell_length_b       16.269
_cell_length_c       20.73
_cell_angle_alpha    90
_cell_angle_beta     90
_cell_angle_gamma    90

_symmetry_space_group_name_H-M    "P 1"
_symmetry_Int_Tables_number       1

loop_
  _symmetry_equiv_pos_as_xyz
  'x, y, z'

loop_
  _atom_site_type_symbol
  _atom_site_label
  _atom_site_symmetry_multiplicity
  _atom_site_fract_x
  _atom_site_fract_y
  _atom_site_fract_z
  _atom_site_occupancy
  _atom_site_charge
Cu  Cu1       1.0  0.53314  0.10619  0.56630  1.0000 0.4807310047
Cu  Cu2       1.0  0.53314  0.39381  0.93370  1.0000 0.4807310047
Cu  Cu3       1.0  0.96686  0.89381  0.06630  1.0000 0.4807310047
Cu  Cu4       1.0  0.96686  0.60619  0.43370  1.0000 0.4807310047
Cu  Cu5       1.0  0.46686  0.89381  0.43370  1.0000 0.4807310047
Cu  Cu6       1.0  0.46686  0.60619  0.06630  1.0000 0.4807310047
Cu  Cu7       1.0  0.03314  0.10619  0.93370  1.0000 0.4807310047
Cu  Cu8       1.0  0.03314  0.39381  0.56630  1.0000 0.4807310047
H   H1        1.0  0.71770  0.13320  0.47160  1.0000 0.1111967528
H   H2        1.0  0.71770  0.36680  0.02840  1.0000 0.1111967528
H   H3        1.0  0.78230  0.86680  0.97160  1.0000 0.1111967528
H   H4        1.0  0.78230  0.63320  0.52840  1.0000 0.1111967528
H   H5        1.0  0.28230  0.86680  0.52840  1.0000 0.1111967528
H   H6        1.0  0.28230  0.63320  0.97160  1.0000 0.1111967528
H   H7        1.0  0.21770  0.13320  0.02840  1.0000 0.1111967528
H   H8        1.0  0.21770  0.36680  0.47160  1.0000 0.1111967528
H   H9        1.0  0.88490  0.14360  0.31760  1.0000 0.1111967528
H   H10       1.0  0.88490  0.35640  0.18240  1.0000 0.1111967528
H   H11       1.0  0.61510  0.85640  0.81760  1.0000 0.1111967528
H   H12       1.0  0.61510  0.64360  0.68240  1.0000 0.1111967528
H   H13       1.0  0.11510  0.85640  0.68240  1.0000 0.1111967528
H   H14       1.0  0.11510  0.64360  0.81760  1.0000 0.1111967528
H   H15       1.0  0.38490  0.14360  0.18240  1.0000 0.1111967528
H   H16       1.0  0.38490  0.35640  0.31760  1.0000 0.1111967528
H   H17       1.0  0.75780  0.25790  0.48860  1.0000 0.1275676925
H   H18       1.0  0.75780  0.24210  0.01140  1.0000 0.1275676925
H   H19       1.0  0.74220  0.74210  0.98860  1.0000 0.1275676925
H   H20       1.0  0.74220  0.75790  0.51140  1.0000 0.1275676925
H   H21       1.0  0.24220  0.74210  0.51140  1.0000 0.1275676925
H   H22       1.0  0.24220  0.75790  0.98860  1.0000 0.1275676925
H   H23       1.0  0.25780  0.25790  0.01140  1.0000 0.1275676925
H   H24       1.0  0.25780  0.24210  0.48860  1.0000 0.1275676925
H   H25       1.0  0.87730  0.83850  0.18650  1.0000 0.0994083746
H   H26       1.0  0.87730  0.66150  0.31350  1.0000 0.0994083746
H   H27       1.0  0.62270  0.16150  0.68650  1.0000 0.0994083746
H   H28       1.0  0.62270  0.33850  0.81350  1.0000 0.0994083746
H   H29       1.0  0.12270  0.16150  0.81350  1.0000 0.0994083746
H   H30       1.0  0.12270  0.33850  0.68650  1.0000 0.0994083746
H   H31       1.0  0.37730  0.83850  0.31350  1.0000 0.0994083746
H   H32       1.0  0.37730  0.66150  0.18650  1.0000 0.0994083746
H   H33       1.0  0.05490  0.30030  0.44330  1.0000 0.0994083746
H   H34       1.0  0.05490  0.19970  0.05670  1.0000 0.0994083746
H   H35       1.0  0.44510  0.69970  0.94330  1.0000 0.0994083746
H   H36       1.0  0.44510  0.80030  0.55670  1.0000 0.0994083746
H   H37       1.0  0.94510  0.69970  0.55670  1.0000 0.0994083746
H   H38       1.0  0.94510  0.80030  0.94330  1.0000 0.0994083746
H   H39       1.0  0.55490  0.30030  0.05670  1.0000 0.0994083746
H   H40       1.0  0.55490  0.19970  0.44330  1.0000 0.0994083746
H   H41       1.0  0.97820  0.20360  0.38420  1.0000 0.1275676925
H   H42       1.0  0.97820  0.29640  0.11580  1.0000 0.1275676925
H   H43       1.0  0.52180  0.79640  0.88420  1.0000 0.1275676925
H   H44       1.0  0.52180  0.70360  0.61580  1.0000 0.1275676925
H   H45       1.0  0.02180  0.79640  0.61580  1.0000 0.1275676925
H   H46       1.0  0.02180  0.70360  0.88420  1.0000 0.1275676925
H   H47       1.0  0.47820  0.20360  0.11580  1.0000 0.1275676925
H   H48       1.0  0.47820  0.29640  0.38420  1.0000 0.1275676925
H   H49       1.0  0.85420  0.11910  0.20310  1.0000 0.1275676925
H   H50       1.0  0.85420  0.38090  0.29690  1.0000 0.1275676925
H   H51       1.0  0.64580  0.88090  0.70310  1.0000 0.1275676925
H   H52       1.0  0.64580  0.61910  0.79690  1.0000 0.1275676925
H   H53       1.0  0.14580  0.88090  0.79690  1.0000 0.1275676925
H   H54       1.0  0.14580  0.61910  0.70310  1.0000 0.1275676925
H   H55       1.0  0.35420  0.11910  0.29690  1.0000 0.1275676925
H   H56       1.0  0.35420  0.38090  0.20310  1.0000 0.1275676925
H   H57       1.0  0.84360  0.34700  0.54940  1.0000 0.0994083746
H   H58       1.0  0.84360  0.15300  0.95060  1.0000 0.0994083746
H   H59       1.0  0.65640  0.65300  0.04940  1.0000 0.0994083746
H   H60       1.0  0.65640  0.84700  0.45060  1.0000 0.0994083746
H   H61       1.0  0.15640  0.65300  0.45060  1.0000 0.0994083746
H   H62       1.0  0.15640  0.84700  0.04940  1.0000 0.0994083746
H   H63       1.0  0.34360  0.34700  0.95060  1.0000 0.0994083746
H   H64       1.0  0.34360  0.15300  0.54940  1.0000 0.0994083746
H   H65       1.0  0.81700  0.89380  0.27930  1.0000 0.1275676925
H   H66       1.0  0.81700  0.60620  0.22070  1.0000 0.1275676925
H   H67       1.0  0.68300  0.10620  0.77930  1.0000 0.1275676925
H   H68       1.0  0.68300  0.39380  0.72070  1.0000 0.1275676925
H   H69       1.0  0.18300  0.10620  0.72070  1.0000 0.1275676925
H   H70       1.0  0.18300  0.39380  0.77930  1.0000 0.1275676925
H   H71       1.0  0.31700  0.89380  0.22070  1.0000 0.1275676925
H   H72       1.0  0.31700  0.60620  0.27930  1.0000 0.1275676925
H   H73       1.0  0.91060  0.05770  0.11190  1.0000 0.1111967528
H   H74       1.0  0.91060  0.44230  0.38810  1.0000 0.1111967528
H   H75       1.0  0.58940  0.94230  0.61190  1.0000 0.1111967528
H   H76       1.0  0.58940  0.55770  0.88810  1.0000 0.1111967528
H   H77       1.0  0.08940  0.94230  0.88810  1.0000 0.1111967528
H   H78       1.0  0.08940  0.55770  0.61190  1.0000 0.1111967528
H   H79       1.0  0.41060  0.05770  0.38810  1.0000 0.1111967528
H   H80       1.0  0.41060  0.44230  0.11190  1.0000 0.1111967528
H   H81       1.0  0.69270  0.96770  0.32730  1.0000 0.1238899881
H   H82       1.0  0.69270  0.53230  0.17270  1.0000 0.1238899881
H   H83       1.0  0.80730  0.03230  0.82730  1.0000 0.1238899881
H   H84       1.0  0.80730  0.46770  0.67270  1.0000 0.1238899881
H   H85       1.0  0.30730  0.03230  0.67270  1.0000 0.1238899881
H   H86       1.0  0.30730  0.46770  0.82730  1.0000 0.1238899881
H   H87       1.0  0.19270  0.96770  0.17270  1.0000 0.1238899881
H   H88       1.0  0.19270  0.53230  0.32730  1.0000 0.1238899881
C   C1        1.0  0.85965  0.21676  0.43159  1.0000 0.1111967528
C   C2        1.0  0.85965  0.28324  0.06841  1.0000 0.1111967528
C   C3        1.0  0.64035  0.78324  0.93159  1.0000 0.1111967528
C   C4        1.0  0.64035  0.71676  0.56841  1.0000 0.1111967528
C   C5        1.0  0.14035  0.78324  0.56841  1.0000 0.1111967528
C   C6        1.0  0.14035  0.71676  0.93159  1.0000 0.1111967528
C   C7        1.0  0.35965  0.21676  0.06841  1.0000 0.1111967528
C   C8        1.0  0.35965  0.28324  0.43159  1.0000 0.1111967528
C   C9        1.0  0.82923  0.01301  0.25237  1.0000 0.1111967528
C   C10       1.0  0.82923  0.48699  0.24763  1.0000 0.1111967528
C   C11       1.0  0.67077  0.98699  0.75237  1.0000 0.1111967528
C   C12       1.0  0.67077  0.51301  0.74763  1.0000 0.1111967528
C   C13       1.0  0.17077  0.98699  0.74763  1.0000 0.1111967528
C   C14       1.0  0.17077  0.51301  0.75237  1.0000 0.1111967528
C   C15       1.0  0.32923  0.01301  0.24763  1.0000 0.1111967528
C   C16       1.0  0.32923  0.48699  0.25237  1.0000 0.1111967528
C   C17       1.0  0.61480  0.00873  0.43887  1.0000 0.5491341556
C   C18       1.0  0.61480  0.49127  0.06113  1.0000 0.5491341556
C   C19       1.0  0.88520  0.99127  0.93887  1.0000 0.5491341556
C   C20       1.0  0.88520  0.50873  0.56113  1.0000 0.5491341556
C   C21       1.0  0.38520  0.99127  0.56113  1.0000 0.5491341556
C   C22       1.0  0.38520  0.50873  0.93887  1.0000 0.5491341556
C   C23       1.0  0.11480  0.00873  0.06113  1.0000 0.5491341556
C   C24       1.0  0.11480  0.49127  0.43887  1.0000 0.5491341556
C   C25       1.0  0.73708  0.11238  0.43109  1.0000 -0.1904307317
C   C26       1.0  0.73708  0.38762  0.06891  1.0000 -0.1904307317
C   C27       1.0  0.76292  0.88762  0.93109  1.0000 -0.1904307317
C   C28       1.0  0.76292  0.61238  0.56891  1.0000 -0.1904307317
C   C29       1.0  0.26292  0.88762  0.56891  1.0000 -0.1904307317
C   C30       1.0  0.26292  0.61238  0.93109  1.0000 -0.1904307317
C   C31       1.0  0.23708  0.11238  0.06891  1.0000 -0.1904307317
C   C32       1.0  0.23708  0.38762  0.43109  1.0000 -0.1904307317
C   C33       1.0  0.83717  0.11790  0.34013  1.0000 -0.1991637206
C   C34       1.0  0.83717  0.38210  0.15987  1.0000 -0.1991637206
C   C35       1.0  0.66283  0.88210  0.84013  1.0000 -0.1991637206
C   C36       1.0  0.66283  0.61790  0.65987  1.0000 -0.1991637206
C   C37       1.0  0.16283  0.88210  0.65987  1.0000 -0.1991637206
C   C38       1.0  0.16283  0.61790  0.84013  1.0000 -0.1991637206
C   C39       1.0  0.33717  0.11790  0.15987  1.0000 -0.1991637206
C   C40       1.0  0.33717  0.38210  0.34013  1.0000 -0.1991637206
C   C41       1.0  0.69346  0.04588  0.40358  1.0000 -0.0070526304
C   C42       1.0  0.69346  0.45412  0.09642  1.0000 -0.0070526304
C   C43       1.0  0.80654  0.95412  0.90358  1.0000 -0.0070526304
C   C44       1.0  0.80654  0.54588  0.59642  1.0000 -0.0070526304
C   C45       1.0  0.30654  0.95412  0.59642  1.0000 -0.0070526304
C   C46       1.0  0.30654  0.54588  0.90358  1.0000 -0.0070526304
C   C47       1.0  0.19346  0.04588  0.09642  1.0000 -0.0070526304
C   C48       1.0  0.19346  0.45412  0.40358  1.0000 -0.0070526304
C   C49       1.0  0.81973  0.26342  0.47995  1.0000 -0.1991637206
C   C50       1.0  0.81973  0.23658  0.02005  1.0000 -0.1991637206
C   C51       1.0  0.68027  0.73658  0.97995  1.0000 -0.1991637206
C   C52       1.0  0.68027  0.76342  0.52005  1.0000 -0.1991637206
C   C53       1.0  0.18027  0.73658  0.52005  1.0000 -0.1991637206
C   C54       1.0  0.18027  0.76342  0.97995  1.0000 -0.1991637206
C   C55       1.0  0.31973  0.26342  0.02005  1.0000 -0.1991637206
C   C56       1.0  0.31973  0.23658  0.47995  1.0000 -0.1991637206
C   C57       1.0  0.87230  0.89653  0.18997  1.0000 0.053739568
C   C58       1.0  0.87230  0.60347  0.31003  1.0000 0.053739568
C   C59       1.0  0.62770  0.10347  0.68997  1.0000 0.053739568
C   C60       1.0  0.62770  0.39653  0.81003  1.0000 0.053739568
C   C61       1.0  0.12770  0.10347  0.81003  1.0000 0.053739568
C   C62       1.0  0.12770  0.39653  0.68997  1.0000 0.053739568
C   C63       1.0  0.37230  0.89653  0.31003  1.0000 0.053739568
C   C64       1.0  0.37230  0.60347  0.18997  1.0000 0.053739568
C   C65       1.0  0.99439  0.28958  0.45400  1.0000 0.053739568
C   C66       1.0  0.99439  0.21042  0.04600  1.0000 0.053739568
C   C67       1.0  0.50561  0.71042  0.95400  1.0000 0.053739568
C   C68       1.0  0.50561  0.78958  0.54600  1.0000 0.053739568
C   C69       1.0  0.00561  0.71042  0.54600  1.0000 0.053739568
C   C70       1.0  0.00561  0.78958  0.95400  1.0000 0.053739568
C   C71       1.0  0.49439  0.28958  0.04600  1.0000 0.053739568
C   C72       1.0  0.49439  0.21042  0.45400  1.0000 0.053739568
C   C73       1.0  0.94887  0.23233  0.41806  1.0000 -0.1991637206
C   C74       1.0  0.94887  0.26767  0.08194  1.0000 -0.1991637206
C   C75       1.0  0.55113  0.76767  0.91806  1.0000 -0.1991637206
C   C76       1.0  0.55113  0.73233  0.58194  1.0000 -0.1991637206
C   C77       1.0  0.05113  0.76767  0.58194  1.0000 -0.1991637206
C   C78       1.0  0.05113  0.73233  0.91806  1.0000 -0.1991637206
C   C79       1.0  0.44887  0.23233  0.08194  1.0000 -0.1991637206
C   C80       1.0  0.44887  0.26767  0.41806  1.0000 -0.1991637206
C   C81       1.0  0.85807  0.06093  0.20081  1.0000 -0.1991637206
C   C82       1.0  0.85807  0.43907  0.29919  1.0000 -0.1991637206
C   C83       1.0  0.64193  0.93907  0.70081  1.0000 -0.1991637206
C   C84       1.0  0.64193  0.56093  0.79919  1.0000 -0.1991637206
C   C85       1.0  0.14193  0.93907  0.79919  1.0000 -0.1991637206
C   C86       1.0  0.14193  0.56093  0.70081  1.0000 -0.1991637206
C   C87       1.0  0.35807  0.06093  0.29919  1.0000 -0.1991637206
C   C88       1.0  0.35807  0.43907  0.20081  1.0000 -0.1991637206
C   C89       1.0  0.80973  0.14918  0.39956  1.0000 0.0688142914
C   C90       1.0  0.80973  0.35082  0.10044  1.0000 0.0688142914
C   C91       1.0  0.69027  0.85082  0.89956  1.0000 0.0688142914
C   C92       1.0  0.69027  0.64918  0.60044  1.0000 0.0688142914
C   C93       1.0  0.19027  0.85082  0.60044  1.0000 0.0688142914
C   C94       1.0  0.19027  0.64918  0.89956  1.0000 0.0688142914
C   C95       1.0  0.30973  0.14918  0.10044  1.0000 0.0688142914
C   C96       1.0  0.30973  0.35082  0.39956  1.0000 0.0688142914
C   C97       1.0  0.87108  0.31767  0.51508  1.0000 0.0794425684
C   C98       1.0  0.87108  0.18233  0.98492  1.0000 0.0794425684
C   C99       1.0  0.62892  0.68233  0.01508  1.0000 0.0794425684
C   C100      1.0  0.62892  0.81767  0.48492  1.0000 0.0794425684
C   C101      1.0  0.12892  0.68233  0.48492  1.0000 0.0794425684
C   C102      1.0  0.12892  0.81767  0.01508  1.0000 0.0794425684
C   C103      1.0  0.37108  0.31767  0.98492  1.0000 0.0794425684
C   C104      1.0  0.37108  0.18233  0.51508  1.0000 0.0794425684
C   C105      1.0  0.83650  0.92910  0.24571  1.0000 -0.1904307317
C   C106      1.0  0.83650  0.57090  0.25429  1.0000 -0.1904307317
C   C107      1.0  0.66350  0.07090  0.74571  1.0000 -0.1904307317
C   C108      1.0  0.66350  0.42910  0.75429  1.0000 -0.1904307317
C   C109      1.0  0.16350  0.07090  0.75429  1.0000 -0.1904307317
C   C110      1.0  0.16350  0.42910  0.74571  1.0000 -0.1904307317
C   C111      1.0  0.33650  0.92910  0.25429  1.0000 -0.1904307317
C   C112      1.0  0.33650  0.57090  0.24571  1.0000 -0.1904307317
C   C113      1.0  0.89202  0.02392  0.14682  1.0000 0.0794425684
C   C114      1.0  0.89202  0.47608  0.35318  1.0000 0.0794425684
C   C115      1.0  0.60798  0.97608  0.64682  1.0000 0.0794425684
C   C116      1.0  0.60798  0.52392  0.85318  1.0000 0.0794425684
C   C117      1.0  0.10798  0.97608  0.85318  1.0000 0.0794425684
C   C118      1.0  0.10798  0.52392  0.64682  1.0000 0.0794425684
C   C119      1.0  0.39202  0.02392  0.35318  1.0000 0.0794425684
C   C120      1.0  0.39202  0.47608  0.14682  1.0000 0.0794425684
C   C121      1.0  0.79505  0.04894  0.31327  1.0000 0.0688142914
C   C122      1.0  0.79505  0.45106  0.18673  1.0000 0.0688142914
C   C123      1.0  0.70495  0.95106  0.81327  1.0000 0.0688142914
C   C124      1.0  0.70495  0.54894  0.68673  1.0000 0.0688142914
C   C125      1.0  0.20495  0.95106  0.68673  1.0000 0.0688142914
C   C126      1.0  0.20495  0.54894  0.81327  1.0000 0.0688142914
C   C127      1.0  0.29505  0.04894  0.18673  1.0000 0.0688142914
C   C128      1.0  0.29505  0.45106  0.31327  1.0000 0.0688142914
C   C129      1.0  0.72235  0.01383  0.34546  1.0000 -0.1818385964
C   C130      1.0  0.72235  0.48617  0.15454  1.0000 -0.1818385964
C   C131      1.0  0.77765  0.98617  0.84546  1.0000 -0.1818385964
C   C132      1.0  0.77765  0.51383  0.65454  1.0000 -0.1818385964
C   C133      1.0  0.27765  0.98617  0.65454  1.0000 -0.1818385964
C   C134      1.0  0.27765  0.51383  0.84546  1.0000 -0.1818385964
C   C135      1.0  0.22235  0.01383  0.15454  1.0000 -0.1818385964
C   C136      1.0  0.22235  0.48617  0.34546  1.0000 -0.1818385964
N   N1        1.0  0.95802  0.33118  0.50331  1.0000 -0.2417423671
N   N2        1.0  0.95802  0.16882  0.99669  1.0000 -0.2417423671
N   N3        1.0  0.54198  0.66882  0.00331  1.0000 -0.2417423671
N   N4        1.0  0.54198  0.83118  0.49669  1.0000 -0.2417423671
N   N5        1.0  0.04198  0.66882  0.49669  1.0000 -0.2417423671
N   N6        1.0  0.04198  0.83118  0.00331  1.0000 -0.2417423671
N   N7        1.0  0.45802  0.33118  0.99669  1.0000 -0.2417423671
N   N8        1.0  0.45802  0.16882  0.50331  1.0000 -0.2417423671
N   N9        1.0  0.90019  0.94247  0.14097  1.0000 -0.2187647281
N   N10       1.0  0.90019  0.55753  0.35903  1.0000 -0.2187647281
N   N11       1.0  0.59981  0.05753  0.64097  1.0000 -0.2187647281
N   N12       1.0  0.59981  0.44247  0.85903  1.0000 -0.2187647281
N   N13       1.0  0.09981  0.05753  0.85903  1.0000 -0.2187647281
N   N14       1.0  0.09981  0.44247  0.64097  1.0000 -0.2187647281
N   N15       1.0  0.40019  0.94247  0.35903  1.0000 -0.2187647281
N   N16       1.0  0.40019  0.55753  0.14097  1.0000 -0.2187647281
O   O1        1.0  0.60255  0.02698  0.49602  1.0000 -0.5612031912
O   O2        1.0  0.60255  0.47302  0.00398  1.0000 -0.5612031912
O   O3        1.0  0.89745  0.97302  0.99602  1.0000 -0.5612031912
O   O4        1.0  0.89745  0.52698  0.50398  1.0000 -0.5612031912
O   O5        1.0  0.39745  0.97302  0.50398  1.0000 -0.5612031912
O   O6        1.0  0.39745  0.52698  0.99602  1.0000 -0.5612031912
O   O7        1.0  0.10255  0.02698  0.00398  1.0000 -0.5612031912
O   O8        1.0  0.10255  0.47302  0.49602  1.0000 -0.5612031912
O   O9        1.0  0.56823  0.95931  0.40514  1.0000 -0.5341098031
O   O10       1.0  0.56823  0.54069  0.09486  1.0000 -0.5341098031
O   O11       1.0  0.93177  0.04069  0.90514  1.0000 -0.5341098031
O   O12       1.0  0.93177  0.45931  0.59486  1.0000 -0.5341098031
O   O13       1.0  0.43177  0.04069  0.59486  1.0000 -0.5341098031
O   O14       1.0  0.43177  0.45931  0.90514  1.0000 -0.5341098031
O   O15       1.0  0.06823  0.95931  0.09486  1.0000 -0.5341098031
O   O16       1.0  0.06823  0.54069  0.40514  1.0000 -0.5341098031
