# DDEC6 charges by PACMAN v1.1 (https://github.com/mtap-research/PACMAN-charge/)
data_2015[Cu][nan]2[ASR]1
_chemical_formula_sum              "Cu4 H36 C52 N8 O16"
_cell_length_a       10.6398
_cell_length_b       10.6398
_cell_length_c       19.5013
_cell_angle_alpha    73.478
_cell_angle_beta     106.522
_cell_angle_gamma    125.087

_symmetry_space_group_name_H-M    "P 1"
_symmetry_Int_Tables_number       1

loop_
  _symmetry_equiv_pos_as_xyz
  'x, y, z'

loop_
  _atom_site_type_symbol
  _atom_site_label
  _atom_site_symmetry_multiplicity
  _atom_site_fract_x
  _atom_site_fract_y
  _atom_site_fract_z
  _atom_site_occupancy
  _atom_site_charge
Cu  Cu1       1.0  0.20363  0.83839  0.88138  1.0000 0.7106719786
Cu  Cu2       1.0  0.83839  0.20363  0.61862  1.0000 0.7106719786
Cu  Cu3       1.0  0.79637  0.16161  0.11862  1.0000 0.7106719786
Cu  Cu4       1.0  0.16161  0.79637  0.38138  1.0000 0.7106719786
H   H1        1.0  0.24130  0.13950  0.81200  1.0000 0.1081194054
H   H2        1.0  0.13950  0.24130  0.68800  1.0000 0.1081194054
H   H3        1.0  0.75870  0.86050  0.18800  1.0000 0.1081194054
H   H4        1.0  0.86050  0.75870  0.31200  1.0000 0.1081194054
H   H5        1.0  0.35220  0.38460  0.83860  1.0000 0.1378679138
H   H6        1.0  0.38460  0.35220  0.66140  1.0000 0.1378679138
H   H7        1.0  0.64780  0.61540  0.16140  1.0000 0.1378679138
H   H8        1.0  0.61540  0.64780  0.33860  1.0000 0.1378679138
H   H9        1.0  0.48110  0.23510  0.04430  1.0000 0.1378679138
H   H10       1.0  0.23510  0.48110  0.45570  1.0000 0.1378679138
H   H11       1.0  0.51890  0.76490  0.95570  1.0000 0.1378679138
H   H12       1.0  0.76490  0.51890  0.54430  1.0000 0.1378679138
H   H13       1.0  0.36900  0.99460  0.01240  1.0000 0.1234961698
H   H14       1.0  0.99460  0.36900  0.48760  1.0000 0.1234961698
H   H15       1.0  0.63100  0.00540  0.98760  1.0000 0.1234961698
H   H16       1.0  0.00540  0.63100  0.51240  1.0000 0.1234961698
H   H17       1.0  0.45420  0.55060  0.92690  1.0000 0.1081194054
H   H18       1.0  0.55060  0.45420  0.57310  1.0000 0.1081194054
H   H19       1.0  0.54580  0.44940  0.07310  1.0000 0.1081194054
H   H20       1.0  0.44940  0.54580  0.42690  1.0000 0.1081194054
H   H21       1.0  0.61580  0.56080  0.95620  1.0000 0.1273249262
H   H22       1.0  0.56080  0.61580  0.54380  1.0000 0.1273249262
H   H23       1.0  0.38420  0.43920  0.04380  1.0000 0.1273249262
H   H24       1.0  0.43920  0.38420  0.45620  1.0000 0.1273249262
H   H25       1.0  0.07980  0.31040  0.97000  1.0000 0.1378679138
H   H26       1.0  0.31040  0.07980  0.53000  1.0000 0.1378679138
H   H27       1.0  0.92020  0.68960  0.03000  1.0000 0.1378679138
H   H28       1.0  0.68960  0.92020  0.47000  1.0000 0.1378679138
H   H29       1.0  0.99460  0.22140  0.85790  1.0000 0.1273249262
H   H30       1.0  0.22140  0.99460  0.64210  1.0000 0.1273249262
H   H31       1.0  0.00540  0.77860  0.14210  1.0000 0.1273249262
H   H32       1.0  0.77860  0.00540  0.35790  1.0000 0.1273249262
H   H33       1.0  0.08430  0.64770  0.75770  1.0000 0.1234961698
H   H34       1.0  0.64770  0.08430  0.74230  1.0000 0.1234961698
H   H35       1.0  0.91570  0.35230  0.24230  1.0000 0.1234961698
H   H36       1.0  0.35230  0.91570  0.25770  1.0000 0.1234961698
C   C1        1.0  0.29162  0.15958  0.85989  1.0000 0.0792784566
C   C2        1.0  0.15958  0.29162  0.64011  1.0000 0.0792784566
C   C3        1.0  0.70838  0.84042  0.14011  1.0000 0.0792784566
C   C4        1.0  0.84042  0.70838  0.35989  1.0000 0.0792784566
C   C5        1.0  0.35718  0.30622  0.87541  1.0000 -0.2047879709
C   C6        1.0  0.30622  0.35718  0.62459  1.0000 -0.2047879709
C   C7        1.0  0.64282  0.69378  0.12459  1.0000 -0.2047879709
C   C8        1.0  0.69378  0.64282  0.37541  1.0000 -0.2047879709
C   C9        1.0  0.43019  0.33841  0.94514  1.0000 0.1841281825
C   C10       1.0  0.33841  0.43019  0.55486  1.0000 0.1841281825
C   C11       1.0  0.56981  0.66159  0.05486  1.0000 0.1841281825
C   C12       1.0  0.66159  0.56981  0.44514  1.0000 0.1841281825
C   C13       1.0  0.43273  0.21847  0.99588  1.0000 -0.1788024879
C   C14       1.0  0.21847  0.43273  0.50412  1.0000 -0.1788024879
C   C15       1.0  0.56727  0.78153  0.00412  1.0000 -0.1788024879
C   C16       1.0  0.78153  0.56727  0.49588  1.0000 -0.1788024879
C   C17       1.0  0.36565  0.07495  0.97656  1.0000 0.1081194054
C   C18       1.0  0.07495  0.36565  0.52344  1.0000 0.1081194054
C   C19       1.0  0.63435  0.92505  0.02344  1.0000 0.1081194054
C   C20       1.0  0.92505  0.63435  0.47656  1.0000 0.1081194054
C   C21       1.0  0.50487  0.49913  0.96228  1.0000 -0.2377887959
C   C22       1.0  0.49913  0.50487  0.53772  1.0000 -0.2377887959
C   C23       1.0  0.49513  0.50087  0.03772  1.0000 -0.2377887959
C   C24       1.0  0.50087  0.49513  0.46228  1.0000 -0.2377887959
C   C25       1.0  0.18082  0.60038  0.99380  1.0000 0.513112309
C   C26       1.0  0.60038  0.18082  0.50620  1.0000 0.513112309
C   C27       1.0  0.81918  0.39962  0.00620  1.0000 0.513112309
C   C28       1.0  0.39962  0.81918  0.49380  1.0000 0.513112309
C   C29       1.0  0.12883  0.52917  0.92589  1.0000 0.1081194054
C   C30       1.0  0.52917  0.12883  0.57411  1.0000 0.1081194054
C   C31       1.0  0.87117  0.47083  0.07411  1.0000 0.1081194054
C   C32       1.0  0.47083  0.87117  0.42589  1.0000 0.1081194054
C   C33       1.0  0.07947  0.37753  0.92589  1.0000 -0.120685128
C   C34       1.0  0.37753  0.07947  0.57411  1.0000 -0.120685128
C   C35       1.0  0.92053  0.62247  0.07411  1.0000 -0.120685128
C   C36       1.0  0.62247  0.92053  0.42589  1.0000 -0.120685128
C   C37       1.0  0.02896  0.32504  0.85965  1.0000 -0.0516557455
C   C38       1.0  0.32504  0.02896  0.64035  1.0000 -0.0516557455
C   C39       1.0  0.97104  0.67496  0.14035  1.0000 -0.0516557455
C   C40       1.0  0.67496  0.97104  0.35965  1.0000 -0.0516557455
C   C41       1.0  0.02958  0.42602  0.79645  1.0000 -0.0516557455
C   C42       1.0  0.42602  0.02958  0.70355  1.0000 -0.0516557455
C   C43       1.0  0.97042  0.57398  0.20355  1.0000 -0.0516557455
C   C44       1.0  0.57398  0.97042  0.29645  1.0000 -0.0516557455
C   C45       1.0  0.08284  0.57796  0.80105  1.0000 0.0877968618
C   C46       1.0  0.57796  0.08284  0.69895  1.0000 0.0877968618
C   C47       1.0  0.91716  0.42204  0.19895  1.0000 0.0877968618
C   C48       1.0  0.42204  0.91716  0.30105  1.0000 0.0877968618
C   C49       1.0  0.96878  0.37562  0.72294  1.0000 0.5387851024
C   C50       1.0  0.37562  0.96878  0.77706  1.0000 0.5387851024
C   C51       1.0  0.03122  0.62438  0.27706  1.0000 0.5387851024
C   C52       1.0  0.62438  0.03122  0.22294  1.0000 0.5387851024
N   N1        1.0  0.29582  0.04458  0.90910  1.0000 -0.2377887959
N   N2        1.0  0.04458  0.29582  0.59090  1.0000 -0.2377887959
N   N3        1.0  0.70418  0.95542  0.09090  1.0000 -0.2377887959
N   N4        1.0  0.95542  0.70418  0.40910  1.0000 -0.2377887959
N   N5        1.0  0.13163  0.62837  0.86445  1.0000 -0.2488692007
N   N6        1.0  0.62837  0.13163  0.63555  1.0000 -0.2488692007
N   N7        1.0  0.86837  0.37163  0.13555  1.0000 -0.2488692007
N   N8        1.0  0.37163  0.86837  0.36445  1.0000 -0.2488692007
O   O1        1.0  0.21728  0.74014  0.98334  1.0000 -0.5306828594
O   O2        1.0  0.74014  0.21728  0.51666  1.0000 -0.5306828594
O   O3        1.0  0.78272  0.25986  0.01666  1.0000 -0.5306828594
O   O4        1.0  0.25986  0.78272  0.48334  1.0000 -0.5306828594
O   O5        1.0  0.92980  0.23972  0.72069  1.0000 -0.5384623236
O   O6        1.0  0.23972  0.92980  0.77931  1.0000 -0.5384623236
O   O7        1.0  0.07020  0.76028  0.27931  1.0000 -0.5384623236
O   O8        1.0  0.76028  0.07020  0.22069  1.0000 -0.5384623236
O   O9        1.0  0.18573  0.52193  0.05404  1.0000 -0.5035917139
O   O10       1.0  0.52193  0.18573  0.44596  1.0000 -0.5035917139
O   O11       1.0  0.81427  0.47807  0.94596  1.0000 -0.5035917139
O   O12       1.0  0.47807  0.81427  0.55404  1.0000 -0.5035917139
O   O13       1.0  0.95694  0.46726  0.66894  1.0000 -0.5567256785
O   O14       1.0  0.46726  0.95694  0.83106  1.0000 -0.5567256785
O   O15       1.0  0.04306  0.53274  0.33106  1.0000 -0.5567256785
O   O16       1.0  0.53274  0.04306  0.16894  1.0000 -0.5567256785
