# DDEC6 charges by PACMAN v1.1 (https://github.com/mtap-research/PACMAN-charge/)
data_2015[Fe][pts]3[ASR]1
_chemical_formula_sum              "Fe2 H136 C132 S12 N12 O8"
_cell_length_a       15.4023
_cell_length_b       15.4023
_cell_length_c       20.627
_cell_angle_alpha    89.4805
_cell_angle_beta     90.5195
_cell_angle_gamma    62.2497

_symmetry_space_group_name_H-M    "P 1"
_symmetry_Int_Tables_number       1

loop_
  _symmetry_equiv_pos_as_xyz
  'x, y, z'

loop_
  _atom_site_type_symbol
  _atom_site_label
  _atom_site_symmetry_multiplicity
  _atom_site_fract_x
  _atom_site_fract_y
  _atom_site_fract_z
  _atom_site_occupancy
  _atom_site_charge
Fe  Fe1       1.0  0.00000  0.50000  0.50000  1.0000 0.6638986034
Fe  Fe2       1.0  0.50000  0.00000  0.00000  1.0000 0.6638986034
H   H1        1.0  0.93140  0.87240  0.44040  1.0000 0.1220035933
H   H2        1.0  0.87240  0.93140  0.05960  1.0000 0.1220035933
H   H3        1.0  0.06860  0.12760  0.55960  1.0000 0.1220035933
H   H4        1.0  0.12760  0.06860  0.94040  1.0000 0.1220035933
H   H5        1.0  0.69200  0.08220  0.34610  1.0000 0.1220035933
H   H6        1.0  0.08220  0.69200  0.15390  1.0000 0.1220035933
H   H7        1.0  0.30800  0.91780  0.65390  1.0000 0.1220035933
H   H8        1.0  0.91780  0.30800  0.84610  1.0000 0.1220035933
H   H9        1.0  0.86480  0.24680  0.39800  1.0000 0.1015721672
H   H10       1.0  0.24680  0.86480  0.10200  1.0000 0.1015721672
H   H11       1.0  0.13520  0.75320  0.60200  1.0000 0.1015721672
H   H12       1.0  0.75320  0.13520  0.89800  1.0000 0.1015721672
H   H13       1.0  0.94490  0.16690  0.44650  1.0000 0.1077301411
H   H14       1.0  0.16690  0.94490  0.05350  1.0000 0.1077301411
H   H15       1.0  0.05510  0.83310  0.55350  1.0000 0.1077301411
H   H16       1.0  0.83310  0.05510  0.94650  1.0000 0.1077301411
H   H17       1.0  0.92120  0.34980  0.45910  1.0000 0.1077301411
H   H18       1.0  0.34980  0.92120  0.04090  1.0000 0.1077301411
H   H19       1.0  0.07880  0.65020  0.54090  1.0000 0.1077301411
H   H20       1.0  0.65020  0.07880  0.95910  1.0000 0.1077301411
H   H21       1.0  0.14440  0.37960  0.39360  1.0000 0.1077301411
H   H22       1.0  0.37960  0.14440  0.10640  1.0000 0.1077301411
H   H23       1.0  0.85560  0.62040  0.60640  1.0000 0.1077301411
H   H24       1.0  0.62040  0.85560  0.89360  1.0000 0.1077301411
H   H25       1.0  0.18790  0.24850  0.32610  1.0000 0.129831213
H   H26       1.0  0.24850  0.18790  0.17390  1.0000 0.129831213
H   H27       1.0  0.81210  0.75150  0.67390  1.0000 0.129831213
H   H28       1.0  0.75150  0.81210  0.82610  1.0000 0.129831213
H   H29       1.0  0.09550  0.16130  0.32670  1.0000 0.129831213
H   H30       1.0  0.16130  0.09550  0.17330  1.0000 0.129831213
H   H31       1.0  0.90450  0.83870  0.67330  1.0000 0.129831213
H   H32       1.0  0.83870  0.90450  0.82670  1.0000 0.129831213
H   H33       1.0  0.61430  0.05670  0.43180  1.0000 0.1220035933
H   H34       1.0  0.05670  0.61430  0.06820  1.0000 0.129831213
H   H35       1.0  0.38570  0.94330  0.56820  1.0000 0.129831213
H   H36       1.0  0.94330  0.38570  0.93180  1.0000 0.129831213
H   H37       1.0  0.60460  0.96960  0.46840  1.0000 0.1401837898
H   H38       1.0  0.96960  0.60460  0.03160  1.0000 0.1401837898
H   H39       1.0  0.39540  0.03040  0.53160  1.0000 0.1401837898
H   H40       1.0  0.03040  0.39540  0.96840  1.0000 0.1401837898
H   H41       1.0  0.67150  0.01350  0.49910  1.0000 0.129831213
H   H42       1.0  0.01350  0.67150  0.00090  1.0000 0.129831213
H   H43       1.0  0.32850  0.98650  0.50090  1.0000 0.129831213
H   H44       1.0  0.98650  0.32850  0.99910  1.0000 0.129831213
H   H45       1.0  0.75390  0.84870  0.33440  1.0000 0.129831213
H   H46       1.0  0.84870  0.75390  0.16560  1.0000 0.129831213
H   H47       1.0  0.24610  0.15130  0.66560  1.0000 0.129831213
H   H48       1.0  0.15130  0.24610  0.83440  1.0000 0.129831213
H   H49       1.0  0.66550  0.85250  0.37660  1.0000 0.129831213
H   H50       1.0  0.85250  0.66550  0.12340  1.0000 0.129831213
H   H51       1.0  0.33450  0.14750  0.62340  1.0000 0.129831213
H   H52       1.0  0.14750  0.33450  0.87660  1.0000 0.129831213
H   H53       1.0  0.65260  0.94800  0.33750  1.0000 0.1220035933
H   H54       1.0  0.94800  0.65260  0.16250  1.0000 0.1220035933
H   H55       1.0  0.34740  0.05200  0.66250  1.0000 0.1220035933
H   H56       1.0  0.05200  0.34740  0.83750  1.0000 0.1220035933
H   H57       1.0  0.81980  0.85040  0.50360  1.0000 0.1220035933
H   H58       1.0  0.85040  0.81980  0.99640  1.0000 0.1220035933
H   H59       1.0  0.18020  0.14960  0.49640  1.0000 0.1220035933
H   H60       1.0  0.14960  0.18020  0.00360  1.0000 0.1220035933
H   H61       1.0  0.75350  0.80290  0.47770  1.0000 0.1401837898
H   H62       1.0  0.80290  0.75350  0.02230  1.0000 0.1401837898
H   H63       1.0  0.24650  0.19710  0.52230  1.0000 0.1401837898
H   H64       1.0  0.19710  0.24650  0.97770  1.0000 0.1401837898
H   H65       1.0  0.85190  0.78290  0.44090  1.0000 0.129831213
H   H66       1.0  0.78290  0.85190  0.05910  1.0000 0.129831213
H   H67       1.0  0.14810  0.21710  0.55910  1.0000 0.129831213
H   H68       1.0  0.21710  0.14810  0.94090  1.0000 0.129831213
H   H69       1.0  0.33320  0.84260  0.22880  1.0000 0.1220035933
H   H70       1.0  0.84260  0.33320  0.27120  1.0000 0.1220035933
H   H71       1.0  0.66680  0.15740  0.77120  1.0000 0.1220035933
H   H72       1.0  0.15740  0.66680  0.72880  1.0000 0.1220035933
H   H73       1.0  0.22780  0.97680  0.39760  1.0000 0.1220035933
H   H74       1.0  0.97680  0.22780  0.10240  1.0000 0.1220035933
H   H75       1.0  0.77220  0.02320  0.60240  1.0000 0.1220035933
H   H76       1.0  0.02320  0.77220  0.89760  1.0000 0.1220035933
H   H77       1.0  0.18550  0.66830  0.31840  1.0000 0.1015721672
H   H78       1.0  0.66830  0.18550  0.18160  1.0000 0.1015721672
H   H79       1.0  0.81450  0.33170  0.68160  1.0000 0.1015721672
H   H80       1.0  0.33170  0.81450  0.81840  1.0000 0.1015721672
H   H81       1.0  0.15490  0.71890  0.38800  1.0000 0.1015721672
H   H82       1.0  0.71890  0.15490  0.11200  1.0000 0.1015721672
H   H83       1.0  0.84510  0.28110  0.61200  1.0000 0.1015721672
H   H84       1.0  0.28110  0.84510  0.88800  1.0000 0.1015721672
H   H85       1.0  0.10910  0.60470  0.43340  1.0000 0.1077301411
H   H86       1.0  0.60470  0.10910  0.06660  1.0000 0.1077301411
H   H87       1.0  0.89090  0.39530  0.56660  1.0000 0.1077301411
H   H88       1.0  0.39530  0.89090  0.93340  1.0000 0.1077301411
H   H89       1.0  0.88000  0.57840  0.36850  1.0000 0.1077301411
H   H90       1.0  0.57840  0.88000  0.13150  1.0000 0.1077301411
H   H91       1.0  0.12000  0.42160  0.63150  1.0000 0.1077301411
H   H92       1.0  0.42160  0.12000  0.86850  1.0000 0.1077301411
H   H93       1.0  0.86500  0.67600  0.27860  1.0000 0.129831213
H   H94       1.0  0.67600  0.86500  0.22140  1.0000 0.129831213
H   H95       1.0  0.13500  0.32400  0.72140  1.0000 0.129831213
H   H96       1.0  0.32400  0.13500  0.77860  1.0000 0.129831213
H   H97       1.0  0.97260  0.74380  0.26700  1.0000 0.129831213
H   H98       1.0  0.74380  0.97260  0.23300  1.0000 0.129831213
H   H99       1.0  0.02740  0.25620  0.73300  1.0000 0.129831213
H   H100      1.0  0.25620  0.02740  0.76700  1.0000 0.129831213
H   H101      1.0  0.49320  0.93480  0.26580  1.0000 0.129831213
H   H102      1.0  0.93480  0.49320  0.23420  1.0000 0.129831213
H   H103      1.0  0.50680  0.06520  0.73420  1.0000 0.129831213
H   H104      1.0  0.06520  0.50680  0.76580  1.0000 0.129831213
H   H105      1.0  0.47590  0.84150  0.25330  1.0000 0.129831213
H   H106      1.0  0.84150  0.47590  0.24670  1.0000 0.129831213
H   H107      1.0  0.52410  0.15850  0.74670  1.0000 0.129831213
H   H108      1.0  0.15850  0.52410  0.75330  1.0000 0.129831213
H   H109      1.0  0.40090  0.94650  0.22320  1.0000 0.1220035933
H   H110      1.0  0.94650  0.40090  0.27680  1.0000 0.1220035933
H   H111      1.0  0.59910  0.05350  0.77680  1.0000 0.1220035933
H   H112      1.0  0.05350  0.59910  0.72320  1.0000 0.1220035933
H   H113      1.0  0.30740  0.08280  0.30130  1.0000 0.129831213
H   H114      1.0  0.08280  0.30740  0.19870  1.0000 0.129831213
H   H115      1.0  0.69260  0.91720  0.69870  1.0000 0.129831213
H   H116      1.0  0.91720  0.69260  0.80130  1.0000 0.129831213
H   H117      1.0  0.30980  0.05760  0.37690  1.0000 0.129831213
H   H118      1.0  0.05760  0.30980  0.12310  1.0000 0.129831213
H   H119      1.0  0.69020  0.94240  0.62310  1.0000 0.129831213
H   H120      1.0  0.94240  0.69020  0.87690  1.0000 0.129831213
H   H121      1.0  0.40540  0.05240  0.34340  1.0000 0.1401837898
H   H122      1.0  0.05240  0.40540  0.15660  1.0000 0.1401837898
H   H123      1.0  0.59460  0.94760  0.65660  1.0000 0.1401837898
H   H124      1.0  0.94760  0.59460  0.84340  1.0000 0.1401837898
H   H125      1.0  0.41060  0.87920  0.41670  1.0000 0.129831213
H   H126      1.0  0.87920  0.41060  0.08330  1.0000 0.129831213
H   H127      1.0  0.58940  0.12080  0.58330  1.0000 0.129831213
H   H128      1.0  0.12080  0.58940  0.91670  1.0000 0.129831213
H   H129      1.0  0.47760  0.80000  0.36500  1.0000 0.129831213
H   H130      1.0  0.80000  0.47760  0.13500  1.0000 0.129831213
H   H131      1.0  0.52240  0.20000  0.63500  1.0000 0.129831213
H   H132      1.0  0.20000  0.52240  0.86500  1.0000 0.129831213
H   H133      1.0  0.50220  0.88620  0.38580  1.0000 0.129831213
H   H134      1.0  0.88620  0.50220  0.11420  1.0000 0.129831213
H   H135      1.0  0.49780  0.11380  0.61420  1.0000 0.129831213
H   H136      1.0  0.11380  0.49780  0.88580  1.0000 0.129831213
C   C1        1.0  0.81060  0.10640  0.34340  1.0000 -0.0210476032
C   C2        1.0  0.10640  0.81060  0.15660  1.0000 -0.0210476032
C   C3        1.0  0.18940  0.89360  0.65660  1.0000 -0.0210476032
C   C4        1.0  0.89360  0.18940  0.84340  1.0000 -0.0210476032
C   C5        1.0  0.90850  0.06950  0.36440  1.0000 0.1401837898
C   C6        1.0  0.06950  0.90850  0.13560  1.0000 0.1401837898
C   C7        1.0  0.09150  0.93050  0.63560  1.0000 0.1401837898
C   C8        1.0  0.93050  0.09150  0.86440  1.0000 0.1401837898
C   C9        1.0  0.95400  0.98060  0.39810  1.0000 -0.0103973139
C   C10       1.0  0.98060  0.95400  0.10190  1.0000 -0.0103973139
C   C11       1.0  0.04600  0.01940  0.60190  1.0000 -0.0103973139
C   C12       1.0  0.01940  0.04600  0.89810  1.0000 -0.0103973139
C   C13       1.0  0.89990  0.93210  0.41620  1.0000 -0.2012566117
C   C14       1.0  0.93210  0.89990  0.08380  1.0000 -0.2012566117
C   C15       1.0  0.10010  0.06790  0.58380  1.0000 -0.2012566117
C   C16       1.0  0.06790  0.10010  0.91620  1.0000 -0.2012566117
C   C17       1.0  0.79940  0.97040  0.39930  1.0000 0.0925038414
C   C18       1.0  0.97040  0.79940  0.10070  1.0000 0.0925038414
C   C19       1.0  0.20060  0.02960  0.60070  1.0000 0.0925038414
C   C20       1.0  0.02960  0.20060  0.89930  1.0000 0.0925038414
C   C21       1.0  0.75810  0.05690  0.36070  1.0000 -0.2012566117
C   C22       1.0  0.05690  0.75810  0.13930  1.0000 -0.2012566117
C   C23       1.0  0.24190  0.94310  0.63930  1.0000 -0.2012566117
C   C24       1.0  0.94310  0.24190  0.86070  1.0000 -0.2012566117
C   C25       1.0  0.93470  0.19730  0.40270  1.0000 -0.0880177343
C   C26       1.0  0.19730  0.93470  0.09730  1.0000 -0.0880177343
C   C27       1.0  0.06530  0.80270  0.59730  1.0000 -0.0880177343
C   C28       1.0  0.80270  0.06530  0.90270  1.0000 -0.0880177343
C   C29       1.0  0.99900  0.24600  0.39490  1.0000 0.0622632367
C   C30       1.0  0.24600  0.99900  0.10510  1.0000 0.0622632367
C   C31       1.0  0.00100  0.75400  0.60510  1.0000 0.0622632367
C   C32       1.0  0.75400  0.00100  0.89490  1.0000 0.0622632367
C   C33       1.0  0.97730  0.32710  0.43240  1.0000 -0.0103973139
C   C34       1.0  0.32710  0.97730  0.06760  1.0000 -0.0103973139
C   C35       1.0  0.02270  0.67290  0.56760  1.0000 -0.0103973139
C   C36       1.0  0.67290  0.02270  0.93240  1.0000 -0.0103973139
C   C37       1.0  0.10660  0.34540  0.39400  1.0000 0.0816698804
C   C38       1.0  0.34540  0.10660  0.10600  1.0000 0.0816698804
C   C39       1.0  0.89340  0.65460  0.60600  1.0000 0.0816698804
C   C40       1.0  0.65460  0.89340  0.89400  1.0000 0.0816698804
C   C41       1.0  0.13320  0.26740  0.35380  1.0000 -0.1384994524
C   C42       1.0  0.26740  0.13320  0.14620  1.0000 -0.1384994524
C   C43       1.0  0.86680  0.73260  0.64620  1.0000 -0.1384994524
C   C44       1.0  0.73260  0.86680  0.85380  1.0000 -0.1384994524
C   C45       1.0  0.07840  0.21600  0.35410  1.0000 -0.0880177343
C   C46       1.0  0.21600  0.07840  0.14590  1.0000 -0.0880177343
C   C47       1.0  0.92160  0.78400  0.64590  1.0000 -0.0880177343
C   C48       1.0  0.78400  0.92160  0.85410  1.0000 -0.0880177343
C   C49       1.0  0.73780  0.92180  0.42170  1.0000 0.2773322625
C   C50       1.0  0.92180  0.73780  0.07830  1.0000 0.2773322625
C   C51       1.0  0.26220  0.07820  0.57830  1.0000 0.2773322625
C   C52       1.0  0.07820  0.26220  0.92170  1.0000 0.2773322625
C   C53       1.0  0.64900  0.99720  0.45860  1.0000 -0.4698880029
C   C54       1.0  0.99720  0.64900  0.04140  1.0000 -0.4698880029
C   C55       1.0  0.35100  0.00280  0.54140  1.0000 -0.4698880029
C   C56       1.0  0.00280  0.35100  0.95860  1.0000 -0.4698880029
C   C57       1.0  0.69890  0.88970  0.36210  1.0000 -0.4770446854
C   C58       1.0  0.88970  0.69890  0.13790  1.0000 -0.4770446854
C   C59       1.0  0.30110  0.11030  0.63790  1.0000 -0.4770446854
C   C60       1.0  0.11030  0.30110  0.86210  1.0000 -0.4770446854
C   C61       1.0  0.79600  0.83140  0.46480  1.0000 -0.4878051157
C   C62       1.0  0.83140  0.79600  0.03520  1.0000 -0.4878051157
C   C63       1.0  0.20400  0.16860  0.53520  1.0000 -0.4878051157
C   C64       1.0  0.16860  0.20400  0.96480  1.0000 -0.4878051157
C   C65       1.0  0.15260  0.90820  0.36100  1.0000 -0.0103973139
C   C66       1.0  0.90820  0.15260  0.13900  1.0000 -0.0103973139
C   C67       1.0  0.84740  0.09180  0.63900  1.0000 -0.0103973139
C   C68       1.0  0.09180  0.84740  0.86100  1.0000 -0.0103973139
C   C69       1.0  0.15040  0.85020  0.31200  1.0000 0.1401837898
C   C70       1.0  0.85020  0.15040  0.18800  1.0000 0.1401837898
C   C71       1.0  0.84960  0.14980  0.68800  1.0000 0.1401837898
C   C72       1.0  0.14980  0.84960  0.81200  1.0000 0.1401837898
C   C73       1.0  0.21810  0.82530  0.26170  1.0000 -0.0210476032
C   C74       1.0  0.82530  0.21810  0.23830  1.0000 -0.0210476032
C   C75       1.0  0.78190  0.17470  0.73830  1.0000 -0.0210476032
C   C76       1.0  0.17470  0.78190  0.76170  1.0000 -0.0210476032
C   C77       1.0  0.28900  0.85780  0.26380  1.0000 -0.1892440679
C   C78       1.0  0.85780  0.28900  0.23620  1.0000 -0.1892440679
C   C79       1.0  0.71100  0.14220  0.73620  1.0000 -0.1892440679
C   C80       1.0  0.14220  0.71100  0.76380  1.0000 -0.1892440679
C   C81       1.0  0.29720  0.91040  0.31390  1.0000 0.0816698804
C   C82       1.0  0.91040  0.29720  0.18610  1.0000 0.0816698804
C   C83       1.0  0.70280  0.08960  0.68610  1.0000 0.0816698804
C   C84       1.0  0.08960  0.70280  0.81390  1.0000 0.0816698804
C   C85       1.0  0.22590  0.93770  0.36280  1.0000 -0.1892440679
C   C86       1.0  0.93770  0.22590  0.13720  1.0000 -0.1892440679
C   C87       1.0  0.77410  0.06230  0.63720  1.0000 -0.1892440679
C   C88       1.0  0.06230  0.77410  0.86280  1.0000 -0.1892440679
C   C89       1.0  0.12980  0.71500  0.34440  1.0000 -0.0880177343
C   C90       1.0  0.71500  0.12980  0.15560  1.0000 -0.0880177343
C   C91       1.0  0.87020  0.28500  0.65560  1.0000 -0.0880177343
C   C92       1.0  0.28500  0.87020  0.84440  1.0000 -0.0880177343
C   C93       1.0  0.05350  0.68050  0.34970  1.0000 0.0693252882
C   C94       1.0  0.68050  0.05350  0.15030  1.0000 0.0693252882
C   C95       1.0  0.94650  0.31950  0.65030  1.0000 0.0693252882
C   C96       1.0  0.31950  0.94650  0.84970  1.0000 0.0693252882
C   C97       1.0  0.05840  0.62060  0.40180  1.0000 0.0058753684
C   C98       1.0  0.62060  0.05840  0.09820  1.0000 0.0058753684
C   C99       1.0  0.94160  0.37940  0.59820  1.0000 0.0058753684
C   C100      1.0  0.37940  0.94160  0.90180  1.0000 0.0058753684
C   C101      1.0  0.92450  0.60470  0.36380  1.0000 0.0622632367
C   C102      1.0  0.60470  0.92450  0.13620  1.0000 0.0622632367
C   C103      1.0  0.07550  0.39530  0.63620  1.0000 0.0622632367
C   C104      1.0  0.39530  0.07550  0.86380  1.0000 0.0622632367
C   C105      1.0  0.91500  0.66300  0.31020  1.0000 -0.1384994524
C   C106      1.0  0.66300  0.91500  0.18980  1.0000 -0.1384994524
C   C107      1.0  0.08500  0.33700  0.68980  1.0000 -0.1384994524
C   C108      1.0  0.33700  0.08500  0.81020  1.0000 -0.1384994524
C   C109      1.0  0.97900  0.70240  0.30310  1.0000 -0.0880177343
C   C110      1.0  0.70240  0.97900  0.19690  1.0000 -0.0880177343
C   C111      1.0  0.02100  0.29760  0.69690  1.0000 -0.0880177343
C   C112      1.0  0.29760  0.02100  0.80310  1.0000 -0.0880177343
C   C113      1.0  0.38210  0.93510  0.32150  1.0000 0.2668795449
C   C114      1.0  0.93510  0.38210  0.17850  1.0000 0.2668795449
C   C115      1.0  0.61790  0.06490  0.67850  1.0000 0.2668795449
C   C116      1.0  0.06490  0.61790  0.82150  1.0000 0.2668795449
C   C117      1.0  0.44350  0.91250  0.26050  1.0000 -0.4698880029
C   C118      1.0  0.91250  0.44350  0.23950  1.0000 -0.4698880029
C   C119      1.0  0.55650  0.08750  0.73950  1.0000 -0.4698880029
C   C120      1.0  0.08750  0.55650  0.76050  1.0000 -0.4698880029
C   C121      1.0  0.34820  0.04120  0.33710  1.0000 -0.4698880029
C   C122      1.0  0.04120  0.34820  0.16290  1.0000 -0.4698880029
C   C123      1.0  0.65180  0.95880  0.66290  1.0000 -0.4698880029
C   C124      1.0  0.95880  0.65180  0.83710  1.0000 -0.4698880029
C   C125      1.0  0.44930  0.86910  0.37740  1.0000 -0.4604459169
C   C126      1.0  0.86910  0.44930  0.12260  1.0000 -0.4604459169
C   C127      1.0  0.55070  0.13090  0.62260  1.0000 -0.4604459169
C   C128      1.0  0.13090  0.55070  0.87740  1.0000 -0.4604459169
C   C129      1.0  0.23570  0.40830  0.52420  1.0000 0.2581833465
C   C130      1.0  0.40830  0.23570  0.97580  1.0000 0.2581833465
C   C131      1.0  0.76430  0.59170  0.47580  1.0000 0.2581833465
C   C132      1.0  0.59170  0.76430  0.02420  1.0000 0.2581833465
S   S1        1.0  0.74622  0.22100  0.30138  1.0000 -0.0210476032
S   S2        1.0  0.22100  0.74622  0.19862  1.0000 -0.0210476032
S   S3        1.0  0.25378  0.77900  0.69862  1.0000 -0.0210476032
S   S4        1.0  0.77900  0.25378  0.80138  1.0000 -0.0210476032
S   S5        1.0  0.07683  0.93339  0.43035  1.0000 -0.0210476032
S   S6        1.0  0.93339  0.07683  0.06965  1.0000 -0.0210476032
S   S7        1.0  0.92317  0.06661  0.56965  1.0000 -0.0210476032
S   S8        1.0  0.06661  0.92317  0.93035  1.0000 -0.0210476032
S   S9        1.0  0.34871  0.34251  0.54340  1.0000 -0.3615780386
S   S10       1.0  0.34251  0.34871  0.95660  1.0000 -0.3615780386
S   S11       1.0  0.65129  0.65749  0.45660  1.0000 -0.3615780386
S   S12       1.0  0.65749  0.65129  0.04340  1.0000 -0.3615780386
N   N1        1.0  0.03100  0.37620  0.43350  1.0000 -0.2074935349
N   N2        1.0  0.37620  0.03100  0.06650  1.0000 -0.2074935349
N   N3        1.0  0.96900  0.62380  0.56650  1.0000 -0.2074935349
N   N4        1.0  0.62380  0.96900  0.93350  1.0000 -0.2074935349
N   N5        1.0  0.99490  0.58370  0.41000  1.0000 -0.2225112083
N   N6        1.0  0.58370  0.99490  0.09000  1.0000 -0.2225112083
N   N7        1.0  0.00510  0.41630  0.59000  1.0000 -0.2225112083
N   N8        1.0  0.41630  0.00510  0.91000  1.0000 -0.2225112083
N   N9        1.0  0.15210  0.45530  0.51060  1.0000 -0.4878051157
N   N10       1.0  0.45530  0.15210  0.98940  1.0000 -0.4878051157
N   N11       1.0  0.84790  0.54470  0.48940  1.0000 -0.4878051157
N   N12       1.0  0.54470  0.84790  0.01060  1.0000 -0.4878051157
O   O1        1.0  0.95954  0.12234  0.35330  1.0000 -0.2012566117
O   O2        1.0  0.12234  0.95954  0.14670  1.0000 -0.2012566117
O   O3        1.0  0.04046  0.87766  0.64670  1.0000 -0.2012566117
O   O4        1.0  0.87766  0.04046  0.85330  1.0000 -0.2012566117
O   O5        1.0  0.08370  0.81230  0.31280  1.0000 -0.2225112083
O   O6        1.0  0.81230  0.08370  0.18720  1.0000 -0.2225112083
O   O7        1.0  0.91630  0.18770  0.68720  1.0000 -0.2225112083
O   O8        1.0  0.18770  0.91630  0.81280  1.0000 -0.2225112083
