# DDEC6 charges by PACMAN v1.1 (https://github.com/mtap-research/PACMAN-charge/)
data_2015[Co][jeb]3[ASR]1
_chemical_formula_sum              "Co8 H112 C176 Br32 N32 O32"
_cell_length_a       23.3674
_cell_length_b       23.3674
_cell_length_c       20.4029
_cell_angle_alpha    65.0659
_cell_angle_beta     114.934
_cell_angle_gamma    136.465

_symmetry_space_group_name_H-M    "P 1"
_symmetry_Int_Tables_number       1

loop_
  _symmetry_equiv_pos_as_xyz
  'x, y, z'

loop_
  _atom_site_type_symbol
  _atom_site_label
  _atom_site_symmetry_multiplicity
  _atom_site_fract_x
  _atom_site_fract_y
  _atom_site_fract_z
  _atom_site_occupancy
  _atom_site_charge
Co  Co1       1.0  0.83723  0.50975  0.66667  1.0000 0.8020069007
Co  Co2       1.0  0.50975  0.83723  0.83339  1.0000 0.8020069007
Co  Co3       1.0  0.16277  0.49025  0.33339  1.0000 0.8020069007
Co  Co4       1.0  0.49025  0.16277  0.16661  1.0000 0.8020069007
Co  Co5       1.0  0.89815  0.73917  0.07976  1.0000 0.8020069007
Co  Co6       1.0  0.73917  0.89815  0.42024  1.0000 0.8020069007
Co  Co7       1.0  0.10185  0.26083  0.92024  1.0000 0.8020069007
Co  Co8       1.0  0.26083  0.10185  0.57976  1.0000 0.8020069007
H   H1        1.0  0.62860  0.27400  0.55150  1.0000 0.1125405091
H   H2        1.0  0.27400  0.62860  0.94850  1.0000 0.1125405091
H   H3        1.0  0.37140  0.72600  0.44850  1.0000 0.1125405091
H   H4        1.0  0.72600  0.37140  0.05150  1.0000 0.1125405091
H   H5        1.0  0.70400  0.31200  0.70500  1.0000 0.1194212341
H   H6        1.0  0.31200  0.70400  0.79500  1.0000 0.1194212341
H   H7        1.0  0.29600  0.68800  0.29500  1.0000 0.1194212341
H   H8        1.0  0.68800  0.29600  0.20500  1.0000 0.1194212341
H   H9        1.0  0.54970  0.16350  0.70430  1.0000 0.1194212341
H   H10       1.0  0.16350  0.54970  0.79570  1.0000 0.1194212341
H   H11       1.0  0.45030  0.83650  0.29570  1.0000 0.1194212341
H   H12       1.0  0.83650  0.45030  0.20430  1.0000 0.1194212341
H   H13       1.0  0.47680  0.16240  0.65180  1.0000 0.1318581667
H   H14       1.0  0.16240  0.47680  0.84820  1.0000 0.1318581667
H   H15       1.0  0.52320  0.83760  0.34820  1.0000 0.1318581667
H   H16       1.0  0.83760  0.52320  0.15180  1.0000 0.1318581667
H   H17       1.0  0.62280  0.23020  0.46680  1.0000 0.1194212341
H   H18       1.0  0.23020  0.62280  0.03320  1.0000 0.1194212341
H   H19       1.0  0.37720  0.76980  0.53320  1.0000 0.1194212341
H   H20       1.0  0.76980  0.37720  0.96680  1.0000 0.1194212341
H   H21       1.0  0.76030  0.82570  0.70380  1.0000 0.1125405091
H   H22       1.0  0.82570  0.76030  0.79620  1.0000 0.1125405091
H   H23       1.0  0.23970  0.17430  0.29620  1.0000 0.1125405091
H   H24       1.0  0.17430  0.23970  0.20380  1.0000 0.1125405091
H   H25       1.0  0.85800  0.02660  0.76470  1.0000 0.0992968645
H   H26       1.0  0.02660  0.85800  0.73530  1.0000 0.0992968645
H   H27       1.0  0.14200  0.97340  0.23530  1.0000 0.0992968645
H   H28       1.0  0.97340  0.14200  0.26470  1.0000 0.0992968645
H   H29       1.0  0.52350  0.08730  0.46120  1.0000 0.1125405091
H   H30       1.0  0.08730  0.52350  0.03880  1.0000 0.1125405091
H   H31       1.0  0.47650  0.91270  0.53880  1.0000 0.1125405091
H   H32       1.0  0.91270  0.47650  0.96120  1.0000 0.1125405091
H   H33       1.0  0.44530  0.91250  0.68140  1.0000 0.1194212341
H   H34       1.0  0.91250  0.44530  0.81860  1.0000 0.1194212341
H   H35       1.0  0.55470  0.08750  0.31860  1.0000 0.1194212341
H   H36       1.0  0.08750  0.55470  0.18140  1.0000 0.1194212341
H   H37       1.0  0.61800  0.71440  0.87930  1.0000 0.1194212341
H   H38       1.0  0.71440  0.61800  0.62070  1.0000 0.1194212341
H   H39       1.0  0.38200  0.28560  0.12070  1.0000 0.1194212341
H   H40       1.0  0.28560  0.38200  0.37930  1.0000 0.1194212341
H   H41       1.0  0.64500  0.78940  0.90070  1.0000 0.1318581667
H   H42       1.0  0.78940  0.64500  0.59930  1.0000 0.1318581667
H   H43       1.0  0.35500  0.21060  0.09930  1.0000 0.1318581667
H   H44       1.0  0.21060  0.35500  0.40070  1.0000 0.1318581667
H   H45       1.0  0.67860  0.74940  0.04500  1.0000 0.1374282692
H   H46       1.0  0.74940  0.67860  0.45500  1.0000 0.1374282692
H   H47       1.0  0.32140  0.25060  0.95500  1.0000 0.1374282692
H   H48       1.0  0.25060  0.32140  0.54500  1.0000 0.1374282692
H   H49       1.0  0.52270  0.30990  0.57350  1.0000 0.1318581667
H   H50       1.0  0.30990  0.52270  0.92650  1.0000 0.1318581667
H   H51       1.0  0.47730  0.69010  0.42650  1.0000 0.1318581667
H   H52       1.0  0.69010  0.47730  0.07350  1.0000 0.1318581667
H   H53       1.0  0.90640  0.13240  0.84220  1.0000 0.1194212341
H   H54       1.0  0.13240  0.90640  0.65780  1.0000 0.1194212341
H   H55       1.0  0.09360  0.86760  0.15780  1.0000 0.1194212341
H   H56       1.0  0.86760  0.09360  0.34220  1.0000 0.1194212341
H   H57       1.0  0.49060  0.93860  0.87870  1.0000 0.1318581667
H   H58       1.0  0.93860  0.49060  0.62130  1.0000 0.1318581667
H   H59       1.0  0.50940  0.06140  0.12130  1.0000 0.1318581667
H   H60       1.0  0.06140  0.50940  0.37870  1.0000 0.1318581667
H   H61       1.0  0.75350  0.98550  0.83610  1.0000 0.1318581667
H   H62       1.0  0.98550  0.75350  0.66390  1.0000 0.1318581667
H   H63       1.0  0.24650  0.01450  0.16390  1.0000 0.1318581667
H   H64       1.0  0.01450  0.24650  0.33610  1.0000 0.1318581667
H   H65       1.0  0.73880  0.91500  0.90530  1.0000 0.1194212341
H   H66       1.0  0.91500  0.73880  0.59470  1.0000 0.1194212341
H   H67       1.0  0.26120  0.08500  0.09470  1.0000 0.1194212341
H   H68       1.0  0.08500  0.26120  0.40530  1.0000 0.1194212341
H   H69       1.0  0.35320  0.96060  0.61620  1.0000 0.1194212341
H   H70       1.0  0.96060  0.35320  0.88380  1.0000 0.1194212341
H   H71       1.0  0.64680  0.03940  0.38380  1.0000 0.1194212341
H   H72       1.0  0.03940  0.64680  0.11620  1.0000 0.1194212341
H   H73       1.0  0.38860  0.03180  0.65080  1.0000 0.1318581667
H   H74       1.0  0.03180  0.38860  0.84920  1.0000 0.1318581667
H   H75       1.0  0.61140  0.96820  0.34920  1.0000 0.1318581667
H   H76       1.0  0.96820  0.61140  0.15080  1.0000 0.1318581667
H   H77       1.0  0.42870  0.99070  0.53990  1.0000 0.1125405091
H   H78       1.0  0.99070  0.42870  0.96010  1.0000 0.1125405091
H   H79       1.0  0.57130  0.00930  0.46010  1.0000 0.1125405091
H   H80       1.0  0.00930  0.57130  0.03990  1.0000 0.1125405091
H   H81       1.0  0.65330  0.45510  0.57570  1.0000 0.1318581667
H   H82       1.0  0.45510  0.65330  0.92430  1.0000 0.1318581667
H   H83       1.0  0.34670  0.54490  0.42430  1.0000 0.1318581667
H   H84       1.0  0.54490  0.34670  0.07570  1.0000 0.1318581667
H   H85       1.0  0.68080  0.74000  0.79350  1.0000 0.1125405091
H   H86       1.0  0.74000  0.68080  0.70650  1.0000 0.1125405091
H   H87       1.0  0.31920  0.26000  0.20650  1.0000 0.1125405091
H   H88       1.0  0.26000  0.31920  0.29350  1.0000 0.1125405091
H   H89       1.0  0.78810  0.76150  0.93140  1.0000 0.1125405091
H   H90       1.0  0.76150  0.78810  0.56860  1.0000 0.1125405091
H   H91       1.0  0.21190  0.23850  0.06860  1.0000 0.1125405091
H   H92       1.0  0.23850  0.21190  0.43140  1.0000 0.1125405091
H   H93       1.0  0.84520  0.96880  0.68830  1.0000 0.1194212341
H   H94       1.0  0.96880  0.84520  0.81170  1.0000 0.1194212341
H   H95       1.0  0.15480  0.03120  0.31170  1.0000 0.1194212341
H   H96       1.0  0.03120  0.15480  0.18830  1.0000 0.1194212341
H   H97       1.0  0.78090  0.73350  0.13100  1.0000 0.1318581667
H   H98       1.0  0.73350  0.78090  0.36900  1.0000 0.1318581667
H   H99       1.0  0.21910  0.26650  0.86900  1.0000 0.1318581667
H   H100      1.0  0.26650  0.21910  0.63100  1.0000 0.1318581667
H   H101      1.0  0.02220  0.08120  0.02530  1.0000 0.1318581667
H   H102      1.0  0.08120  0.02220  0.47470  1.0000 0.1318581667
H   H103      1.0  0.97780  0.91880  0.97470  1.0000 0.1318581667
H   H104      1.0  0.91880  0.97780  0.52530  1.0000 0.1318581667
H   H105      1.0  0.87800  0.94640  0.00140  1.0000 0.1318581667
H   H106      1.0  0.94640  0.87800  0.49860  1.0000 0.1318581667
H   H107      1.0  0.12200  0.05360  0.99860  1.0000 0.1318581667
H   H108      1.0  0.05360  0.12200  0.50140  1.0000 0.1318581667
H   H109      1.0  0.43950  0.01070  0.79150  1.0000 0.1318581667
H   H110      1.0  0.01070  0.43950  0.70850  1.0000 0.1318581667
H   H111      1.0  0.56050  0.98930  0.20850  1.0000 0.1318581667
H   H112      1.0  0.98930  0.56050  0.29150  1.0000 0.1318581667
C   C1        1.0  0.82360  0.57100  0.33180  1.0000 0.0381142952
C   C2        1.0  0.57100  0.82360  0.16820  1.0000 0.0381142952
C   C3        1.0  0.17640  0.42900  0.66820  1.0000 0.0381142952
C   C4        1.0  0.42900  0.17640  0.83180  1.0000 0.0381142952
C   C5        1.0  0.58820  0.21680  0.54930  1.0000 -0.1605706049
C   C6        1.0  0.21680  0.58820  0.95070  1.0000 -0.1605706049
C   C7        1.0  0.41180  0.78320  0.45070  1.0000 -0.1605706049
C   C8        1.0  0.78320  0.41180  0.04930  1.0000 -0.1605706049
C   C9        1.0  0.93750  0.68850  0.42220  1.0000 0.032902539
C   C10       1.0  0.68850  0.93750  0.07780  1.0000 0.032902539
C   C11       1.0  0.06250  0.31150  0.57780  1.0000 0.032902539
C   C12       1.0  0.31150  0.06250  0.92220  1.0000 0.032902539
C   C13       1.0  0.80670  0.55370  0.39850  1.0000 0.032902539
C   C14       1.0  0.55370  0.80670  0.10150  1.0000 0.032902539
C   C15       1.0  0.19330  0.44630  0.60150  1.0000 0.032902539
C   C16       1.0  0.44630  0.19330  0.89850  1.0000 0.032902539
C   C17       1.0  0.84830  0.54390  0.77910  1.0000 0.5414545242
C   C18       1.0  0.54390  0.84830  0.72090  1.0000 0.5414545242
C   C19       1.0  0.15170  0.45610  0.22090  1.0000 0.5414545242
C   C20       1.0  0.45610  0.15170  0.27910  1.0000 0.5414545242
C   C21       1.0  0.95530  0.70570  0.35600  1.0000 0.0381142952
C   C22       1.0  0.70570  0.95530  0.14400  1.0000 0.0381142952
C   C23       1.0  0.04470  0.29430  0.64400  1.0000 0.0381142952
C   C24       1.0  0.29430  0.04470  0.85600  1.0000 0.0381142952
C   C25       1.0  0.67540  0.33020  0.67280  1.0000 0.0992968645
C   C26       1.0  0.33020  0.67540  0.82720  1.0000 0.0992968645
C   C27       1.0  0.32460  0.66980  0.32720  1.0000 0.0992968645
C   C28       1.0  0.66980  0.32460  0.17280  1.0000 0.0992968645
C   C29       1.0  0.53320  0.18600  0.65560  1.0000 -0.1762243431
C   C30       1.0  0.18600  0.53320  0.84440  1.0000 -0.1762243431
C   C31       1.0  0.46680  0.81400  0.34440  1.0000 -0.1762243431
C   C32       1.0  0.81400  0.46680  0.15560  1.0000 -0.1762243431
C   C33       1.0  0.89750  0.64790  0.30940  1.0000 -0.0790992845
C   C34       1.0  0.64790  0.89750  0.19060  1.0000 -0.0790992845
C   C35       1.0  0.10250  0.35210  0.69060  1.0000 -0.0790992845
C   C36       1.0  0.35210  0.10250  0.80940  1.0000 -0.0790992845
C   C37       1.0  0.58500  0.19080  0.49920  1.0000 -0.0716022845
C   C38       1.0  0.19080  0.58500  0.00080  1.0000 -0.0716022845
C   C39       1.0  0.41500  0.80920  0.50080  1.0000 -0.0716022845
C   C40       1.0  0.80920  0.41500  0.99920  1.0000 -0.0716022845
C   C41       1.0  0.78990  0.58790  0.88920  1.0000 0.032902539
C   C42       1.0  0.58790  0.78990  0.61080  1.0000 0.032902539
C   C43       1.0  0.21010  0.41210  0.11080  1.0000 0.032902539
C   C44       1.0  0.41210  0.21010  0.38920  1.0000 0.032902539
C   C45       1.0  0.78510  0.55710  0.83960  1.0000 0.032902539
C   C46       1.0  0.55710  0.78510  0.66040  1.0000 0.032902539
C   C47       1.0  0.21490  0.44290  0.16040  1.0000 0.032902539
C   C48       1.0  0.44290  0.21490  0.33960  1.0000 0.032902539
C   C49       1.0  0.93380  0.64400  0.86780  1.0000 0.0381142952
C   C50       1.0  0.64400  0.93380  0.63220  1.0000 0.0381142952
C   C51       1.0  0.06620  0.35600  0.13220  1.0000 0.0381142952
C   C52       1.0  0.35600  0.06620  0.36780  1.0000 0.0381142952
C   C53       1.0  0.87730  0.68810  0.97710  1.0000 0.5414545242
C   C54       1.0  0.68810  0.87730  0.52290  1.0000 0.5414545242
C   C55       1.0  0.12270  0.31190  0.02290  1.0000 0.5414545242
C   C56       1.0  0.31190  0.12270  0.47710  1.0000 0.5414545242
C   C57       1.0  0.71850  0.83050  0.83380  1.0000 0.0515050901
C   C58       1.0  0.83050  0.71850  0.66620  1.0000 0.0515050901
C   C59       1.0  0.28150  0.16950  0.16620  1.0000 0.0515050901
C   C60       1.0  0.16950  0.28150  0.33380  1.0000 0.0515050901
C   C61       1.0  0.86810  0.64790  0.92810  1.0000 -0.0790992845
C   C62       1.0  0.64790  0.86810  0.57190  1.0000 -0.0790992845
C   C63       1.0  0.13190  0.35210  0.07190  1.0000 -0.0790992845
C   C64       1.0  0.35210  0.13190  0.42810  1.0000 -0.0790992845
C   C65       1.0  0.76290  0.84850  0.73400  1.0000 -0.089964165
C   C66       1.0  0.84850  0.76290  0.76600  1.0000 -0.089964165
C   C67       1.0  0.23710  0.15150  0.26600  1.0000 -0.089964165
C   C68       1.0  0.15150  0.23710  0.23400  1.0000 -0.089964165
C   C69       1.0  0.82060  0.96820  0.77020  1.0000 -0.1486745324
C   C70       1.0  0.96820  0.82060  0.72980  1.0000 -0.1486745324
C   C71       1.0  0.17940  0.03180  0.22980  1.0000 -0.1486745324
C   C72       1.0  0.03180  0.17940  0.27020  1.0000 -0.1486745324
C   C73       1.0  0.86350  0.61230  0.44430  1.0000 -0.0790992845
C   C74       1.0  0.61230  0.86350  0.05570  1.0000 -0.0790992845
C   C75       1.0  0.13650  0.38770  0.55570  1.0000 -0.0790992845
C   C76       1.0  0.38770  0.13650  0.94430  1.0000 -0.0790992845
C   C77       1.0  0.52510  0.10530  0.49540  1.0000 -0.089964165
C   C78       1.0  0.10530  0.52510  0.00460  1.0000 -0.089964165
C   C79       1.0  0.47490  0.89470  0.50460  1.0000 -0.089964165
C   C80       1.0  0.89470  0.47490  0.99540  1.0000 -0.089964165
C   C81       1.0  0.85530  0.58330  0.82830  1.0000 -0.0790992845
C   C82       1.0  0.58330  0.85530  0.67170  1.0000 -0.0790992845
C   C83       1.0  0.14470  0.41670  0.17170  1.0000 -0.0790992845
C   C84       1.0  0.41670  0.14470  0.32830  1.0000 -0.0790992845
C   C85       1.0  0.46980  0.07300  0.59270  1.0000 0.0515050901
C   C86       1.0  0.07300  0.46980  0.90730  1.0000 0.0515050901
C   C87       1.0  0.53020  0.92700  0.40730  1.0000 0.0515050901
C   C88       1.0  0.92700  0.53020  0.09270  1.0000 0.0515050901
C   C89       1.0  0.45030  0.92770  0.72010  1.0000 0.089349259
C   C90       1.0  0.92770  0.45030  0.77990  1.0000 0.089349259
C   C91       1.0  0.54970  0.07230  0.27990  1.0000 0.089349259
C   C92       1.0  0.07230  0.54970  0.22010  1.0000 0.089349259
C   C93       1.0  0.53130  0.15870  0.59830  1.0000 0.0791699145
C   C94       1.0  0.15870  0.53130  0.90170  1.0000 0.0791699145
C   C95       1.0  0.46870  0.84130  0.40170  1.0000 0.0791699145
C   C96       1.0  0.84130  0.46870  0.09830  1.0000 0.0791699145
C   C97       1.0  0.66620  0.76920  0.89390  1.0000 -0.1694262024
C   C98       1.0  0.76920  0.66620  0.60610  1.0000 -0.1694262024
C   C99       1.0  0.33380  0.23080  0.10610  1.0000 -0.1605706049
C   C100      1.0  0.23080  0.33380  0.39390  1.0000 -0.1694262024
C   C101      1.0  0.84490  0.59270  0.51750  1.0000 0.5712088797
C   C102      1.0  0.59270  0.84490  0.98250  1.0000 0.5712088797
C   C103      1.0  0.15510  0.40730  0.48250  1.0000 0.5712088797
C   C104      1.0  0.40730  0.15510  0.01750  1.0000 0.5712088797
C   C105      1.0  0.93830  0.67430  0.91640  1.0000 0.032902539
C   C106      1.0  0.67430  0.93830  0.58360  1.0000 0.032902539
C   C107      1.0  0.06170  0.32570  0.08360  1.0000 0.032902539
C   C108      1.0  0.32570  0.06170  0.41640  1.0000 0.032902539
C   C109      1.0  0.71300  0.75000  0.03250  1.0000 -0.089964165
C   C110      1.0  0.75000  0.71300  0.46750  1.0000 -0.0973733599
C   C111      1.0  0.28700  0.25000  0.96750  1.0000 -0.0973733599
C   C112      1.0  0.25000  0.28700  0.53250  1.0000 -0.0973733599
C   C113      1.0  0.57530  0.32810  0.60070  1.0000 -0.0973733599
C   C114      1.0  0.32810  0.57530  0.89930  1.0000 -0.0973733599
C   C115      1.0  0.42470  0.67190  0.39930  1.0000 -0.0973733599
C   C116      1.0  0.67190  0.42470  0.10070  1.0000 -0.0973733599
C   C117      1.0  0.91740  0.10320  0.88530  1.0000 0.1125405091
C   C118      1.0  0.10320  0.91740  0.61470  1.0000 0.1125405091
C   C119      1.0  0.08260  0.89680  0.11470  1.0000 0.1125405091
C   C120      1.0  0.89680  0.08260  0.38530  1.0000 0.1125405091
C   C121      1.0  0.47480  0.94160  0.82810  1.0000 -0.0229479114
C   C122      1.0  0.94160  0.47480  0.67190  1.0000 -0.0302706971
C   C123      1.0  0.52520  0.05840  0.17190  1.0000 -0.0302706971
C   C124      1.0  0.05840  0.52520  0.32810  1.0000 -0.0229479114
C   C125      1.0  0.77500  0.95800  0.86900  1.0000 -0.1605706049
C   C126      1.0  0.95800  0.77500  0.63100  1.0000 -0.1605706049
C   C127      1.0  0.22500  0.04200  0.13100  1.0000 -0.1605706049
C   C128      1.0  0.04200  0.22500  0.36900  1.0000 -0.1605706049
C   C129      1.0  0.40370  0.00690  0.64170  1.0000 -0.1694262024
C   C130      1.0  0.00690  0.40370  0.85830  1.0000 -0.1694262024
C   C131      1.0  0.59630  0.99310  0.35830  1.0000 -0.1694262024
C   C132      1.0  0.99310  0.59630  0.14170  1.0000 -0.1694262024
C   C133      1.0  0.46860  0.04780  0.54240  1.0000 -0.1694262024
C   C134      1.0  0.04780  0.46860  0.95760  1.0000 -0.1605706049
C   C135      1.0  0.53140  0.95220  0.45760  1.0000 -0.1605706049
C   C136      1.0  0.95220  0.53140  0.04240  1.0000 -0.1694262024
C   C137      1.0  0.64740  0.40800  0.60190  1.0000 -0.0414231341
C   C138      1.0  0.40800  0.64740  0.89810  1.0000 -0.0414231341
C   C139      1.0  0.35260  0.59200  0.39810  1.0000 -0.0414231341
C   C140      1.0  0.59200  0.35260  0.10190  1.0000 -0.0414231341
C   C141      1.0  0.77080  0.91540  0.82520  1.0000 0.0600240346
C   C142      1.0  0.91540  0.77080  0.67480  1.0000 0.0600240346
C   C143      1.0  0.22920  0.08460  0.17480  1.0000 0.0600240346
C   C144      1.0  0.08460  0.22920  0.32520  1.0000 0.0600240346
C   C145      1.0  0.71600  0.79820  0.78740  1.0000 -0.1762243431
C   C146      1.0  0.79820  0.71600  0.71260  1.0000 -0.1762243431
C   C147      1.0  0.28400  0.20180  0.21260  1.0000 -0.1762243431
C   C148      1.0  0.20180  0.28400  0.28740  1.0000 -0.1762243431
C   C149      1.0  0.77350  0.75630  0.97070  1.0000 0.0791699145
C   C150      1.0  0.75630  0.77350  0.52930  1.0000 0.0791699145
C   C151      1.0  0.22650  0.24370  0.02930  1.0000 0.0791699145
C   C152      1.0  0.24370  0.22650  0.47070  1.0000 0.0791699145
C   C153      1.0  0.81390  0.93350  0.72570  1.0000 -0.0790992845
C   C154      1.0  0.93350  0.81390  0.77430  1.0000 -0.0790992845
C   C155      1.0  0.18610  0.06650  0.27430  1.0000 -0.0790992845
C   C156      1.0  0.06650  0.18610  0.22570  1.0000 -0.0790992845
C   C157      1.0  0.76970  0.74090  0.08000  1.0000 -0.0229479114
C   C158      1.0  0.74090  0.76970  0.42000  1.0000 -0.0229479114
C   C159      1.0  0.23030  0.25910  0.92000  1.0000 -0.0229479114
C   C160      1.0  0.25910  0.23030  0.58000  1.0000 -0.0229479114
C   C161      1.0  0.91580  0.66900  0.23450  1.0000 0.5712088797
C   C162      1.0  0.66900  0.91580  0.26550  1.0000 0.5712088797
C   C163      1.0  0.08420  0.33100  0.76550  1.0000 0.5712088797
C   C164      1.0  0.33100  0.08420  0.73450  1.0000 0.5712088797
C   C165      1.0  0.98040  0.07480  0.98530  1.0000 -0.0302706971
C   C166      1.0  0.07480  0.98040  0.51470  1.0000 -0.0302706971
C   C167      1.0  0.01960  0.92520  0.01470  1.0000 -0.0302706971
C   C168      1.0  0.92520  0.01960  0.48530  1.0000 -0.0302706971
C   C169      1.0  0.90090  0.99970  0.97260  1.0000 -0.1227931078
C   C170      1.0  0.99970  0.90090  0.52740  1.0000 -0.1227931078
C   C171      1.0  0.09910  0.00030  0.02740  1.0000 -0.1227931078
C   C172      1.0  0.00030  0.09910  0.47260  1.0000 -0.1227931078
C   C173      1.0  0.44710  0.98250  0.77980  1.0000 -0.0973733599
C   C174      1.0  0.98250  0.44710  0.72020  1.0000 -0.0973733599
C   C175      1.0  0.55290  0.01750  0.22020  1.0000 -0.0973733599
C   C176      1.0  0.01750  0.55290  0.27980  1.0000 -0.0973733599
Br  Br1       1.0  0.04601  0.76019  0.96607  1.0000 -0.0493205086
Br  Br2       1.0  0.76019  0.04601  0.53393  1.0000 -0.0493205086
Br  Br3       1.0  0.95399  0.23981  0.03393  1.0000 -0.0493205086
Br  Br4       1.0  0.23981  0.95399  0.46607  1.0000 -0.0493205086
Br  Br5       1.0  0.67951  0.47921  0.78313  1.0000 -0.0493205086
Br  Br6       1.0  0.47921  0.67951  0.71687  1.0000 -0.0493205086
Br  Br7       1.0  0.32049  0.52079  0.21687  1.0000 -0.0493205086
Br  Br8       1.0  0.52079  0.32049  0.28313  1.0000 -0.0493205086
Br  Br9       1.0  0.69334  0.55424  0.90190  1.0000 -0.0414231341
Br  Br10      1.0  0.55424  0.69334  0.59810  1.0000 -0.0414231341
Br  Br11      1.0  0.30666  0.44576  0.09810  1.0000 -0.0414231341
Br  Br12      1.0  0.44576  0.30666  0.40190  1.0000 -0.0414231341
Br  Br13      1.0  0.06060  0.80816  0.32918  1.0000 -0.0716022845
Br  Br14      1.0  0.80816  0.06060  0.17082  1.0000 -0.0716022845
Br  Br15      1.0  0.93940  0.19184  0.67082  1.0000 -0.0716022845
Br  Br16      1.0  0.19184  0.93940  0.82918  1.0000 -0.0716022845
Br  Br17      1.0  0.70538  0.44796  0.42964  1.0000 -0.0584615773
Br  Br18      1.0  0.44796  0.70538  0.07036  1.0000 -0.0584615773
Br  Br19      1.0  0.29462  0.55204  0.57036  1.0000 -0.0584615773
Br  Br20      1.0  0.55204  0.29462  0.92964  1.0000 -0.0584615773
Br  Br21      1.0  0.01399  0.76903  0.48409  1.0000 -0.0493205086
Br  Br22      1.0  0.76903  0.01399  0.01591  1.0000 -0.0493205086
Br  Br23      1.0  0.98601  0.23097  0.51591  1.0000 -0.0493205086
Br  Br24      1.0  0.23097  0.98601  0.98409  1.0000 -0.0493205086
Br  Br25      1.0  0.74479  0.49361  0.26700  1.0000 -0.0584615773
Br  Br26      1.0  0.49361  0.74479  0.23300  1.0000 -0.0584615773
Br  Br27      1.0  0.25521  0.50639  0.73300  1.0000 -0.0584615773
Br  Br28      1.0  0.50639  0.25521  0.76700  1.0000 -0.0584615773
Br  Br29      1.0  0.03119  0.68229  0.85025  1.0000 -0.0414231341
Br  Br30      1.0  0.68229  0.03119  0.64975  1.0000 -0.0414231341
Br  Br31      1.0  0.96881  0.31771  0.14975  1.0000 -0.0414231341
Br  Br32      1.0  0.31771  0.96881  0.35025  1.0000 -0.0414231341
N   N1        1.0  0.71190  0.41010  0.64780  1.0000 -0.3107314379
N   N2        1.0  0.41010  0.71190  0.85220  1.0000 -0.3107314379
N   N3        1.0  0.28810  0.58990  0.35220  1.0000 -0.3107314379
N   N4        1.0  0.58990  0.28810  0.14780  1.0000 -0.3107314379
N   N5        1.0  0.99030  0.14030  0.93060  1.0000 -0.3107314379
N   N6        1.0  0.14030  0.99030  0.56940  1.0000 -0.3107314379
N   N7        1.0  0.00970  0.85970  0.06940  1.0000 -0.3107314379
N   N8        1.0  0.85970  0.00970  0.43060  1.0000 -0.3107314379
N   N9        1.0  0.43300  0.97360  0.71220  1.0000 0.0515050901
N   N10       1.0  0.97360  0.43300  0.78780  1.0000 0.0515050901
N   N11       1.0  0.56700  0.02640  0.28780  1.0000 0.0515050901
N   N12       1.0  0.02640  0.56700  0.21220  1.0000 0.0515050901
N   N13       1.0  0.71740  0.76000  0.96410  1.0000 0.0515050901
N   N14       1.0  0.76000  0.71740  0.53590  1.0000 0.0515050901
N   N15       1.0  0.28260  0.24000  0.03590  1.0000 0.0515050901
N   N16       1.0  0.24000  0.28260  0.46410  1.0000 0.0515050901
N   N17       1.0  0.47570  0.90610  0.79050  1.0000 -0.3107314379
N   N18       1.0  0.90610  0.47570  0.70950  1.0000 -0.3107314379
N   N19       1.0  0.52430  0.09390  0.20950  1.0000 -0.3107314379
N   N20       1.0  0.09390  0.52430  0.29050  1.0000 -0.3107314379
N   N21       1.0  0.59210  0.27810  0.64610  1.0000 0.0381142952
N   N22       1.0  0.27810  0.59210  0.85390  1.0000 0.0381142952
N   N23       1.0  0.40790  0.72190  0.35390  1.0000 0.0381142952
N   N24       1.0  0.72190  0.40790  0.14610  1.0000 0.0381142952
N   N25       1.0  0.86090  0.02030  0.90640  1.0000 0.0381142952
N   N26       1.0  0.02030  0.86090  0.59360  1.0000 0.0381142952
N   N27       1.0  0.13910  0.97970  0.09360  1.0000 0.0381142952
N   N28       1.0  0.97970  0.13910  0.40640  1.0000 0.0381142952
N   N29       1.0  0.80640  0.74440  0.04080  1.0000 -0.3014360364
N   N30       1.0  0.74440  0.80640  0.45920  1.0000 -0.3014360364
N   N31       1.0  0.19360  0.25560  0.95920  1.0000 -0.3014360364
N   N32       1.0  0.25560  0.19360  0.54080  1.0000 -0.3014360364
O   O1        1.0  0.88852  0.75268  0.95052  1.0000 -0.4991899427
O   O2        1.0  0.75268  0.88852  0.54948  1.0000 -0.4991899427
O   O3        1.0  0.11148  0.24732  0.04948  1.0000 -0.4991899427
O   O4        1.0  0.24732  0.11148  0.45052  1.0000 -0.4991899427
O   O5        1.0  0.87409  0.56271  0.57109  1.0000 -0.5307083935
O   O6        1.0  0.56271  0.87409  0.92891  1.0000 -0.5307083935
O   O7        1.0  0.12591  0.43729  0.42891  1.0000 -0.5307083935
O   O8        1.0  0.43729  0.12591  0.07109  1.0000 -0.5307083935
O   O9        1.0  0.87277  0.65323  0.04497  1.0000 -0.5307083935
O   O10       1.0  0.65323  0.87277  0.45503  1.0000 -0.5307083935
O   O11       1.0  0.12723  0.34677  0.95503  1.0000 -0.5307083935
O   O12       1.0  0.34677  0.12723  0.54497  1.0000 -0.5307083935
O   O13       1.0  0.86164  0.58576  0.71344  1.0000 -0.5307083935
O   O14       1.0  0.58576  0.86164  0.78656  1.0000 -0.5307083935
O   O15       1.0  0.13836  0.41424  0.28656  1.0000 -0.5307083935
O   O16       1.0  0.41424  0.13836  0.21344  1.0000 -0.5307083935
O   O17       1.0  0.95280  0.65240  0.23110  1.0000 -0.5213044729
O   O18       1.0  0.65240  0.95280  0.26890  1.0000 -0.5213044729
O   O19       1.0  0.04720  0.34760  0.76890  1.0000 -0.5213044729
O   O20       1.0  0.34760  0.04720  0.73110  1.0000 -0.5213044729
O   O21       1.0  0.82944  0.47656  0.80254  1.0000 -0.4991899427
O   O22       1.0  0.47656  0.82944  0.69746  1.0000 -0.4991899427
O   O23       1.0  0.17056  0.52344  0.19746  1.0000 -0.4991899427
O   O24       1.0  0.52344  0.17056  0.30254  1.0000 -0.4991899427
O   O25       1.0  0.80130  0.60410  0.51840  1.0000 -0.5307083935
O   O26       1.0  0.60410  0.80130  0.98160  1.0000 -0.5412180917
O   O27       1.0  0.19870  0.39590  0.48160  1.0000 -0.5307083935
O   O28       1.0  0.39590  0.19870  0.01840  1.0000 -0.5412180917
O   O29       1.0  0.88813  0.70207  0.18333  1.0000 -0.5412180917
O   O30       1.0  0.70207  0.88813  0.31667  1.0000 -0.5412180917
O   O31       1.0  0.11187  0.29793  0.81667  1.0000 -0.5412180917
O   O32       1.0  0.29793  0.11187  0.68333  1.0000 -0.5412180917
