# DDEC6 charges by PACMAN v1.1 (https://github.com/mtap-research/PACMAN-charge/)
data_2015[Dy][nan]3[ASR]2
_chemical_formula_sum              "Dy8 H24 C72 O60"
_cell_length_a       8.6326
_cell_length_b       15.3462
_cell_length_c       28.1206
_cell_angle_alpha    90
_cell_angle_beta     90
_cell_angle_gamma    90

_symmetry_space_group_name_H-M    "P 1"
_symmetry_Int_Tables_number       1

loop_
  _symmetry_equiv_pos_as_xyz
  'x, y, z'

loop_
  _atom_site_type_symbol
  _atom_site_label
  _atom_site_symmetry_multiplicity
  _atom_site_fract_x
  _atom_site_fract_y
  _atom_site_fract_z
  _atom_site_occupancy
  _atom_site_charge
Dy  Dy1       1.0  0.94761  0.20205  0.58672  1.0000 2.083925238
Dy  Dy2       1.0  0.55239  0.70205  0.41328  1.0000 2.083925238
Dy  Dy3       1.0  0.44761  0.29795  0.91328  1.0000 2.083925238
Dy  Dy4       1.0  0.05239  0.79795  0.08672  1.0000 2.083925238
Dy  Dy5       1.0  0.05239  0.79795  0.41328  1.0000 2.083925238
Dy  Dy6       1.0  0.44761  0.29795  0.58672  1.0000 2.083925238
Dy  Dy7       1.0  0.55239  0.70205  0.08672  1.0000 2.083925238
Dy  Dy8       1.0  0.94761  0.20205  0.91328  1.0000 2.083925238
H   H1        1.0  0.88610  0.37580  0.45010  1.0000 0.1515637053
H   H2        1.0  0.61390  0.87580  0.54990  1.0000 0.1515637053
H   H3        1.0  0.38610  0.12420  0.04990  1.0000 0.1515637053
H   H4        1.0  0.11390  0.62420  0.95010  1.0000 0.1515637053
H   H5        1.0  0.11390  0.62420  0.54990  1.0000 0.1515637053
H   H6        1.0  0.38610  0.12420  0.45010  1.0000 0.1515637053
H   H7        1.0  0.61390  0.87580  0.95010  1.0000 0.1515637053
H   H8        1.0  0.88610  0.37580  0.04990  1.0000 0.1515637053
H   H9        1.0  0.34420  0.40600  0.70480  1.0000 0.1515637053
H   H10       1.0  0.15580  0.90600  0.29520  1.0000 0.1515637053
H   H11       1.0  0.84420  0.09400  0.79520  1.0000 0.1515637053
H   H12       1.0  0.65580  0.59400  0.20480  1.0000 0.1515637053
H   H13       1.0  0.65580  0.59400  0.29520  1.0000 0.1515637053
H   H14       1.0  0.84420  0.09400  0.70480  1.0000 0.1515637053
H   H15       1.0  0.15580  0.90600  0.20480  1.0000 0.1515637053
H   H16       1.0  0.34420  0.40600  0.79520  1.0000 0.1515637053
H   H17       1.0  0.91480  0.51340  0.40420  1.0000 0.1515637053
H   H18       1.0  0.58520  0.01340  0.59580  1.0000 0.1515637053
H   H19       1.0  0.41480  0.98660  0.09580  1.0000 0.1515637053
H   H20       1.0  0.08520  0.48660  0.90420  1.0000 0.1515637053
H   H21       1.0  0.08520  0.48660  0.59580  1.0000 0.1515637053
H   H22       1.0  0.41480  0.98660  0.40420  1.0000 0.1515637053
H   H23       1.0  0.58520  0.01340  0.90420  1.0000 0.1515637053
H   H24       1.0  0.91480  0.51340  0.09580  1.0000 0.1515637053
C   C1        1.0  0.14720  0.33530  0.51050  1.0000 0.625562681
C   C2        1.0  0.35280  0.83530  0.48950  1.0000 0.625562681
C   C3        1.0  0.64720  0.16470  0.98950  1.0000 0.625562681
C   C4        1.0  0.85280  0.66470  0.01050  1.0000 0.625562681
C   C5        1.0  0.85280  0.66470  0.48950  1.0000 0.625562681
C   C6        1.0  0.64720  0.16470  0.51050  1.0000 0.625562681
C   C7        1.0  0.35280  0.83530  0.01050  1.0000 0.625562681
C   C8        1.0  0.14720  0.33530  0.98950  1.0000 0.625562681
C   C9        1.0  0.19460  0.30380  0.71120  1.0000 0.0771012279
C   C10       1.0  0.30540  0.80380  0.28880  1.0000 0.0771012279
C   C11       1.0  0.69460  0.19620  0.78880  1.0000 0.0771012279
C   C12       1.0  0.80540  0.69620  0.21120  1.0000 0.0771012279
C   C13       1.0  0.80540  0.69620  0.28880  1.0000 0.0771012279
C   C14       1.0  0.69460  0.19620  0.71120  1.0000 0.0771012279
C   C15       1.0  0.30540  0.80380  0.21120  1.0000 0.0771012279
C   C16       1.0  0.19460  0.30380  0.78880  1.0000 0.0771012279
C   C17       1.0  0.14880  0.27010  0.66460  1.0000 0.5828276184
C   C18       1.0  0.35120  0.77010  0.33540  1.0000 0.5828276184
C   C19       1.0  0.64880  0.22990  0.83540  1.0000 0.5828276184
C   C20       1.0  0.85120  0.72990  0.16460  1.0000 0.5828276184
C   C21       1.0  0.85120  0.72990  0.33540  1.0000 0.5828276184
C   C22       1.0  0.64880  0.22990  0.66460  1.0000 0.5828276184
C   C23       1.0  0.35120  0.77010  0.16460  1.0000 0.5828276184
C   C24       1.0  0.14880  0.27010  0.83540  1.0000 0.5828276184
C   C25       1.0  0.13080  0.52220  0.43380  1.0000 0.0457655793
C   C26       1.0  0.36920  0.02220  0.56620  1.0000 0.0457655793
C   C27       1.0  0.63080  0.97780  0.06620  1.0000 0.0457655793
C   C28       1.0  0.86920  0.47780  0.93380  1.0000 0.0457655793
C   C29       1.0  0.86920  0.47780  0.56620  1.0000 0.0457655793
C   C30       1.0  0.63080  0.97780  0.43380  1.0000 0.0457655793
C   C31       1.0  0.36920  0.02220  0.93380  1.0000 0.0457655793
C   C32       1.0  0.13080  0.52220  0.06620  1.0000 0.0457655793
C   C33       1.0  0.97190  0.41240  0.45010  1.0000 -0.1705127091
C   C34       1.0  0.52810  0.91240  0.54990  1.0000 -0.1705127091
C   C35       1.0  0.47190  0.08760  0.04990  1.0000 -0.1705127091
C   C36       1.0  0.02810  0.58760  0.95010  1.0000 -0.1705127091
C   C37       1.0  0.02810  0.58760  0.54990  1.0000 -0.1705127091
C   C38       1.0  0.47190  0.08760  0.45010  1.0000 -0.1705127091
C   C39       1.0  0.52810  0.91240  0.95010  1.0000 -0.1705127091
C   C40       1.0  0.97190  0.41240  0.04990  1.0000 -0.1705127091
C   C41       1.0  0.10130  0.40110  0.47450  1.0000 0.0554367384
C   C42       1.0  0.39870  0.90110  0.52550  1.0000 0.0554367384
C   C43       1.0  0.60130  0.09890  0.02550  1.0000 0.0554367384
C   C44       1.0  0.89870  0.59890  0.97450  1.0000 0.0554367384
C   C45       1.0  0.89870  0.59890  0.52550  1.0000 0.0554367384
C   C46       1.0  0.60130  0.09890  0.47450  1.0000 0.0554367384
C   C47       1.0  0.39870  0.90110  0.97450  1.0000 0.0554367384
C   C48       1.0  0.10130  0.40110  0.02550  1.0000 0.0554367384
C   C49       1.0  0.28940  0.36850  0.72460  1.0000 -0.1705127091
C   C50       1.0  0.21060  0.86850  0.27540  1.0000 -0.1705127091
C   C51       1.0  0.78940  0.13150  0.77540  1.0000 -0.1705127091
C   C52       1.0  0.71060  0.63150  0.22460  1.0000 -0.1705127091
C   C53       1.0  0.71060  0.63150  0.27540  1.0000 -0.1705127091
C   C54       1.0  0.78940  0.13150  0.72460  1.0000 -0.1705127091
C   C55       1.0  0.21060  0.86850  0.22460  1.0000 -0.1705127091
C   C56       1.0  0.28940  0.36850  0.77540  1.0000 -0.1705127091
C   C57       1.0  0.20360  0.60530  0.42180  1.0000 0.5922245589
C   C58       1.0  0.29640  0.10530  0.57820  1.0000 0.5922245589
C   C59       1.0  0.70360  0.89470  0.07820  1.0000 0.5922245589
C   C60       1.0  0.79640  0.39470  0.92180  1.0000 0.5922245589
C   C61       1.0  0.79640  0.39470  0.57820  1.0000 0.5922245589
C   C62       1.0  0.70360  0.89470  0.42180  1.0000 0.5922245589
C   C63       1.0  0.29640  0.10530  0.92180  1.0000 0.5922245589
C   C64       1.0  0.20360  0.60530  0.07820  1.0000 0.5922245589
C   C65       1.0  0.98840  0.48910  0.42430  1.0000 -0.1705127091
C   C66       1.0  0.51160  0.98910  0.57570  1.0000 -0.1705127091
C   C67       1.0  0.48840  0.01090  0.07570  1.0000 -0.1705127091
C   C68       1.0  0.01160  0.51090  0.92430  1.0000 -0.1705127091
C   C69       1.0  0.01160  0.51090  0.57570  1.0000 -0.1705127091
C   C70       1.0  0.48840  0.01090  0.42430  1.0000 -0.1705127091
C   C71       1.0  0.51160  0.98910  0.92430  1.0000 -0.1705127091
C   C72       1.0  0.98840  0.48910  0.07570  1.0000 -0.1705127091
O   O1        1.0  0.20670  0.30450  0.62836  1.0000 -0.6914505306
O   O2        1.0  0.29330  0.80450  0.37164  1.0000 -0.6914505306
O   O3        1.0  0.70670  0.19550  0.87164  1.0000 -0.6914505306
O   O4        1.0  0.79330  0.69550  0.12836  1.0000 -0.6914505306
O   O5        1.0  0.79330  0.69550  0.37164  1.0000 -0.6914505306
O   O6        1.0  0.70670  0.19550  0.62836  1.0000 -0.6914505306
O   O7        1.0  0.29330  0.80450  0.12836  1.0000 -0.6914505306
O   O8        1.0  0.20670  0.30450  0.87164  1.0000 -0.6914505306
O   O9        1.0  0.04900  0.21050  0.66320  1.0000 -0.6297530326
O   O10       1.0  0.45100  0.71050  0.33680  1.0000 -0.6297530326
O   O11       1.0  0.54900  0.28950  0.83680  1.0000 -0.6297530326
O   O12       1.0  0.95100  0.78950  0.16320  1.0000 -0.6297530326
O   O13       1.0  0.95100  0.78950  0.33680  1.0000 -0.6297530326
O   O14       1.0  0.54900  0.28950  0.66320  1.0000 -0.6297530326
O   O15       1.0  0.45100  0.71050  0.16320  1.0000 -0.6297530326
O   O16       1.0  0.04900  0.21050  0.83680  1.0000 -0.6297530326
O   O17       1.0  0.04410  0.28280  0.52270  1.0000 -0.6386850867
O   O18       1.0  0.45590  0.78280  0.47730  1.0000 -0.6386850867
O   O19       1.0  0.54410  0.21720  0.97730  1.0000 -0.6386850867
O   O20       1.0  0.95590  0.71720  0.02270  1.0000 -0.6386850867
O   O21       1.0  0.95590  0.71720  0.47730  1.0000 -0.6386850867
O   O22       1.0  0.54410  0.21720  0.52270  1.0000 -0.6386850867
O   O23       1.0  0.45590  0.78280  0.02270  1.0000 -0.6386850867
O   O24       1.0  0.04410  0.28280  0.97730  1.0000 -0.6386850867
O   O25       1.0  0.20510  0.46740  0.46592  1.0000 -0.0535571052
O   O26       1.0  0.29490  0.96740  0.53408  1.0000 -0.0535571052
O   O27       1.0  0.70510  0.03260  0.03408  1.0000 -0.0535571052
O   O28       1.0  0.79490  0.53260  0.96592  1.0000 -0.0535571052
O   O29       1.0  0.79490  0.53260  0.53408  1.0000 -0.0535571052
O   O30       1.0  0.70510  0.03260  0.46592  1.0000 -0.0535571052
O   O31       1.0  0.29490  0.96740  0.96592  1.0000 -0.0535571052
O   O32       1.0  0.20510  0.46740  0.03408  1.0000 -0.0535571052
O   O33       1.0  0.12640  0.65510  0.39700  1.0000 -0.614859918
O   O34       1.0  0.37360  0.15510  0.60300  1.0000 -0.614859918
O   O35       1.0  0.62640  0.84490  0.10300  1.0000 -0.6153527292
O   O36       1.0  0.87360  0.34490  0.89700  1.0000 -0.614859918
O   O37       1.0  0.87360  0.34490  0.60300  1.0000 -0.614859918
O   O38       1.0  0.62640  0.84490  0.39700  1.0000 -0.6153527292
O   O39       1.0  0.37360  0.15510  0.89700  1.0000 -0.614859918
O   O40       1.0  0.12640  0.65510  0.10300  1.0000 -0.614859918
O   O41       1.0  0.13480  0.26250  0.75000  1.0000 -0.0671350322
O   O42       1.0  0.36520  0.76250  0.25000  1.0000 -0.0671350322
O   O43       1.0  0.63480  0.23750  0.75000  1.0000 -0.0671350322
O   O44       1.0  0.86520  0.73750  0.25000  1.0000 -0.0671350322
O   O45       1.0  0.33840  0.61950  0.43740  1.0000 -0.6686530503
O   O46       1.0  0.16160  0.11950  0.56260  1.0000 -0.6686530503
O   O47       1.0  0.83840  0.88050  0.06260  1.0000 -0.6686530503
O   O48       1.0  0.66160  0.38050  0.93740  1.0000 -0.6686530503
O   O49       1.0  0.66160  0.38050  0.56260  1.0000 -0.6686530503
O   O50       1.0  0.83840  0.88050  0.43740  1.0000 -0.6686530503
O   O51       1.0  0.16160  0.11950  0.93740  1.0000 -0.6686530503
O   O52       1.0  0.33840  0.61950  0.06260  1.0000 -0.6686530503
O   O53       1.0  0.28460  0.33810  0.52669  1.0000 -0.6753471884
O   O54       1.0  0.21540  0.83810  0.47331  1.0000 -0.6753471884
O   O55       1.0  0.78460  0.16190  0.97331  1.0000 -0.6753471884
O   O56       1.0  0.71540  0.66190  0.02669  1.0000 -0.6753471884
O   O57       1.0  0.71540  0.66190  0.47331  1.0000 -0.6753471884
O   O58       1.0  0.78460  0.16190  0.52669  1.0000 -0.6753471884
O   O59       1.0  0.21540  0.83810  0.02669  1.0000 -0.6753471884
O   O60       1.0  0.28460  0.33810  0.97331  1.0000 -0.6753471884
