# DDEC6 charges by PACMAN v1.1 (https://github.com/mtap-research/PACMAN-charge/)
data_2015[U][pts]3[ASR]1
_chemical_formula_sum              "U2 H4 C20 O16"
_cell_length_a       9.42718
_cell_length_b       9.42718
_cell_length_c       12.7708
_cell_angle_alpha    83.3398
_cell_angle_beta     96.6602
_cell_angle_gamma    67.5167

_symmetry_space_group_name_H-M    "P 1"
_symmetry_Int_Tables_number       1

loop_
  _symmetry_equiv_pos_as_xyz
  'x, y, z'

loop_
  _atom_site_type_symbol
  _atom_site_label
  _atom_site_symmetry_multiplicity
  _atom_site_fract_x
  _atom_site_fract_y
  _atom_site_fract_z
  _atom_site_occupancy
  _atom_site_charge
U   U1        1.0  0.52825  0.52825  0.75000  1.0000 2.165685168
U   U2        1.0  0.47175  0.47175  0.25000  1.0000 2.165685168
H   H1        1.0  0.50803  0.01591  0.81728  1.0000 0.1387295336
H   H2        1.0  0.01591  0.50803  0.68272  1.0000 0.1387295336
H   H3        1.0  0.49197  0.98409  0.18272  1.0000 0.1387295336
H   H4        1.0  0.98409  0.49197  0.31728  1.0000 0.1387295336
C   C1        1.0  0.51368  0.26868  0.87660  1.0000 0.5476049692
C   C2        1.0  0.26868  0.51368  0.62340  1.0000 0.5476049692
C   C3        1.0  0.48632  0.73132  0.12340  1.0000 0.5476049692
C   C4        1.0  0.73132  0.48632  0.37660  1.0000 0.5476049692
C   C5        1.0  0.49231  0.88031  0.94740  1.0000 -0.0042434973
C   C6        1.0  0.88031  0.49231  0.55260  1.0000 -0.0042434973
C   C7        1.0  0.50769  0.11969  0.05260  1.0000 -0.0042434973
C   C8        1.0  0.11969  0.50769  0.44740  1.0000 -0.0053882072
C   C9        1.0  0.50976  0.13016  0.94280  1.0000 -0.020942958
C   C10       1.0  0.13016  0.50976  0.55720  1.0000 -0.020942958
C   C11       1.0  0.49024  0.86984  0.05720  1.0000 -0.020942958
C   C12       1.0  0.86984  0.49024  0.44280  1.0000 -0.020942958
C   C13       1.0  0.50394  0.00954  0.89240  1.0000 -0.1018873616
C   C14       1.0  0.00954  0.50394  0.60760  1.0000 -0.1018873616
C   C15       1.0  0.49606  0.99046  0.10760  1.0000 -0.1018873616
C   C16       1.0  0.99046  0.49606  0.39240  1.0000 -0.1018873616
C   C17       1.0  0.49220  0.75560  0.88440  1.0000 0.5703752847
C   C18       1.0  0.75560  0.49220  0.61560  1.0000 0.5703752847
C   C19       1.0  0.50780  0.24440  0.11560  1.0000 0.5703752847
C   C20       1.0  0.24440  0.50780  0.38440  1.0000 0.5703752847
O   O1        1.0  0.54764  0.25944  0.78333  1.0000 -0.563776949
O   O2        1.0  0.25944  0.54764  0.71667  1.0000 -0.563776949
O   O3        1.0  0.45236  0.74056  0.21667  1.0000 -0.563776949
O   O4        1.0  0.74056  0.45236  0.28333  1.0000 -0.563776949
O   O5        1.0  0.61708  0.68468  0.85210  1.0000 -0.5662284582
O   O6        1.0  0.68468  0.61708  0.64790  1.0000 -0.5662284582
O   O7        1.0  0.38292  0.31532  0.14790  1.0000 -0.5662284582
O   O8        1.0  0.31532  0.38292  0.35210  1.0000 -0.5662284582
O   O9        1.0  0.48335  0.39375  0.91275  1.0000 -0.5489228903
O   O10       1.0  0.39375  0.48335  0.58725  1.0000 -0.5489228903
O   O11       1.0  0.51665  0.60625  0.08725  1.0000 -0.5489228903
O   O12       1.0  0.60625  0.51665  0.41275  1.0000 -0.5489228903
O   O13       1.0  0.37584  0.72764  0.85980  1.0000 -0.5332640796
O   O14       1.0  0.72764  0.37584  0.64020  1.0000 -0.5332640796
O   O15       1.0  0.62416  0.27236  0.14020  1.0000 -0.5332640796
O   O16       1.0  0.27236  0.62416  0.35980  1.0000 -0.5332640796
