# DDEC6 charges by PACMAN v1.1 (https://github.com/mtap-research/PACMAN-charge/)
data_2015[Fe][nan]3[ASR]2
_chemical_formula_sum              "Fe8 P8 H8 C12 O56"
_cell_length_a       9.2664
_cell_length_b       15.2043
_cell_length_c       13.5157
_cell_angle_alpha    90
_cell_angle_beta     119.916
_cell_angle_gamma    90

_symmetry_space_group_name_H-M    "P 1"
_symmetry_Int_Tables_number       1

loop_
  _symmetry_equiv_pos_as_xyz
  'x, y, z'

loop_
  _atom_site_type_symbol
  _atom_site_label
  _atom_site_symmetry_multiplicity
  _atom_site_fract_x
  _atom_site_fract_y
  _atom_site_fract_z
  _atom_site_occupancy
  _atom_site_charge
Fe  Fe1       1.0  0.96680  0.11428  0.33480  1.0000 1.2336555455
Fe  Fe2       1.0  0.03320  0.61428  0.16520  1.0000 1.2363537683
Fe  Fe3       1.0  0.03320  0.88572  0.66520  1.0000 1.2336555455
Fe  Fe4       1.0  0.96680  0.38572  0.83480  1.0000 1.2336555455
Fe  Fe5       1.0  0.75220  0.93836  0.00020  1.0000 1.4419458939
Fe  Fe6       1.0  0.24780  0.43836  0.49980  1.0000 1.4419458939
Fe  Fe7       1.0  0.24780  0.06164  0.99980  1.0000 1.4419458939
Fe  Fe8       1.0  0.75220  0.56164  0.50020  1.0000 1.4419458939
P   P1        1.0  0.00410  0.10800  0.10960  1.0000 1.5713837578
P   P2        1.0  0.99590  0.60800  0.39040  1.0000 1.5713837578
P   P3        1.0  0.99590  0.89200  0.89040  1.0000 1.5713837578
P   P4        1.0  0.00410  0.39200  0.60960  1.0000 1.5713837578
P   P5        1.0  0.63290  0.00270  0.18370  1.0000 1.5713837578
P   P6        1.0  0.36710  0.50270  0.31630  1.0000 1.5713837578
P   P7        1.0  0.36710  0.99730  0.81630  1.0000 1.5713837578
P   P8        1.0  0.63290  0.49730  0.68370  1.0000 1.5713837578
H   H1        1.0  0.02830  0.23750  0.10580  1.0000 0.418496622
H   H2        1.0  0.97170  0.73750  0.39420  1.0000 0.418496622
H   H3        1.0  0.97170  0.76250  0.89420  1.0000 0.418496622
H   H4        1.0  0.02830  0.26250  0.60580  1.0000 0.418496622
H   H5        1.0  0.61920  0.90190  0.27350  1.0000 0.4269802033
H   H6        1.0  0.38080  0.40190  0.22650  1.0000 0.4269802033
H   H7        1.0  0.38080  0.09810  0.72650  1.0000 0.4269802033
H   H8        1.0  0.61920  0.59810  0.77350  1.0000 0.4269802033
C   C1        1.0  0.04450  0.96890  0.48120  1.0000 0.4682680998
C   C2        1.0  0.95550  0.46890  0.01880  1.0000 0.4682680998
C   C3        1.0  0.95550  0.03110  0.51880  1.0000 0.4682680998
C   C4        1.0  0.04450  0.53110  0.98120  1.0000 0.4682680998
C   C5        1.0  0.19380  0.25380  0.45560  1.0000 0.4682680998
C   C6        1.0  0.80620  0.75380  0.04440  1.0000 0.4682680998
C   C7        1.0  0.80620  0.74620  0.54440  1.0000 0.4682680998
C   C8        1.0  0.19380  0.24620  0.95560  1.0000 0.4682680998
C   C9        1.0  0.02820  0.29670  0.36910  1.0000 0.4682680998
C   C10       1.0  0.97180  0.79670  0.13090  1.0000 0.4682680998
C   C11       1.0  0.97180  0.70330  0.63090  1.0000 0.4682680998
C   C12       1.0  0.02820  0.20330  0.86910  1.0000 0.4682680998
O   O1        1.0  0.74490  0.08380  0.22650  1.0000 -0.6853458749
O   O2        1.0  0.25510  0.58380  0.27350  1.0000 -0.6853458749
O   O3        1.0  0.25510  0.91620  0.77350  1.0000 -0.6853458749
O   O4        1.0  0.74490  0.41620  0.72650  1.0000 -0.6853458749
O   O5        1.0  0.05640  0.10240  0.23550  1.0000 -0.7110310585
O   O6        1.0  0.94360  0.60240  0.26450  1.0000 -0.7110310585
O   O7        1.0  0.94360  0.89760  0.76450  1.0000 -0.7110310585
O   O8        1.0  0.05640  0.39760  0.73550  1.0000 -0.7110310585
O   O9        1.0  0.90930  0.24540  0.30970  1.0000 -0.4252667592
O   O10       1.0  0.09070  0.74540  0.19030  1.0000 -0.4252667592
O   O11       1.0  0.09070  0.75460  0.69030  1.0000 -0.4252667592
O   O12       1.0  0.90930  0.25460  0.80970  1.0000 -0.4252667592
O   O13       1.0  0.06800  0.99350  0.40170  1.0000 -0.4010484682
O   O14       1.0  0.93200  0.49350  0.09830  1.0000 -0.4010484682
O   O15       1.0  0.93200  0.00650  0.59830  1.0000 -0.4010484682
O   O16       1.0  0.06800  0.50650  0.90170  1.0000 -0.4010484682
O   O17       1.0  0.19390  0.17050  0.45580  1.0000 -0.45673223
O   O18       1.0  0.80610  0.67050  0.04420  1.0000 -0.45673223
O   O19       1.0  0.80610  0.82950  0.54420  1.0000 -0.45673223
O   O20       1.0  0.19390  0.32950  0.95580  1.0000 -0.45673223
O   O21       1.0  0.91000  0.10480  0.46620  1.0000 -0.4504189033
O   O22       1.0  0.09000  0.60480  0.03380  1.0000 -0.4504189033
O   O23       1.0  0.09000  0.89520  0.53380  1.0000 -0.4504189033
O   O24       1.0  0.91000  0.39520  0.96620  1.0000 -0.4504189033
O   O25       1.0  0.85460  0.05230  0.03520  1.0000 -0.7183554934
O   O26       1.0  0.14540  0.55230  0.46480  1.0000 -0.7183554934
O   O27       1.0  0.14540  0.94770  0.96480  1.0000 -0.7183554934
O   O28       1.0  0.85460  0.44770  0.53520  1.0000 -0.7183554934
O   O29       1.0  0.45280  0.03080  0.13680  1.0000 -0.7110310585
O   O30       1.0  0.54720  0.53080  0.36320  1.0000 -0.7110310585
O   O31       1.0  0.54720  0.96920  0.86320  1.0000 -0.7110310585
O   O32       1.0  0.45280  0.46920  0.63680  1.0000 -0.7110310585
O   O33       1.0  0.65540  0.94800  0.09890  1.0000 -0.7683465795
O   O34       1.0  0.34460  0.44800  0.40110  1.0000 -0.7683465795
O   O35       1.0  0.34460  0.05200  0.90110  1.0000 -0.7683465795
O   O36       1.0  0.65540  0.55200  0.59890  1.0000 -0.7683465795
O   O37       1.0  0.15640  0.08670  0.10170  1.0000 -0.7375691997
O   O38       1.0  0.84360  0.58670  0.39830  1.0000 -0.7375691997
O   O39       1.0  0.84360  0.91330  0.89830  1.0000 -0.7375691997
O   O40       1.0  0.15640  0.41330  0.60170  1.0000 -0.7375691997
O   O41       1.0  0.31250  0.30340  0.51750  1.0000 -0.4504189033
O   O42       1.0  0.68750  0.80340  0.98250  1.0000 -0.4504189033
O   O43       1.0  0.68750  0.69660  0.48250  1.0000 -0.4504189033
O   O44       1.0  0.31250  0.19660  0.01750  1.0000 -0.4504189033
O   O45       1.0  0.02580  0.37820  0.36680  1.0000 -0.4447805153
O   O46       1.0  0.97420  0.87820  0.13320  1.0000 -0.4504189033
O   O47       1.0  0.97420  0.62180  0.63320  1.0000 -0.4504189033
O   O48       1.0  0.02580  0.12180  0.86680  1.0000 -0.4504189033
O   O49       1.0  0.95200  0.20380  0.06590  1.0000 -0.5523754002
O   O50       1.0  0.04800  0.70380  0.43410  1.0000 -0.5523754002
O   O51       1.0  0.04800  0.79620  0.93410  1.0000 -0.5523754002
O   O52       1.0  0.95200  0.29620  0.56590  1.0000 -0.5523754002
O   O53       1.0  0.68000  0.94520  0.29200  1.0000 -0.5523754002
O   O54       1.0  0.32000  0.44520  0.20800  1.0000 -0.5523754002
O   O55       1.0  0.32000  0.05480  0.70800  1.0000 -0.5523754002
O   O56       1.0  0.68000  0.55480  0.79200  1.0000 -0.5523754002
