# DDEC6 charges by PACMAN v1.1 (https://github.com/mtap-research/PACMAN-charge/)
data_2015[CuW][nan]3[ASR]1
_chemical_formula_sum              "Cu16 W4 C8 S16 N16"
_cell_length_a       9.877
_cell_length_b       13.566
_cell_length_c       20.342
_cell_angle_alpha    90
_cell_angle_beta     90
_cell_angle_gamma    90

_symmetry_space_group_name_H-M    "P 1"
_symmetry_Int_Tables_number       1

loop_
  _symmetry_equiv_pos_as_xyz
  'x, y, z'

loop_
  _atom_site_type_symbol
  _atom_site_label
  _atom_site_symmetry_multiplicity
  _atom_site_fract_x
  _atom_site_fract_y
  _atom_site_fract_z
  _atom_site_occupancy
  _atom_site_charge
Cu  Cu1       1.0  0.56060  0.09024  0.10350  1.0000 0.4181128208
Cu  Cu2       1.0  0.06060  0.90976  0.39650  1.0000 0.4299809698
Cu  Cu3       1.0  0.93940  0.40976  0.60350  1.0000 0.4374178711
Cu  Cu4       1.0  0.43940  0.59024  0.89650  1.0000 0.4299809698
Cu  Cu5       1.0  0.43940  0.90976  0.89650  1.0000 0.4299809698
Cu  Cu6       1.0  0.93940  0.09024  0.60350  1.0000 0.4181128208
Cu  Cu7       1.0  0.06060  0.59024  0.39650  1.0000 0.4299809698
Cu  Cu8       1.0  0.56060  0.40976  0.10350  1.0000 0.4374178711
Cu  Cu9       1.0  0.82543  0.38658  0.22224  1.0000 0.1787691385
Cu  Cu10      1.0  0.32543  0.61342  0.27776  1.0000 0.1787691385
Cu  Cu11      1.0  0.67457  0.11342  0.72224  1.0000 0.1787691385
Cu  Cu12      1.0  0.17457  0.88658  0.77776  1.0000 0.1787691385
Cu  Cu13      1.0  0.17457  0.61342  0.77776  1.0000 0.1787691385
Cu  Cu14      1.0  0.67457  0.38658  0.72224  1.0000 0.1787691385
Cu  Cu15      1.0  0.32543  0.88658  0.27776  1.0000 0.1787691385
Cu  Cu16      1.0  0.82543  0.11342  0.22224  1.0000 0.1787691385
W   W1        1.0  0.69610  0.25000  0.15276  1.0000 0.5759745005
W   W2        1.0  0.19610  0.75000  0.34724  1.0000 0.5600374404
W   W3        1.0  0.80390  0.25000  0.65276  1.0000 0.5759745005
W   W4        1.0  0.30390  0.75000  0.84724  1.0000 0.5600374404
C   C1        1.0  0.41830  0.97370  0.22050  1.0000 0.1787691385
C   C2        1.0  0.91830  0.02630  0.27950  1.0000 0.1787691385
C   C3        1.0  0.08170  0.52630  0.72050  1.0000 0.1787691385
C   C4        1.0  0.58170  0.47370  0.77950  1.0000 0.1787691385
C   C5        1.0  0.58170  0.02630  0.77950  1.0000 0.1787691385
C   C6        1.0  0.08170  0.97370  0.72050  1.0000 0.1787691385
C   C7        1.0  0.91830  0.47370  0.27950  1.0000 0.1787691385
C   C8        1.0  0.41830  0.52630  0.22050  1.0000 0.1787691385
S   S1        1.0  0.72280  0.25000  0.26186  1.0000 -0.3052645262
S   S2        1.0  0.22280  0.75000  0.23814  1.0000 -0.2928129372
S   S3        1.0  0.77720  0.25000  0.76186  1.0000 -0.3033053216
S   S4        1.0  0.27720  0.75000  0.73814  1.0000 -0.2928129372
S   S5        1.0  0.79460  0.11380  0.11327  1.0000 -0.3403621827
S   S6        1.0  0.29460  0.88620  0.38673  1.0000 -0.3403621827
S   S7        1.0  0.70540  0.38620  0.61327  1.0000 -0.3537759122
S   S8        1.0  0.20540  0.61380  0.88673  1.0000 -0.3403621827
S   S9        1.0  0.20540  0.88620  0.88673  1.0000 -0.3403621827
S   S10       1.0  0.70540  0.11380  0.61327  1.0000 -0.3403621827
S   S11       1.0  0.29460  0.61380  0.38673  1.0000 -0.3403621827
S   S12       1.0  0.79460  0.38620  0.11327  1.0000 -0.3551667269
S   S13       1.0  0.48090  0.25000  0.12480  1.0000 -0.4190030929
S   S14       1.0  0.98090  0.75000  0.37520  1.0000 -0.4055837329
S   S15       1.0  0.01910  0.25000  0.62480  1.0000 -0.4190030929
S   S16       1.0  0.51910  0.75000  0.87520  1.0000 -0.4042326149
N   N1        1.0  0.47990  0.01480  0.18300  1.0000 -0.3403621827
N   N2        1.0  0.97990  0.98520  0.31700  1.0000 -0.3403621827
N   N3        1.0  0.02010  0.48520  0.68300  1.0000 -0.3403621827
N   N4        1.0  0.52010  0.51480  0.81700  1.0000 -0.3403621827
N   N5        1.0  0.52010  0.98520  0.81700  1.0000 -0.3403621827
N   N6        1.0  0.02010  0.01480  0.68300  1.0000 -0.3403621827
N   N7        1.0  0.97990  0.51480  0.31700  1.0000 -0.3403621827
N   N8        1.0  0.47990  0.48520  0.18300  1.0000 -0.3403621827
N   N9        1.0  0.48680  0.97890  0.97710  1.0000 -0.0309104884
N   N10       1.0  0.98680  0.02110  0.52290  1.0000 -0.0309104884
N   N11       1.0  0.01320  0.52110  0.47710  1.0000 -0.0309104884
N   N12       1.0  0.51320  0.47890  0.02290  1.0000 -0.0309104884
N   N13       1.0  0.51320  0.02110  0.02290  1.0000 -0.0309104884
N   N14       1.0  0.01320  0.97890  0.47710  1.0000 -0.0309104884
N   N15       1.0  0.98680  0.47890  0.52290  1.0000 -0.0309104884
N   N16       1.0  0.48680  0.52110  0.97710  1.0000 -0.0309104884
