# DDEC6 charges by PACMAN v1.1 (https://github.com/mtap-research/PACMAN-charge/)
data_2015[Gd][pcu]3[ASR]4
_chemical_formula_sum              "Gd4 H24 C84 N24 O72"
_cell_length_a       14.5899
_cell_length_b       14.5899
_cell_length_c       26.053
_cell_angle_alpha    85.718
_cell_angle_beta     94.282
_cell_angle_gamma    119.286

_symmetry_space_group_name_H-M    "P 1"
_symmetry_Int_Tables_number       1

loop_
  _symmetry_equiv_pos_as_xyz
  'x, y, z'

loop_
  _atom_site_type_symbol
  _atom_site_label
  _atom_site_symmetry_multiplicity
  _atom_site_fract_x
  _atom_site_fract_y
  _atom_site_fract_z
  _atom_site_occupancy
  _atom_site_charge
Gd  Gd1       1.0  0.90404  0.60454  0.99292  1.0000 2.0505534642
Gd  Gd2       1.0  0.60454  0.90404  0.50708  1.0000 2.0505534642
Gd  Gd3       1.0  0.09596  0.39546  0.00708  1.0000 2.0505534642
Gd  Gd4       1.0  0.39546  0.09596  0.49292  1.0000 2.0505534642
H   H1        1.0  0.09760  0.66580  0.86130  1.0000 0.1464518522
H   H2        1.0  0.66580  0.09760  0.63870  1.0000 0.1464518522
H   H3        1.0  0.90240  0.33420  0.13870  1.0000 0.1464518522
H   H4        1.0  0.33420  0.90240  0.36130  1.0000 0.1464518522
H   H5        1.0  0.25880  0.97520  0.88180  1.0000 0.1409056567
H   H6        1.0  0.97520  0.25880  0.61820  1.0000 0.1409056567
H   H7        1.0  0.74120  0.02480  0.11820  1.0000 0.1409056567
H   H8        1.0  0.02480  0.74120  0.38180  1.0000 0.1409056567
H   H9        1.0  0.26810  0.93590  0.61090  1.0000 0.1409056567
H   H10       1.0  0.93590  0.26810  0.88910  1.0000 0.1409056567
H   H11       1.0  0.73190  0.06410  0.38910  1.0000 0.1409056567
H   H12       1.0  0.06410  0.73190  0.11090  1.0000 0.1409056567
H   H13       1.0  0.48930  0.86570  0.66810  1.0000 0.1464518522
H   H14       1.0  0.86570  0.48930  0.83190  1.0000 0.1464518522
H   H15       1.0  0.51070  0.13430  0.33190  1.0000 0.1464518522
H   H16       1.0  0.13430  0.51070  0.16810  1.0000 0.1464518522
H   H17       1.0  0.82960  0.73240  0.12060  1.0000 0.1409056567
H   H18       1.0  0.73240  0.82960  0.37940  1.0000 0.1409056567
H   H19       1.0  0.17040  0.26760  0.87940  1.0000 0.1409056567
H   H20       1.0  0.26760  0.17040  0.62060  1.0000 0.1409056567
H   H21       1.0  0.71270  0.45890  0.20120  1.0000 0.1326304757
H   H22       1.0  0.45890  0.71270  0.29880  1.0000 0.1326304757
H   H23       1.0  0.28730  0.54110  0.79880  1.0000 0.1326304757
H   H24       1.0  0.54110  0.28730  0.70120  1.0000 0.1326304757
C   C1        1.0  0.11690  0.80050  0.93010  1.0000 0.6012854361
C   C2        1.0  0.80050  0.11690  0.56990  1.0000 0.6012854361
C   C3        1.0  0.88310  0.19950  0.06990  1.0000 0.6012854361
C   C4        1.0  0.19950  0.88310  0.43010  1.0000 0.6012854361
C   C5        1.0  0.16840  0.81660  0.87950  1.0000 0.0107169254
C   C6        1.0  0.81660  0.16840  0.62050  1.0000 0.0107169254
C   C7        1.0  0.83160  0.18340  0.12050  1.0000 0.0107169254
C   C8        1.0  0.18340  0.83160  0.37950  1.0000 0.0107169254
C   C9        1.0  0.14420  0.73380  0.84970  1.0000 -0.0898952326
C   C10       1.0  0.73380  0.14420  0.65030  1.0000 -0.0898952326
C   C11       1.0  0.85580  0.26620  0.15030  1.0000 -0.0898952326
C   C12       1.0  0.26620  0.85580  0.34970  1.0000 -0.0898952326
C   C13       1.0  0.18830  0.75050  0.80240  1.0000 0.0313013413
C   C14       1.0  0.75050  0.18830  0.69760  1.0000 0.0313013413
C   C15       1.0  0.81170  0.24950  0.19760  1.0000 0.0313013413
C   C16       1.0  0.24950  0.81170  0.30240  1.0000 0.0313013413
C   C17       1.0  0.26040  0.85080  0.78270  1.0000 -9.41065e-05
C   C18       1.0  0.85080  0.26040  0.71730  1.0000 0.0011210032
C   C19       1.0  0.73960  0.14920  0.21730  1.0000 0.0011210032
C   C20       1.0  0.14920  0.73960  0.28270  1.0000 -9.41065e-05
C   C21       1.0  0.28340  0.93220  0.81500  1.0000 0.0313013413
C   C22       1.0  0.93220  0.28340  0.68500  1.0000 0.0313013413
C   C23       1.0  0.71660  0.06780  0.18500  1.0000 0.0313013413
C   C24       1.0  0.06780  0.71660  0.31500  1.0000 0.0313013413
C   C25       1.0  0.24030  0.91790  0.86190  1.0000 -0.1062104778
C   C26       1.0  0.91790  0.24030  0.63810  1.0000 -0.1034671227
C   C27       1.0  0.75970  0.08210  0.13810  1.0000 -0.1034671227
C   C28       1.0  0.08210  0.75970  0.36190  1.0000 -0.1034671227
C   C29       1.0  0.30340  0.86660  0.73030  1.0000 -0.0071608374
C   C30       1.0  0.86660  0.30340  0.76970  1.0000 -0.0071608374
C   C31       1.0  0.69660  0.13340  0.26970  1.0000 -0.0071608374
C   C32       1.0  0.13340  0.69660  0.23030  1.0000 -0.0071608374
C   C33       1.0  0.25850  0.89430  0.68710  1.0000 0.024398432
C   C34       1.0  0.89430  0.25850  0.81290  1.0000 0.0313013413
C   C35       1.0  0.74150  0.10570  0.31290  1.0000 0.024398432
C   C36       1.0  0.10570  0.74150  0.18710  1.0000 0.024398432
C   C37       1.0  0.29910  0.91510  0.63840  1.0000 -0.1251142762
C   C38       1.0  0.91510  0.29910  0.86160  1.0000 -0.1234441888
C   C39       1.0  0.70090  0.08490  0.36160  1.0000 -0.1234441888
C   C40       1.0  0.08490  0.70090  0.13840  1.0000 -0.1251142762
C   C41       1.0  0.38640  0.90400  0.63150  1.0000 0.0011210032
C   C42       1.0  0.90400  0.38640  0.86850  1.0000 0.0011210032
C   C43       1.0  0.61360  0.09600  0.36850  1.0000 -9.41065e-05
C   C44       1.0  0.09600  0.61360  0.13150  1.0000 0.0011210032
C   C45       1.0  0.43180  0.87500  0.67270  1.0000 -0.1062104778
C   C46       1.0  0.87500  0.43180  0.82730  1.0000 -0.1062104778
C   C47       1.0  0.56820  0.12500  0.32730  1.0000 -0.1034671227
C   C48       1.0  0.12500  0.56820  0.17270  1.0000 -0.1062104778
C   C49       1.0  0.39220  0.85920  0.72130  1.0000 0.0313013413
C   C50       1.0  0.85920  0.39220  0.77870  1.0000 0.0313013413
C   C51       1.0  0.60780  0.14080  0.27870  1.0000 0.0313013413
C   C52       1.0  0.14080  0.60780  0.22130  1.0000 0.0313013413
C   C53       1.0  0.80750  0.54130  0.11430  1.0000 0.6012854361
C   C54       1.0  0.54130  0.80750  0.38570  1.0000 0.6012854361
C   C55       1.0  0.19250  0.45870  0.88570  1.0000 0.6012854361
C   C56       1.0  0.45870  0.19250  0.61430  1.0000 0.6012854361
C   C57       1.0  0.77460  0.58780  0.15450  1.0000 0.0107169254
C   C58       1.0  0.58780  0.77460  0.34550  1.0000 0.0107169254
C   C59       1.0  0.22540  0.41220  0.84550  1.0000 0.0107169254
C   C60       1.0  0.41220  0.22540  0.65450  1.0000 0.0107169254
C   C61       1.0  0.79590  0.69090  0.14930  1.0000 -0.1062104778
C   C62       1.0  0.69090  0.79590  0.35070  1.0000 -0.1062104778
C   C63       1.0  0.20410  0.30910  0.85070  1.0000 -0.1062104778
C   C64       1.0  0.30910  0.20410  0.64930  1.0000 -0.1062104778
C   C65       1.0  0.76720  0.73240  0.18690  1.0000 0.0353803457
C   C66       1.0  0.73240  0.76720  0.31310  1.0000 0.0313013413
C   C67       1.0  0.23280  0.26760  0.81310  1.0000 0.0313013413
C   C68       1.0  0.26760  0.23280  0.68690  1.0000 0.0353803457
C   C69       1.0  0.71630  0.67570  0.23040  1.0000 0.0107169254
C   C70       1.0  0.67570  0.71630  0.26960  1.0000 0.0107169254
C   C71       1.0  0.28370  0.32430  0.76960  1.0000 0.0107169254
C   C72       1.0  0.32430  0.28370  0.73040  1.0000 0.0107169254
C   C73       1.0  0.69610  0.57150  0.23450  1.0000 0.0107169254
C   C74       1.0  0.57150  0.69610  0.26550  1.0000 0.0107169254
C   C75       1.0  0.30390  0.42850  0.76550  1.0000 0.0107169254
C   C76       1.0  0.42850  0.30390  0.73450  1.0000 0.0107169254
C   C77       1.0  0.72600  0.52820  0.19700  1.0000 -0.1234441888
C   C78       1.0  0.52820  0.72600  0.30300  1.0000 -0.1234441888
C   C79       1.0  0.27400  0.47180  0.80300  1.0000 -0.1234441888
C   C80       1.0  0.47180  0.27400  0.69700  1.0000 -0.1234441888
C   C81       1.0  0.43160  0.92280  0.57840  1.0000 0.6691004866
C   C82       1.0  0.92280  0.43160  0.92160  1.0000 0.6691004866
C   C83       1.0  0.56840  0.07720  0.42160  1.0000 0.6691004866
C   C84       1.0  0.07720  0.56840  0.07840  1.0000 0.6691004866
N   N1        1.0  0.15730  0.66010  0.77190  1.0000 0.5097909454
N   N2        1.0  0.66010  0.15730  0.72810  1.0000 0.5097909454
N   N3        1.0  0.84270  0.33990  0.22810  1.0000 0.5097909454
N   N4        1.0  0.33990  0.84270  0.27190  1.0000 0.5097909454
N   N5        1.0  0.36130  0.04090  0.80010  1.0000 0.5097909454
N   N6        1.0  0.04090  0.36130  0.69990  1.0000 0.5097909454
N   N7        1.0  0.63870  0.95910  0.19990  1.0000 0.5097909454
N   N8        1.0  0.95910  0.63870  0.30010  1.0000 0.5097909454
N   N9        1.0  0.16450  0.90370  0.69130  1.0000 0.4986039731
N   N10       1.0  0.90370  0.16450  0.80870  1.0000 0.4986039731
N   N11       1.0  0.83550  0.09630  0.30870  1.0000 0.4986039731
N   N12       1.0  0.09630  0.83550  0.19130  1.0000 0.4986039731
N   N13       1.0  0.45190  0.83810  0.76380  1.0000 0.4986039731
N   N14       1.0  0.83810  0.45190  0.73620  1.0000 0.4986039731
N   N15       1.0  0.54810  0.16190  0.23620  1.0000 0.4986039731
N   N16       1.0  0.16190  0.54810  0.26380  1.0000 0.4986039731
N   N17       1.0  0.64670  0.50310  0.27910  1.0000 0.4986039731
N   N18       1.0  0.50310  0.64670  0.22090  1.0000 0.4986039731
N   N19       1.0  0.35330  0.49690  0.72090  1.0000 0.4986039731
N   N20       1.0  0.49690  0.35330  0.77910  1.0000 0.4986039731
N   N21       1.0  0.79140  0.84260  0.17810  1.0000 0.5097909454
N   N22       1.0  0.84260  0.79140  0.32190  1.0000 0.5097909454
N   N23       1.0  0.20860  0.15740  0.82190  1.0000 0.5097909454
N   N24       1.0  0.15740  0.20860  0.67810  1.0000 0.5097909454
O   O1        1.0  0.06450  0.70750  0.94669  1.0000 -0.6589754946
O   O2        1.0  0.70750  0.06450  0.55331  1.0000 -0.6589754946
O   O3        1.0  0.93550  0.29250  0.05331  1.0000 -0.6589754946
O   O4        1.0  0.29250  0.93550  0.44669  1.0000 -0.6589754946
O   O5        1.0  0.12710  0.88030  0.94969  1.0000 -0.5284066266
O   O6        1.0  0.88030  0.12710  0.55031  1.0000 -0.5284066266
O   O7        1.0  0.87290  0.11970  0.05031  1.0000 -0.5284066266
O   O8        1.0  0.11970  0.87290  0.44969  1.0000 -0.5284066266
O   O9        1.0  0.06460  0.59460  0.77040  1.0000 -0.2916706755
O   O10       1.0  0.59460  0.06460  0.72960  1.0000 -0.2916706755
O   O11       1.0  0.93540  0.40540  0.22960  1.0000 -0.2916706755
O   O12       1.0  0.40540  0.93540  0.27040  1.0000 -0.2916706755
O   O13       1.0  0.37890  0.06370  0.75470  1.0000 -0.3082173831
O   O14       1.0  0.06370  0.37890  0.74530  1.0000 -0.3082173831
O   O15       1.0  0.62110  0.93630  0.24530  1.0000 -0.3082173831
O   O16       1.0  0.93630  0.62110  0.25470  1.0000 -0.3082173831
O   O17       1.0  0.40190  0.10370  0.83390  1.0000 -0.2916706755
O   O18       1.0  0.10370  0.40190  0.66610  1.0000 -0.2916706755
O   O19       1.0  0.59810  0.89630  0.16610  1.0000 -0.2916706755
O   O20       1.0  0.89630  0.59810  0.33390  1.0000 -0.2916706755
O   O21       1.0  0.43520  0.84800  0.80780  1.0000 -0.3204147919
O   O22       1.0  0.84800  0.43520  0.69220  1.0000 -0.3204147919
O   O23       1.0  0.56480  0.15200  0.19220  1.0000 -0.3204147919
O   O24       1.0  0.15200  0.56480  0.30780  1.0000 -0.3204147919
O   O25       1.0  0.52000  0.81820  0.75367  1.0000 -0.2701079986
O   O26       1.0  0.81820  0.52000  0.74633  1.0000 -0.2701079986
O   O27       1.0  0.48000  0.18180  0.24633  1.0000 -0.2701079986
O   O28       1.0  0.18180  0.48000  0.25367  1.0000 -0.2701079986
O   O29       1.0  0.09940  0.84480  0.72250  1.0000 -0.3204147919
O   O30       1.0  0.84480  0.09940  0.77750  1.0000 -0.3204147919
O   O31       1.0  0.90060  0.15520  0.27750  1.0000 -0.3204147919
O   O32       1.0  0.15520  0.90060  0.22250  1.0000 -0.3204147919
O   O33       1.0  0.15410  0.96930  0.66360  1.0000 -0.2993695653
O   O34       1.0  0.96930  0.15410  0.83640  1.0000 -0.2993695653
O   O35       1.0  0.84590  0.03070  0.33640  1.0000 -0.2993695653
O   O36       1.0  0.03070  0.84590  0.16360  1.0000 -0.2993695653
O   O37       1.0  0.83910  0.59790  0.07329  1.0000 -0.726351238
O   O38       1.0  0.59790  0.83910  0.42671  1.0000 -0.726351238
O   O39       1.0  0.16090  0.40210  0.92671  1.0000 -0.726351238
O   O40       1.0  0.40210  0.16090  0.57329  1.0000 -0.726351238
O   O41       1.0  0.80180  0.45520  0.12401  1.0000 -0.5221162504
O   O42       1.0  0.45520  0.80180  0.37599  1.0000 -0.5221162504
O   O43       1.0  0.19820  0.54480  0.87599  1.0000 -0.5221162504
O   O44       1.0  0.54480  0.19820  0.62401  1.0000 -0.5221162504
O   O45       1.0  0.80770  0.87990  0.13430  1.0000 -0.2496505659
O   O46       1.0  0.87990  0.80770  0.36570  1.0000 -0.2496505659
O   O47       1.0  0.19230  0.12010  0.86570  1.0000 -0.2496505659
O   O48       1.0  0.12010  0.19230  0.63430  1.0000 -0.2496505659
O   O49       1.0  0.79320  0.89140  0.21435  1.0000 -0.3284693725
O   O50       1.0  0.89140  0.79320  0.28565  1.0000 -0.3284693725
O   O51       1.0  0.20680  0.10860  0.78565  1.0000 -0.3284693725
O   O52       1.0  0.10860  0.20680  0.71435  1.0000 -0.3284693725
O   O53       1.0  0.60500  0.41120  0.27510  1.0000 -0.2496505659
O   O54       1.0  0.41120  0.60500  0.22490  1.0000 -0.2550922996
O   O55       1.0  0.39500  0.58880  0.72490  1.0000 -0.2496505659
O   O56       1.0  0.58880  0.39500  0.77510  1.0000 -0.2496505659
O   O57       1.0  0.65800  0.54420  0.31980  1.0000 -0.3082173831
O   O58       1.0  0.54420  0.65800  0.18020  1.0000 -0.3082173831
O   O59       1.0  0.34200  0.45580  0.68020  1.0000 -0.3082173831
O   O60       1.0  0.45580  0.34200  0.81980  1.0000 -0.3082173831
O   O61       1.0  0.50450  0.90310  0.57512  1.0000 -0.6651647455
O   O62       1.0  0.90310  0.50450  0.92488  1.0000 -0.6651647455
O   O63       1.0  0.49550  0.09690  0.42488  1.0000 -0.6651647455
O   O64       1.0  0.09690  0.49550  0.07512  1.0000 -0.6589754946
O   O65       1.0  0.39391  0.95889  0.54327  1.0000 -0.6856619335
O   O66       1.0  0.95889  0.39391  0.95673  1.0000 -0.6856619335
O   O67       1.0  0.60609  0.04111  0.45673  1.0000 -0.6856619335
O   O68       1.0  0.04111  0.60609  0.04327  1.0000 -0.6856619335
O   O69       1.0  0.22480  0.65360  0.74960  1.0000 -0.3082173831
O   O70       1.0  0.65360  0.22480  0.75040  1.0000 -0.3082173831
O   O71       1.0  0.77520  0.34640  0.25040  1.0000 -0.3082173831
O   O72       1.0  0.34640  0.77520  0.24960  1.0000 -0.3082173831
