# DDEC6 charges by PACMAN v1.1 (https://github.com/mtap-research/PACMAN-charge/)
data_2015[Zn][pcu]3[ASR]9
_chemical_formula_sum              "Zn16 H132 C180 N12 O52"
_cell_length_a       25.1326
_cell_length_b       25.1326
_cell_length_c       25.1326
_cell_angle_alpha    44.833
_cell_angle_beta     44.833
_cell_angle_gamma    44.833

_symmetry_space_group_name_H-M    "P 1"
_symmetry_Int_Tables_number       1

loop_
  _symmetry_equiv_pos_as_xyz
  'x, y, z'

loop_
  _atom_site_type_symbol
  _atom_site_label
  _atom_site_symmetry_multiplicity
  _atom_site_fract_x
  _atom_site_fract_y
  _atom_site_fract_z
  _atom_site_occupancy
  _atom_site_charge
Zn  Zn1       1.0  0.37319  0.37319  0.37319  1.0000 0.9386924905
Zn  Zn2       1.0  0.43959  0.25348  0.31180  1.0000 0.9386924905
Zn  Zn3       1.0  0.25348  0.31180  0.43959  1.0000 0.9467937949
Zn  Zn4       1.0  0.31180  0.43959  0.25348  1.0000 0.9386924905
Zn  Zn5       1.0  0.81155  0.81155  0.81155  1.0000 0.9467937949
Zn  Zn6       1.0  0.86555  0.93601  0.74616  1.0000 0.9386924905
Zn  Zn7       1.0  0.93601  0.74616  0.86555  1.0000 0.9386924905
Zn  Zn8       1.0  0.74616  0.86555  0.93601  1.0000 0.9386924905
Zn  Zn9       1.0  0.62681  0.62681  0.62681  1.0000 0.9386924905
Zn  Zn10      1.0  0.56041  0.68820  0.74652  1.0000 0.9467937949
Zn  Zn11      1.0  0.68820  0.74652  0.56041  1.0000 0.9467937949
Zn  Zn12      1.0  0.74652  0.56041  0.68820  1.0000 0.9467937949
Zn  Zn13      1.0  0.18845  0.18845  0.18845  1.0000 0.9467937949
Zn  Zn14      1.0  0.13445  0.25384  0.06399  1.0000 0.9386924905
Zn  Zn15      1.0  0.25384  0.06399  0.13445  1.0000 0.9386924905
Zn  Zn16      1.0  0.06399  0.13445  0.25384  1.0000 0.9386924905
H   H1        1.0  0.69020  0.15100  0.25880  1.0000 0.120462379
H   H2        1.0  0.15100  0.25880  0.69020  1.0000 0.120462379
H   H3        1.0  0.25880  0.69020  0.15100  1.0000 0.120462379
H   H4        1.0  0.81920  0.08400  0.25620  1.0000 0.120462379
H   H5        1.0  0.08400  0.25620  0.81920  1.0000 0.120462379
H   H6        1.0  0.25620  0.81920  0.08400  1.0000 0.120462379
H   H7        1.0  0.71150  0.16420  0.41930  1.0000 0.120462379
H   H8        1.0  0.16420  0.41930  0.71150  1.0000 0.120462379
H   H9        1.0  0.41930  0.71150  0.16420  1.0000 0.120462379
H   H10       1.0  0.58240  0.23110  0.42180  1.0000 0.1092987767
H   H11       1.0  0.23110  0.42180  0.58240  1.0000 0.1092987767
H   H12       1.0  0.42180  0.58240  0.23110  1.0000 0.1092987767
H   H13       1.0  0.93330  0.12010  0.21460  1.0000 0.1396099013
H   H14       1.0  0.12010  0.21460  0.93330  1.0000 0.1396099013
H   H15       1.0  0.21460  0.93330  0.12010  1.0000 0.1396099013
H   H16       1.0  0.97880  0.03680  0.27520  1.0000 0.1396099013
H   H17       1.0  0.03680  0.27520  0.97880  1.0000 0.1396099013
H   H18       1.0  0.27520  0.97880  0.03680  1.0000 0.1396099013
H   H19       1.0  0.93810  0.03390  0.24950  1.0000 0.1302752079
H   H20       1.0  0.03390  0.24950  0.93810  1.0000 0.1302752079
H   H21       1.0  0.24950  0.93810  0.03390  1.0000 0.1302752079
H   H22       1.0  0.91090  0.04680  0.49240  1.0000 0.120462379
H   H23       1.0  0.04680  0.49240  0.91090  1.0000 0.120462379
H   H24       1.0  0.49240  0.91090  0.04680  1.0000 0.120462379
H   H25       1.0  0.90600  0.11200  0.36820  1.0000 0.1396099013
H   H26       1.0  0.11200  0.36820  0.90600  1.0000 0.1396099013
H   H27       1.0  0.36820  0.90600  0.11200  1.0000 0.1396099013
H   H28       1.0  0.78930  0.97980  0.48210  1.0000 0.1302752079
H   H29       1.0  0.97980  0.48210  0.78930  1.0000 0.1302752079
H   H30       1.0  0.48210  0.78930  0.97980  1.0000 0.1302752079
H   H31       1.0  0.80480  0.91300  0.59760  1.0000 0.120462379
H   H32       1.0  0.91300  0.59760  0.80480  1.0000 0.120462379
H   H33       1.0  0.59760  0.80480  0.91300  1.0000 0.120462379
H   H34       1.0  0.17370  0.72820  0.75340  1.0000 0.1092987767
H   H35       1.0  0.72820  0.75340  0.17370  1.0000 0.1092987767
H   H36       1.0  0.75340  0.17370  0.72820  1.0000 0.1092987767
H   H37       1.0  0.29810  0.73500  0.68460  1.0000 0.1092987767
H   H38       1.0  0.73500  0.68460  0.29810  1.0000 0.1092987767
H   H39       1.0  0.68460  0.29810  0.73500  1.0000 0.1092987767
H   H40       1.0  0.20490  0.97620  0.53450  1.0000 0.120462379
H   H41       1.0  0.97620  0.53450  0.20490  1.0000 0.120462379
H   H42       1.0  0.53450  0.20490  0.97620  1.0000 0.120462379
H   H43       1.0  0.08040  0.96930  0.60320  1.0000 0.1092987767
H   H44       1.0  0.96930  0.60320  0.08040  1.0000 0.1092987767
H   H45       1.0  0.60320  0.08040  0.96930  1.0000 0.1092987767
H   H46       1.0  0.39700  0.73630  0.59460  1.0000 0.1396099013
H   H47       1.0  0.73630  0.59460  0.39700  1.0000 0.1396099013
H   H48       1.0  0.59460  0.39700  0.73630  1.0000 0.1396099013
H   H49       1.0  0.45270  0.78720  0.51140  1.0000 0.1302752079
H   H50       1.0  0.78720  0.51140  0.45270  1.0000 0.1302752079
H   H51       1.0  0.51140  0.45270  0.78720  1.0000 0.1302752079
H   H52       1.0  0.42950  0.76830  0.59970  1.0000 0.1396099013
H   H53       1.0  0.76830  0.59970  0.42950  1.0000 0.1396099013
H   H54       1.0  0.59970  0.42950  0.76830  1.0000 0.1396099013
H   H55       1.0  0.46020  0.03010  0.38610  1.0000 0.120462379
H   H56       1.0  0.03010  0.38610  0.46020  1.0000 0.120462379
H   H57       1.0  0.38610  0.46020  0.03010  1.0000 0.120462379
H   H58       1.0  0.45510  0.91070  0.43830  1.0000 0.120462379
H   H59       1.0  0.91070  0.43830  0.45510  1.0000 0.120462379
H   H60       1.0  0.43830  0.45510  0.91070  1.0000 0.120462379
H   H61       1.0  0.22370  0.97900  0.61400  1.0000 0.120462379
H   H62       1.0  0.97900  0.61400  0.22370  1.0000 0.120462379
H   H63       1.0  0.61400  0.22370  0.97900  1.0000 0.120462379
H   H64       1.0  0.22890  0.09840  0.56170  1.0000 0.120462379
H   H65       1.0  0.09840  0.56170  0.22890  1.0000 0.120462379
H   H66       1.0  0.56170  0.22890  0.09840  1.0000 0.120462379
H   H67       1.0  0.30980  0.74120  0.84900  1.0000 0.120462379
H   H68       1.0  0.74120  0.84900  0.30980  1.0000 0.120462379
H   H69       1.0  0.84900  0.30980  0.74120  1.0000 0.120462379
H   H70       1.0  0.18080  0.74380  0.91600  1.0000 0.120462379
H   H71       1.0  0.74380  0.91600  0.18080  1.0000 0.120462379
H   H72       1.0  0.91600  0.18080  0.74380  1.0000 0.120462379
H   H73       1.0  0.28850  0.58070  0.83580  1.0000 0.120462379
H   H74       1.0  0.58070  0.83580  0.28850  1.0000 0.120462379
H   H75       1.0  0.83580  0.28850  0.58070  1.0000 0.120462379
H   H76       1.0  0.41760  0.57820  0.76890  1.0000 0.1092987767
H   H77       1.0  0.57820  0.76890  0.41760  1.0000 0.1092987767
H   H78       1.0  0.76890  0.41760  0.57820  1.0000 0.1092987767
H   H79       1.0  0.06670  0.78540  0.87990  1.0000 0.1396099013
H   H80       1.0  0.78540  0.87990  0.06670  1.0000 0.1396099013
H   H81       1.0  0.87990  0.06670  0.78540  1.0000 0.1396099013
H   H82       1.0  0.02120  0.72480  0.96320  1.0000 0.1396099013
H   H83       1.0  0.72480  0.96320  0.02120  1.0000 0.1396099013
H   H84       1.0  0.96320  0.02120  0.72480  1.0000 0.1396099013
H   H85       1.0  0.06190  0.75050  0.96610  1.0000 0.1302752079
H   H86       1.0  0.75050  0.96610  0.06190  1.0000 0.1302752079
H   H87       1.0  0.96610  0.06190  0.75050  1.0000 0.1302752079
H   H88       1.0  0.08910  0.50760  0.95320  1.0000 0.120462379
H   H89       1.0  0.50760  0.95320  0.08910  1.0000 0.120462379
H   H90       1.0  0.95320  0.08910  0.50760  1.0000 0.120462379
H   H91       1.0  0.09400  0.63180  0.88800  1.0000 0.1396099013
H   H92       1.0  0.63180  0.88800  0.09400  1.0000 0.1396099013
H   H93       1.0  0.88800  0.09400  0.63180  1.0000 0.1396099013
H   H94       1.0  0.21070  0.51790  0.02020  1.0000 0.1302752079
H   H95       1.0  0.51790  0.02020  0.21070  1.0000 0.1302752079
H   H96       1.0  0.02020  0.21070  0.51790  1.0000 0.1302752079
H   H97       1.0  0.19520  0.40240  0.08700  1.0000 0.120462379
H   H98       1.0  0.40240  0.08700  0.19520  1.0000 0.1302752079
H   H99       1.0  0.08700  0.19520  0.40240  1.0000 0.120462379
H   H100      1.0  0.82630  0.24660  0.27180  1.0000 0.1092987767
H   H101      1.0  0.24660  0.27180  0.82630  1.0000 0.1092987767
H   H102      1.0  0.27180  0.82630  0.24660  1.0000 0.1092987767
H   H103      1.0  0.70190  0.31540  0.26500  1.0000 0.1092987767
H   H104      1.0  0.31540  0.26500  0.70190  1.0000 0.1092987767
H   H105      1.0  0.26500  0.70190  0.31540  1.0000 0.1092987767
H   H106      1.0  0.79510  0.46550  0.02380  1.0000 0.120462379
H   H107      1.0  0.46550  0.02380  0.79510  1.0000 0.120462379
H   H108      1.0  0.02380  0.79510  0.46550  1.0000 0.120462379
H   H109      1.0  0.91960  0.39680  0.03070  1.0000 0.1092987767
H   H110      1.0  0.39680  0.03070  0.91960  1.0000 0.1092987767
H   H111      1.0  0.03070  0.91960  0.39680  1.0000 0.1092987767
H   H112      1.0  0.60300  0.40540  0.26370  1.0000 0.1396099013
H   H113      1.0  0.40540  0.26370  0.60300  1.0000 0.1396099013
H   H114      1.0  0.26370  0.60300  0.40540  1.0000 0.1396099013
H   H115      1.0  0.54730  0.48860  0.21280  1.0000 0.1302752079
H   H116      1.0  0.48860  0.21280  0.54730  1.0000 0.1302752079
H   H117      1.0  0.21280  0.54730  0.48860  1.0000 0.1302752079
H   H118      1.0  0.57050  0.40030  0.23170  1.0000 0.1396099013
H   H119      1.0  0.40030  0.23170  0.57050  1.0000 0.1396099013
H   H120      1.0  0.23170  0.57050  0.40030  1.0000 0.1396099013
H   H121      1.0  0.53980  0.61390  0.96990  1.0000 0.120462379
H   H122      1.0  0.61390  0.96990  0.53980  1.0000 0.120462379
H   H123      1.0  0.96990  0.53980  0.61390  1.0000 0.120462379
H   H124      1.0  0.54490  0.56170  0.08930  1.0000 0.120462379
H   H125      1.0  0.56170  0.08930  0.54490  1.0000 0.120462379
H   H126      1.0  0.08930  0.54490  0.56170  1.0000 0.120462379
H   H127      1.0  0.77630  0.38600  0.02100  1.0000 0.120462379
H   H128      1.0  0.38600  0.02100  0.77630  1.0000 0.120462379
H   H129      1.0  0.02100  0.77630  0.38600  1.0000 0.120462379
H   H130      1.0  0.77110  0.43830  0.90160  1.0000 0.120462379
H   H131      1.0  0.43830  0.90160  0.77110  1.0000 0.120462379
H   H132      1.0  0.90160  0.77110  0.43830  1.0000 0.120462379
C   C1        1.0  0.53930  0.24320  0.34180  1.0000 0.5788708828
C   C2        1.0  0.24320  0.34180  0.53930  1.0000 0.5788708828
C   C3        1.0  0.34180  0.53930  0.24320  1.0000 0.5788708828
C   C4        1.0  0.62417  0.19737  0.34047  1.0000 -0.0477604464
C   C5        1.0  0.19737  0.34047  0.62417  1.0000 -0.0477604464
C   C6        1.0  0.34047  0.62417  0.19737  1.0000 -0.0477604464
C   C7        1.0  0.69446  0.15366  0.29136  1.0000 -0.088584377
C   C8        1.0  0.15366  0.29136  0.69446  1.0000 -0.088584377
C   C9        1.0  0.29136  0.69446  0.15366  1.0000 -0.088584377
C   C10       1.0  0.77115  0.11385  0.28985  1.0000 -0.2020141431
C   C11       1.0  0.11385  0.28985  0.77115  1.0000 -0.2020141431
C   C12       1.0  0.28985  0.77115  0.11385  1.0000 -0.2020141431
C   C13       1.0  0.77757  0.11777  0.33747  1.0000 0.1781227914
C   C14       1.0  0.11777  0.33747  0.77757  1.0000 0.1781227914
C   C15       1.0  0.33747  0.77757  0.11777  1.0000 0.1781227914
C   C16       1.0  0.70719  0.16149  0.38669  1.0000 -0.2020141431
C   C17       1.0  0.16149  0.38669  0.70719  1.0000 -0.2020141431
C   C18       1.0  0.38669  0.70719  0.16149  1.0000 -0.2020141431
C   C19       1.0  0.63049  0.20129  0.38819  1.0000 -0.1040861381
C   C20       1.0  0.20129  0.38819  0.63049  1.0000 -0.1040861381
C   C21       1.0  0.38819  0.63049  0.20129  1.0000 -0.1040861381
C   C22       1.0  0.93255  0.06685  0.26245  1.0000 -0.3217240669
C   C23       1.0  0.06685  0.26245  0.93255  1.0000 -0.3217240669
C   C24       1.0  0.26245  0.93255  0.06685  1.0000 -0.3217240669
C   C25       1.0  0.85025  0.93945  0.63985  1.0000 0.5965465855
C   C26       1.0  0.93945  0.63985  0.85025  1.0000 0.5965465855
C   C27       1.0  0.63985  0.85025  0.93945  1.0000 0.5965465855
C   C28       1.0  0.85108  0.97908  0.55958  1.0000 -0.0477604464
C   C29       1.0  0.97908  0.55958  0.85108  1.0000 -0.0477604464
C   C30       1.0  0.55958  0.85108  0.97908  1.0000 -0.0477604464
C   C31       1.0  0.88544  0.03354  0.49014  1.0000 -0.0811518265
C   C32       1.0  0.03354  0.49014  0.88544  1.0000 -0.088584377
C   C33       1.0  0.49014  0.88544  0.03354  1.0000 -0.0811518265
C   C34       1.0  0.88496  0.07076  0.41536  1.0000 -0.1658394633
C   C35       1.0  0.07076  0.41536  0.88496  1.0000 -0.1658394633
C   C36       1.0  0.41536  0.88496  0.07076  1.0000 -0.1658394633
C   C37       1.0  0.85410  0.04730  0.41100  1.0000 0.1584194702
C   C38       1.0  0.04730  0.41100  0.85410  1.0000 0.1584194702
C   C39       1.0  0.41100  0.85410  0.04730  1.0000 0.1584194702
C   C40       1.0  0.81717  0.99197  0.48247  1.0000 -0.1820200282
C   C41       1.0  0.99197  0.48247  0.81717  1.0000 -0.1820200282
C   C42       1.0  0.48247  0.81717  0.99197  1.0000 -0.1820200282
C   C43       1.0  0.82243  0.95673  0.55133  1.0000 -0.0811518265
C   C44       1.0  0.95673  0.55133  0.82243  1.0000 -0.0811518265
C   C45       1.0  0.55133  0.82243  0.95673  1.0000 -0.0811518265
C   C46       1.0  0.03436  0.84296  0.73316  1.0000 0.5788708828
C   C47       1.0  0.84296  0.73316  0.03436  1.0000 0.5788708828
C   C48       1.0  0.73316  0.03436  0.84296  1.0000 0.5788708828
C   C49       1.0  0.11535  0.84815  0.68475  1.0000 -0.0440439208
C   C50       1.0  0.84815  0.68475  0.11535  1.0000 -0.0440439208
C   C51       1.0  0.68475  0.11535  0.84815  1.0000 -0.0440439208
C   C52       1.0  0.18003  0.77851  0.70897  1.0000 -0.088584377
C   C53       1.0  0.77851  0.70897  0.18003  1.0000 -0.088584377
C   C54       1.0  0.70897  0.18003  0.77851  1.0000 -0.088584377
C   C55       1.0  0.25396  0.78256  0.66816  1.0000 -0.2069290713
C   C56       1.0  0.78256  0.66816  0.25396  1.0000 -0.2069290713
C   C57       1.0  0.66816  0.25396  0.78256  1.0000 -0.2069290713
C   C58       1.0  0.26323  0.85623  0.60313  1.0000 0.2028039348
C   C59       1.0  0.85623  0.60313  0.26323  1.0000 0.2028039348
C   C60       1.0  0.60313  0.26323  0.85623  1.0000 0.2028039348
C   C61       1.0  0.19861  0.92581  0.57891  1.0000 -0.225904994
C   C62       1.0  0.92581  0.57891  0.19861  1.0000 -0.2248040187
C   C63       1.0  0.57891  0.19861  0.92581  1.0000 -0.225904994
C   C64       1.0  0.12457  0.92177  0.61982  1.0000 -0.0811518265
C   C65       1.0  0.92177  0.61982  0.12457  1.0000 -0.0811518265
C   C66       1.0  0.61982  0.12457  0.92177  1.0000 -0.0811518265
C   C67       1.0  0.40970  0.78120  0.56790  1.0000 -0.342652882
C   C68       1.0  0.78120  0.56790  0.40970  1.0000 -0.342652882
C   C69       1.0  0.56790  0.40970  0.78120  1.0000 -0.342652882
C   C70       1.0  0.35009  0.14989  0.43789  1.0000 0.5965465855
C   C71       1.0  0.14989  0.43789  0.35009  1.0000 0.5965465855
C   C72       1.0  0.43789  0.35009  0.14989  1.0000 0.5965465855
C   C73       1.0  0.34508  0.07548  0.46898  1.0000 -0.0477604464
C   C74       1.0  0.07548  0.46898  0.34508  1.0000 -0.0477604464
C   C75       1.0  0.46898  0.34508  0.07548  1.0000 -0.0477604464
C   C76       1.0  0.41216  0.01976  0.43236  1.0000 -0.0811518265
C   C77       1.0  0.01976  0.43236  0.41216  1.0000 -0.0811518265
C   C78       1.0  0.43236  0.41216  0.01976  1.0000 -0.0811518265
C   C79       1.0  0.40913  0.94883  0.46333  1.0000 -0.2020141431
C   C80       1.0  0.94883  0.46333  0.40913  1.0000 -0.2020141431
C   C81       1.0  0.46333  0.40913  0.94883  1.0000 -0.2020141431
C   C82       1.0  0.33890  0.93360  0.53100  1.0000 0.1744080188
C   C83       1.0  0.93360  0.53100  0.33890  1.0000 0.1744080188
C   C84       1.0  0.53100  0.33890  0.93360  1.0000 0.1744080188
C   C85       1.0  0.27172  0.98932  0.56772  1.0000 -0.2069290713
C   C86       1.0  0.98932  0.56772  0.27172  1.0000 -0.2069290713
C   C87       1.0  0.56772  0.27172  0.98932  1.0000 -0.2069290713
C   C88       1.0  0.27476  0.06036  0.53666  1.0000 -0.0811518265
C   C89       1.0  0.06036  0.53666  0.27476  1.0000 -0.0811518265
C   C90       1.0  0.53666  0.27476  0.06036  1.0000 -0.0811518265
C   C91       1.0  0.46070  0.65820  0.75680  1.0000 0.5788708828
C   C92       1.0  0.65820  0.75680  0.46070  1.0000 0.5788708828
C   C93       1.0  0.75680  0.46070  0.65820  1.0000 0.5788708828
C   C94       1.0  0.37583  0.65953  0.80263  1.0000 -0.0477604464
C   C95       1.0  0.65953  0.80263  0.37583  1.0000 -0.0477604464
C   C96       1.0  0.80263  0.37583  0.65953  1.0000 -0.0477604464
C   C97       1.0  0.30554  0.70864  0.84634  1.0000 -0.088584377
C   C98       1.0  0.70864  0.84634  0.30554  1.0000 -0.088584377
C   C99       1.0  0.84634  0.30554  0.70864  1.0000 -0.088584377
C   C100      1.0  0.22885  0.71015  0.88615  1.0000 -0.2020141431
C   C101      1.0  0.71015  0.88615  0.22885  1.0000 -0.2020141431
C   C102      1.0  0.88615  0.22885  0.71015  1.0000 -0.2020141431
C   C103      1.0  0.22243  0.66253  0.88223  1.0000 0.1781227914
C   C104      1.0  0.66253  0.88223  0.22243  1.0000 0.1781227914
C   C105      1.0  0.88223  0.22243  0.66253  1.0000 0.1781227914
C   C106      1.0  0.29281  0.61331  0.83851  1.0000 -0.2020141431
C   C107      1.0  0.61331  0.83851  0.29281  1.0000 -0.2020141431
C   C108      1.0  0.83851  0.29281  0.61331  1.0000 -0.2020141431
C   C109      1.0  0.36951  0.61181  0.79871  1.0000 -0.1040861381
C   C110      1.0  0.61181  0.79871  0.36951  1.0000 -0.1040861381
C   C111      1.0  0.79871  0.36951  0.61181  1.0000 -0.1040861381
C   C112      1.0  0.06745  0.73755  0.93315  1.0000 -0.3217240669
C   C113      1.0  0.73755  0.93315  0.06745  1.0000 -0.3217240669
C   C114      1.0  0.93315  0.06745  0.73755  1.0000 -0.3217240669
C   C115      1.0  0.14975  0.36015  0.06055  1.0000 0.5965465855
C   C116      1.0  0.36015  0.06055  0.14975  1.0000 0.5965465855
C   C117      1.0  0.06055  0.14975  0.36015  1.0000 0.5965465855
C   C118      1.0  0.14892  0.44042  0.02092  1.0000 -0.0477604464
C   C119      1.0  0.44042  0.02092  0.14892  1.0000 -0.0477604464
C   C120      1.0  0.02092  0.14892  0.44042  1.0000 -0.0477604464
C   C121      1.0  0.11456  0.50986  0.96646  1.0000 -0.088584377
C   C122      1.0  0.50986  0.96646  0.11456  1.0000 -0.0811518265
C   C123      1.0  0.96646  0.11456  0.50986  1.0000 -0.088584377
C   C124      1.0  0.11504  0.58464  0.92924  1.0000 -0.1658394633
C   C125      1.0  0.58464  0.92924  0.11504  1.0000 -0.1658394633
C   C126      1.0  0.92924  0.11504  0.58464  1.0000 -0.1658394633
C   C127      1.0  0.14590  0.58900  0.95270  1.0000 0.1584194702
C   C128      1.0  0.58900  0.95270  0.14590  1.0000 0.1584194702
C   C129      1.0  0.95270  0.14590  0.58900  1.0000 0.1584194702
C   C130      1.0  0.18283  0.51753  0.00803  1.0000 -0.1820200282
C   C131      1.0  0.51753  0.00803  0.18283  1.0000 -0.1820200282
C   C132      1.0  0.00803  0.18283  0.51753  1.0000 -0.1820200282
C   C133      1.0  0.17757  0.44867  0.04327  1.0000 -0.0811518265
C   C134      1.0  0.44867  0.04327  0.17757  1.0000 -0.0811518265
C   C135      1.0  0.04327  0.17757  0.44867  1.0000 -0.0811518265
C   C136      1.0  0.96564  0.26684  0.15704  1.0000 0.5788708828
C   C137      1.0  0.26684  0.15704  0.96564  1.0000 0.5788708828
C   C138      1.0  0.15704  0.96564  0.26684  1.0000 0.5788708828
C   C139      1.0  0.88465  0.31525  0.15185  1.0000 -0.0440439208
C   C140      1.0  0.31525  0.15185  0.88465  1.0000 -0.0440439208
C   C141      1.0  0.15185  0.88465  0.31525  1.0000 -0.0440439208
C   C142      1.0  0.81997  0.29103  0.22149  1.0000 -0.088584377
C   C143      1.0  0.29103  0.22149  0.81997  1.0000 -0.088584377
C   C144      1.0  0.22149  0.81997  0.29103  1.0000 -0.088584377
C   C145      1.0  0.74604  0.33184  0.21744  1.0000 -0.2069290713
C   C146      1.0  0.33184  0.21744  0.74604  1.0000 -0.2069290713
C   C147      1.0  0.21744  0.74604  0.33184  1.0000 -0.2069290713
C   C148      1.0  0.73677  0.39687  0.14377  1.0000 0.2028039348
C   C149      1.0  0.39687  0.14377  0.73677  1.0000 0.2028039348
C   C150      1.0  0.14377  0.73677  0.39687  1.0000 0.2028039348
C   C151      1.0  0.80139  0.42109  0.07419  1.0000 -0.225904994
C   C152      1.0  0.42109  0.07419  0.80139  1.0000 -0.225904994
C   C153      1.0  0.07419  0.80139  0.42109  1.0000 -0.225904994
C   C154      1.0  0.87543  0.38018  0.07823  1.0000 -0.0811518265
C   C155      1.0  0.38018  0.07823  0.87543  1.0000 -0.088584377
C   C156      1.0  0.07823  0.87543  0.38018  1.0000 -0.088584377
C   C157      1.0  0.59030  0.43210  0.21880  1.0000 -0.342652882
C   C158      1.0  0.43210  0.21880  0.59030  1.0000 -0.342652882
C   C159      1.0  0.21880  0.59030  0.43210  1.0000 -0.342652882
C   C160      1.0  0.64991  0.56211  0.85011  1.0000 0.5965465855
C   C161      1.0  0.56211  0.85011  0.64991  1.0000 0.5965465855
C   C162      1.0  0.85011  0.64991  0.56211  1.0000 0.5965465855
C   C163      1.0  0.65492  0.53102  0.92452  1.0000 -0.0477604464
C   C164      1.0  0.53102  0.92452  0.65492  1.0000 -0.0477604464
C   C165      1.0  0.92452  0.65492  0.53102  1.0000 -0.0477604464
C   C166      1.0  0.58784  0.56764  0.98024  1.0000 -0.0811518265
C   C167      1.0  0.56764  0.98024  0.58784  1.0000 -0.0811518265
C   C168      1.0  0.98024  0.58784  0.56764  1.0000 -0.0811518265
C   C169      1.0  0.59087  0.53667  0.05117  1.0000 -0.2020141431
C   C170      1.0  0.53667  0.05117  0.59087  1.0000 -0.2020141431
C   C171      1.0  0.05117  0.59087  0.53667  1.0000 -0.2020141431
C   C172      1.0  0.66110  0.46900  0.06640  1.0000 0.1744080188
C   C173      1.0  0.46900  0.06640  0.66110  1.0000 0.1744080188
C   C174      1.0  0.06640  0.66110  0.46900  1.0000 0.1744080188
C   C175      1.0  0.72828  0.43228  0.01068  1.0000 -0.2069290713
C   C176      1.0  0.43228  0.01068  0.72828  1.0000 -0.2069290713
C   C177      1.0  0.01068  0.72828  0.43228  1.0000 -0.2069290713
C   C178      1.0  0.72524  0.46334  0.93964  1.0000 -0.0811518265
C   C179      1.0  0.46334  0.93964  0.72524  1.0000 -0.0811518265
C   C180      1.0  0.93964  0.72524  0.46334  1.0000 -0.0811518265
N   N1        1.0  0.85433  0.08123  0.33403  1.0000 -0.0811518265
N   N2        1.0  0.08123  0.33403  0.85433  1.0000 -0.0811518265
N   N3        1.0  0.33403  0.85433  0.08123  1.0000 -0.0749840039
N   N4        1.0  0.33566  0.85786  0.56516  1.0000 -0.025974976
N   N5        1.0  0.85786  0.56516  0.33566  1.0000 -0.025974976
N   N6        1.0  0.56516  0.33566  0.85786  1.0000 -0.025974976
N   N7        1.0  0.14567  0.66597  0.91877  1.0000 -0.0811518265
N   N8        1.0  0.66597  0.91877  0.14567  1.0000 -0.0749840039
N   N9        1.0  0.91877  0.14567  0.66597  1.0000 -0.0811518265
N   N10       1.0  0.66434  0.43484  0.14214  1.0000 -0.025974976
N   N11       1.0  0.43484  0.14214  0.66434  1.0000 -0.025974976
N   N12       1.0  0.14214  0.66434  0.43484  1.0000 -0.025974976
O   O1        1.0  0.34478  0.34478  0.34478  1.0000 -1.0304700631
O   O2        1.0  0.84016  0.84016  0.84016  1.0000 -1.0304700631
O   O3        1.0  0.47947  0.29167  0.37917  1.0000 -0.5706546503
O   O4        1.0  0.29167  0.37917  0.47947  1.0000 -0.5706546503
O   O5        1.0  0.37917  0.47947  0.29167  1.0000 -0.5706546503
O   O6        1.0  0.53495  0.22695  0.30825  1.0000 -0.5386247633
O   O7        1.0  0.22695  0.30825  0.53495  1.0000 -0.5386247633
O   O8        1.0  0.30825  0.53495  0.22695  1.0000 -0.5386247633
O   O9        1.0  0.82470  0.88230  0.69840  1.0000 -0.5491774646
O   O10       1.0  0.88230  0.69840  0.82470  1.0000 -0.5491774646
O   O11       1.0  0.69840  0.82470  0.88230  1.0000 -0.5491774646
O   O12       1.0  0.86526  0.97136  0.64666  1.0000 -0.5193817713
O   O13       1.0  0.97136  0.64666  0.86526  1.0000 -0.5193817713
O   O14       1.0  0.64666  0.86526  0.97136  1.0000 -0.5193817713
O   O15       1.0  0.97515  0.91055  0.71335  1.0000 -0.5566838093
O   O16       1.0  0.91055  0.71335  0.97515  1.0000 -0.5491774646
O   O17       1.0  0.71335  0.97515  0.91055  1.0000 -0.5566838093
O   O18       1.0  0.02985  0.77415  0.78755  1.0000 -0.5491774646
O   O19       1.0  0.77415  0.78755  0.02985  1.0000 -0.5491774646
O   O20       1.0  0.78755  0.02985  0.77415  1.0000 -0.5491774646
O   O21       1.0  0.28159  0.20369  0.46729  1.0000 -0.5566838093
O   O22       1.0  0.20369  0.46729  0.28159  1.0000 -0.5566838093
O   O23       1.0  0.46729  0.28159  0.20369  1.0000 -0.5566838093
O   O24       1.0  0.41818  0.15568  0.38378  1.0000 -0.5386247633
O   O25       1.0  0.15568  0.38378  0.41818  1.0000 -0.5386247633
O   O26       1.0  0.38378  0.41818  0.15568  1.0000 -0.5386247633
O   O27       1.0  0.65522  0.65522  0.65522  1.0000 -1.0304700631
O   O28       1.0  0.15984  0.15984  0.15984  1.0000 -1.0304700631
O   O29       1.0  0.52053  0.62083  0.70833  1.0000 -0.5706546503
O   O30       1.0  0.62083  0.70833  0.52053  1.0000 -0.5706546503
O   O31       1.0  0.70833  0.52053  0.62083  1.0000 -0.5706546503
O   O32       1.0  0.46505  0.69175  0.77305  1.0000 -0.5386247633
O   O33       1.0  0.69175  0.77305  0.46505  1.0000 -0.5386247633
O   O34       1.0  0.77305  0.46505  0.69175  1.0000 -0.5386247633
O   O35       1.0  0.17530  0.30160  0.11770  1.0000 -0.5491774646
O   O36       1.0  0.30160  0.11770  0.17530  1.0000 -0.5491774646
O   O37       1.0  0.11770  0.17530  0.30160  1.0000 -0.5491774646
O   O38       1.0  0.13474  0.35334  0.02864  1.0000 -0.5193817713
O   O39       1.0  0.35334  0.02864  0.13474  1.0000 -0.5193817713
O   O40       1.0  0.02864  0.13474  0.35334  1.0000 -0.5193817713
O   O41       1.0  0.02485  0.28665  0.08945  1.0000 -0.5566838093
O   O42       1.0  0.28665  0.08945  0.02485  1.0000 -0.5566838093
O   O43       1.0  0.08945  0.02485  0.28665  1.0000 -0.5566838093
O   O44       1.0  0.97015  0.21245  0.22585  1.0000 -0.5491774646
O   O45       1.0  0.21245  0.22585  0.97015  1.0000 -0.5491774646
O   O46       1.0  0.22585  0.97015  0.21245  1.0000 -0.5491774646
O   O47       1.0  0.71841  0.53271  0.79631  1.0000 -0.5566838093
O   O48       1.0  0.53271  0.79631  0.71841  1.0000 -0.5566838093
O   O49       1.0  0.79631  0.71841  0.53271  1.0000 -0.5566838093
O   O50       1.0  0.58182  0.61622  0.84432  1.0000 -0.5386247633
O   O51       1.0  0.61622  0.84432  0.58182  1.0000 -0.5386247633
O   O52       1.0  0.84432  0.58182  0.61622  1.0000 -0.5386247633
