# DDEC6 charges by PACMAN v1.1 (https://github.com/mtap-research/PACMAN-charge/)
data_2015[Cd][fet]3[ASR]1
_chemical_formula_sum              "Cd4 H72 C96 N24 O16"
_cell_length_a       10.179
_cell_length_b       22.347
_cell_length_c       11.564
_cell_angle_alpha    90
_cell_angle_beta     103.343
_cell_angle_gamma    90

_symmetry_space_group_name_H-M    "P 1"
_symmetry_Int_Tables_number       1

loop_
  _symmetry_equiv_pos_as_xyz
  'x, y, z'

loop_
  _atom_site_type_symbol
  _atom_site_label
  _atom_site_symmetry_multiplicity
  _atom_site_fract_x
  _atom_site_fract_y
  _atom_site_fract_z
  _atom_site_occupancy
  _atom_site_charge
Cd  Cd1       1.0  0.14514  0.90994  0.81323  1.0000 0.8170247965
Cd  Cd2       1.0  0.35486  0.40994  0.18677  1.0000 0.8170247965
Cd  Cd3       1.0  0.85486  0.09006  0.18677  1.0000 0.8170247965
Cd  Cd4       1.0  0.64514  0.59006  0.81323  1.0000 0.8170247965
H   H1        1.0  0.30970  0.21130  0.90430  1.0000 0.1475249472
H   H2        1.0  0.19030  0.71130  0.09570  1.0000 0.1475249472
H   H3        1.0  0.69030  0.78870  0.09570  1.0000 0.1475249472
H   H4        1.0  0.80970  0.28870  0.90430  1.0000 0.1475249472
H   H5        1.0  0.08000  0.12810  0.62020  1.0000 0.1475249472
H   H6        1.0  0.42000  0.62810  0.37980  1.0000 0.1475249472
H   H7        1.0  0.92000  0.87190  0.37980  1.0000 0.1475249472
H   H8        1.0  0.58000  0.37190  0.62020  1.0000 0.1475249472
H   H9        1.0  0.11650  0.30760  0.62100  1.0000 0.1475249472
H   H10       1.0  0.38350  0.80760  0.37900  1.0000 0.1475249472
H   H11       1.0  0.88350  0.69240  0.37900  1.0000 0.1475249472
H   H12       1.0  0.61650  0.19240  0.62100  1.0000 0.1475249472
H   H13       1.0  0.07920  0.05060  0.73820  1.0000 0.1199032493
H   H14       1.0  0.42080  0.55060  0.26180  1.0000 0.1199032493
H   H15       1.0  0.92080  0.94940  0.26180  1.0000 0.1199032493
H   H16       1.0  0.57920  0.44940  0.73820  1.0000 0.1199032493
H   H17       1.0  0.37210  0.01050  0.00950  1.0000 0.1309160806
H   H18       1.0  0.12790  0.51050  0.99050  1.0000 0.1309160806
H   H19       1.0  0.62790  0.98950  0.99050  1.0000 0.1309160806
H   H20       1.0  0.87210  0.48950  0.00950  1.0000 0.1309160806
H   H21       1.0  0.39590  0.11640  0.96860  1.0000 0.1380206795
H   H22       1.0  0.10410  0.61640  0.03140  1.0000 0.1380206795
H   H23       1.0  0.60410  0.88360  0.03140  1.0000 0.1380206795
H   H24       1.0  0.89590  0.38360  0.96860  1.0000 0.1380206795
H   H25       1.0  0.06500  0.14280  0.41690  1.0000 0.1100167997
H   H26       1.0  0.43500  0.64280  0.58310  1.0000 0.1100167997
H   H27       1.0  0.93500  0.85720  0.58310  1.0000 0.1100167997
H   H28       1.0  0.56500  0.35720  0.41690  1.0000 0.1100167997
H   H29       1.0  0.76740  0.24820  0.27480  1.0000 0.1309160806
H   H30       1.0  0.73260  0.74820  0.72520  1.0000 0.1309160806
H   H31       1.0  0.23260  0.75180  0.72520  1.0000 0.1309160806
H   H32       1.0  0.26740  0.25180  0.27480  1.0000 0.1309160806
H   H33       1.0  0.87200  0.28910  0.47030  1.0000 0.1309160806
H   H34       1.0  0.62800  0.78910  0.52970  1.0000 0.1309160806
H   H35       1.0  0.12800  0.71090  0.52970  1.0000 0.1309160806
H   H36       1.0  0.37200  0.21090  0.47030  1.0000 0.1309160806
H   H37       1.0  0.23140  0.29890  0.00160  1.0000 0.1199032493
H   H38       1.0  0.26860  0.79890  0.99840  1.0000 0.1199032493
H   H39       1.0  0.76860  0.70110  0.99840  1.0000 0.1199032493
H   H40       1.0  0.73140  0.20110  0.00160  1.0000 0.1199032493
H   H41       1.0  0.39040  0.44410  0.90380  1.0000 0.1380206795
H   H42       1.0  0.10960  0.94410  0.09620  1.0000 0.1380206795
H   H43       1.0  0.60960  0.55590  0.09620  1.0000 0.1380206795
H   H44       1.0  0.89040  0.05590  0.90380  1.0000 0.1380206795
H   H45       1.0  0.33380  0.37960  0.72850  1.0000 0.1380206795
H   H46       1.0  0.16620  0.87960  0.27150  1.0000 0.1380206795
H   H47       1.0  0.66620  0.62040  0.27150  1.0000 0.1380206795
H   H48       1.0  0.83380  0.12040  0.72850  1.0000 0.1380206795
H   H49       1.0  0.54610  0.88990  0.30530  1.0000 0.1199032493
H   H50       1.0  0.95390  0.38990  0.69470  1.0000 0.1199032493
H   H51       1.0  0.45390  0.11010  0.69470  1.0000 0.1199032493
H   H52       1.0  0.04610  0.61010  0.30530  1.0000 0.1199032493
H   H53       1.0  0.59630  0.95640  0.31380  1.0000 0.1380206795
H   H54       1.0  0.90370  0.45640  0.68620  1.0000 0.1380206795
H   H55       1.0  0.40370  0.04360  0.68620  1.0000 0.1380206795
H   H56       1.0  0.09630  0.54360  0.31380  1.0000 0.1380206795
H   H57       1.0  0.44370  0.94230  0.30580  1.0000 0.1309160806
H   H58       1.0  0.05630  0.44230  0.69420  1.0000 0.1309160806
H   H59       1.0  0.55630  0.05770  0.69420  1.0000 0.1309160806
H   H60       1.0  0.94370  0.55770  0.30580  1.0000 0.1309160806
H   H61       1.0  0.63500  0.90950  0.80030  1.0000 0.1100167997
H   H62       1.0  0.86500  0.40950  0.19970  1.0000 0.1100167997
H   H63       1.0  0.36500  0.09050  0.19970  1.0000 0.1100167997
H   H64       1.0  0.13500  0.59050  0.80030  1.0000 0.1100167997
H   H65       1.0  0.36990  0.91770  0.48460  1.0000 0.1199032493
H   H66       1.0  0.13010  0.41770  0.51540  1.0000 0.1199032493
H   H67       1.0  0.63010  0.08230  0.51540  1.0000 0.1199032493
H   H68       1.0  0.86990  0.58230  0.48460  1.0000 0.1199032493
H   H69       1.0  0.76410  0.93630  0.50180  1.0000 0.1199032493
H   H70       1.0  0.73590  0.43630  0.49820  1.0000 0.1199032493
H   H71       1.0  0.23590  0.06370  0.49820  1.0000 0.1199032493
H   H72       1.0  0.26410  0.56370  0.50180  1.0000 0.1199032493
C   C1        1.0  0.25190  0.21277  0.82920  1.0000 -0.2900301039
C   C2        1.0  0.24810  0.71277  0.17080  1.0000 -0.2900301039
C   C3        1.0  0.74810  0.78723  0.17080  1.0000 -0.2900301039
C   C4        1.0  0.75190  0.28723  0.82920  1.0000 -0.2900301039
C   C5        1.0  0.19880  0.16079  0.77250  1.0000 0.2070582278
C   C6        1.0  0.30120  0.66079  0.22750  1.0000 0.2070582278
C   C7        1.0  0.80120  0.83921  0.22750  1.0000 0.2070582278
C   C8        1.0  0.69880  0.33921  0.77250  1.0000 0.2070582278
C   C9        1.0  0.11580  0.16306  0.65850  1.0000 -0.2900301039
C   C10       1.0  0.38420  0.66306  0.34150  1.0000 -0.2900301039
C   C11       1.0  0.88420  0.83694  0.34150  1.0000 -0.2900301039
C   C12       1.0  0.61580  0.33694  0.65850  1.0000 -0.2900301039
C   C13       1.0  0.08730  0.21796  0.60280  1.0000 0.1971252809
C   C14       1.0  0.41270  0.71796  0.39720  1.0000 0.1971252809
C   C15       1.0  0.91270  0.78204  0.39720  1.0000 0.1971252809
C   C16       1.0  0.58730  0.28204  0.60280  1.0000 0.1971252809
C   C17       1.0  0.13690  0.27090  0.65860  1.0000 -0.2786543377
C   C18       1.0  0.36310  0.77090  0.34140  1.0000 -0.2786543377
C   C19       1.0  0.86310  0.72910  0.34140  1.0000 -0.2786543377
C   C20       1.0  0.63690  0.22910  0.65860  1.0000 -0.2786543377
C   C21       1.0  0.21780  0.26708  0.77270  1.0000 0.1946614526
C   C22       1.0  0.28220  0.76708  0.22730  1.0000 0.1971252809
C   C23       1.0  0.78220  0.73292  0.22730  1.0000 0.1971252809
C   C24       1.0  0.71780  0.23292  0.77270  1.0000 0.1971252809
C   C25       1.0  0.15490  0.05358  0.80080  1.0000 0.1100167997
C   C26       1.0  0.34510  0.55358  0.19920  1.0000 0.1100167997
C   C27       1.0  0.84510  0.94642  0.19920  1.0000 0.1100167997
C   C28       1.0  0.65490  0.44642  0.80080  1.0000 0.1100167997
C   C29       1.0  0.31550  0.03218  0.94930  1.0000 -0.020078033
C   C30       1.0  0.18450  0.53218  0.05070  1.0000 -0.020078033
C   C31       1.0  0.68450  0.96782  0.05070  1.0000 -0.020078033
C   C32       1.0  0.81550  0.46782  0.94930  1.0000 -0.020078033
C   C33       1.0  0.32980  0.09061  0.92730  1.0000 -0.1007709255
C   C34       1.0  0.17020  0.59061  0.07270  1.0000 -0.1007709255
C   C35       1.0  0.67020  0.90939  0.07270  1.0000 -0.1007709255
C   C36       1.0  0.82980  0.40939  0.92730  1.0000 -0.1007709255
C   C37       1.0  0.00370  0.17431  0.40470  1.0000 0.1100167997
C   C38       1.0  0.49630  0.67431  0.59530  1.0000 0.1100167997
C   C39       1.0  0.99630  0.82569  0.59530  1.0000 0.1100167997
C   C40       1.0  0.50370  0.32569  0.40470  1.0000 0.1100167997
C   C41       1.0  0.84150  0.23185  0.32790  1.0000 -0.020078033
C   C42       1.0  0.65850  0.73185  0.67210  1.0000 -0.020078033
C   C43       1.0  0.15850  0.76815  0.67210  1.0000 -0.020078033
C   C44       1.0  0.34150  0.26815  0.32790  1.0000 -0.020078033
C   C45       1.0  0.89880  0.25493  0.43610  1.0000 -0.092852325
C   C46       1.0  0.60120  0.75493  0.56390  1.0000 -0.092852325
C   C47       1.0  0.10120  0.74507  0.56390  1.0000 -0.092852325
C   C48       1.0  0.39880  0.24507  0.43610  1.0000 -0.092852325
C   C49       1.0  0.26410  0.32705  0.95610  1.0000 0.0947574072
C   C50       1.0  0.23590  0.82705  0.04390  1.0000 0.0950807102
C   C51       1.0  0.73590  0.67295  0.04390  1.0000 0.0947574072
C   C52       1.0  0.76410  0.17295  0.95610  1.0000 0.0947574072
C   C53       1.0  0.35110  0.40644  0.90110  1.0000 -0.020078033
C   C54       1.0  0.14890  0.90644  0.09890  1.0000 -0.020078033
C   C55       1.0  0.64890  0.59356  0.09890  1.0000 -0.020078033
C   C56       1.0  0.85110  0.09356  0.90110  1.0000 -0.020078033
C   C57       1.0  0.32020  0.37116  0.80360  1.0000 -0.1007709255
C   C58       1.0  0.17980  0.87116  0.19640  1.0000 -0.1007709255
C   C59       1.0  0.67980  0.62884  0.19640  1.0000 -0.1007709255
C   C60       1.0  0.82020  0.12884  0.80360  1.0000 -0.1050553255
C   C61       1.0  0.86560  0.92854  0.73390  1.0000 0.5257068567
C   C62       1.0  0.63440  0.42854  0.26610  1.0000 0.5257068567
C   C63       1.0  0.13440  0.07146  0.26610  1.0000 0.5257068567
C   C64       1.0  0.36560  0.57146  0.73390  1.0000 0.5257068567
C   C65       1.0  0.36830  0.90984  0.71330  1.0000 0.5410582714
C   C66       1.0  0.13170  0.40984  0.28670  1.0000 0.5410582714
C   C67       1.0  0.63170  0.09016  0.28670  1.0000 0.5410582714
C   C68       1.0  0.86830  0.59016  0.71330  1.0000 0.5410582714
C   C69       1.0  0.53460  0.92887  0.33670  1.0000 -0.4706685252
C   C70       1.0  0.96540  0.42887  0.66330  1.0000 -0.4706685252
C   C71       1.0  0.46540  0.07113  0.66330  1.0000 -0.4706685252
C   C72       1.0  0.03460  0.57113  0.33670  1.0000 -0.4706685252
C   C73       1.0  0.72160  0.92497  0.66210  1.0000 -0.020078033
C   C74       1.0  0.77840  0.42497  0.33790  1.0000 -0.020078033
C   C75       1.0  0.27840  0.07503  0.33790  1.0000 -0.020078033
C   C76       1.0  0.22160  0.57503  0.66210  1.0000 -0.020078033
C   C77       1.0  0.61660  0.91514  0.71850  1.0000 -0.1467147179
C   C78       1.0  0.88340  0.41514  0.28150  1.0000 -0.1467147179
C   C79       1.0  0.38340  0.08486  0.28150  1.0000 -0.1467147179
C   C80       1.0  0.11660  0.58486  0.71850  1.0000 -0.1467147179
C   C81       1.0  0.48370  0.91374  0.65170  1.0000 -0.0097495195
C   C82       1.0  0.01630  0.41374  0.34830  1.0000 -0.0097495195
C   C83       1.0  0.51630  0.08626  0.34830  1.0000 -0.0097495195
C   C84       1.0  0.98370  0.58626  0.65170  1.0000 -0.0097495195
C   C85       1.0  0.45860  0.91886  0.52890  1.0000 -0.1842281826
C   C86       1.0  0.04140  0.41886  0.47110  1.0000 -0.1842281826
C   C87       1.0  0.54140  0.08114  0.47110  1.0000 -0.1842281826
C   C88       1.0  0.95860  0.58114  0.52890  1.0000 -0.1842281826
C   C89       1.0  0.56240  0.92565  0.47060  1.0000 0.1705514334
C   C90       1.0  0.93760  0.42565  0.52940  1.0000 0.1705514334
C   C91       1.0  0.43760  0.07435  0.52940  1.0000 0.1705514334
C   C92       1.0  0.06240  0.57435  0.47060  1.0000 0.1705514334
C   C93       1.0  0.69360  0.92994  0.53910  1.0000 -0.1994763322
C   C94       1.0  0.80640  0.42994  0.46090  1.0000 -0.1994763322
C   C95       1.0  0.30640  0.07006  0.46090  1.0000 -0.1994763322
C   C96       1.0  0.19360  0.57006  0.53910  1.0000 -0.1994763322
N   N1        1.0  0.20510  0.00897  0.87040  1.0000 -0.2692989938
N   N2        1.0  0.29490  0.50897  0.12960  1.0000 -0.2692989938
N   N3        1.0  0.79490  0.99103  0.12960  1.0000 -0.2692989938
N   N4        1.0  0.70510  0.49103  0.87040  1.0000 -0.2692989938
N   N5        1.0  0.22610  0.10458  0.83060  1.0000 -0.0097495195
N   N6        1.0  0.27390  0.60458  0.16940  1.0000 -0.0097495195
N   N7        1.0  0.77390  0.89542  0.16940  1.0000 -0.0097495195
N   N8        1.0  0.72610  0.39542  0.83060  1.0000 -0.0097495195
N   N9        1.0  0.90810  0.18114  0.30770  1.0000 -0.2692989938
N   N10       1.0  0.59190  0.68114  0.69230  1.0000 -0.2692989938
N   N11       1.0  0.09190  0.81886  0.69230  1.0000 -0.2692989938
N   N12       1.0  0.40810  0.31886  0.30770  1.0000 -0.2692989938
N   N13       1.0  0.00300  0.21813  0.48470  1.0000 -0.0038087597
N   N14       1.0  0.49700  0.71813  0.51530  1.0000 -0.0038087597
N   N15       1.0  0.99700  0.78187  0.51530  1.0000 -0.0038087597
N   N16       1.0  0.50300  0.28187  0.48470  1.0000 -0.0038087597
N   N17       1.0  0.31600  0.37842  0.99613  1.0000 -0.2552840419
N   N18       1.0  0.18400  0.87842  0.00387  1.0000 -0.2552840419
N   N19       1.0  0.68400  0.62158  0.00387  1.0000 -0.2552840419
N   N20       1.0  0.81600  0.12158  0.99613  1.0000 -0.2552840419
N   N21       1.0  0.26420  0.31997  0.83921  1.0000 -0.0097495195
N   N22       1.0  0.23580  0.81997  0.16079  1.0000 -0.0097495195
N   N23       1.0  0.73580  0.68003  0.16079  1.0000 -0.0097495195
N   N24       1.0  0.76420  0.18003  0.83921  1.0000 -0.0097495195
O   O1        1.0  0.89510  0.90905  0.83720  1.0000 -0.561447636
O   O2        1.0  0.60490  0.40905  0.16280  1.0000 -0.561447636
O   O3        1.0  0.10490  0.09095  0.16280  1.0000 -0.561447636
O   O4        1.0  0.39510  0.59095  0.83720  1.0000 -0.561447636
O   O5        1.0  0.95289  0.94932  0.68267  1.0000 -0.561447636
O   O6        1.0  0.54711  0.44932  0.31733  1.0000 -0.561447636
O   O7        1.0  0.04711  0.05068  0.31733  1.0000 -0.561447636
O   O8        1.0  0.45289  0.55068  0.68267  1.0000 -0.561447636
O   O9        1.0  0.38710  0.88800  0.81573  1.0000 -0.5779560812
O   O10       1.0  0.11290  0.38800  0.18427  1.0000 -0.5779560812
O   O11       1.0  0.61290  0.11200  0.18427  1.0000 -0.5779560812
O   O12       1.0  0.88710  0.61200  0.81573  1.0000 -0.5779560812
O   O13       1.0  0.25579  0.93052  0.65970  1.0000 -0.5444073386
O   O14       1.0  0.24421  0.43052  0.34030  1.0000 -0.5444073386
O   O15       1.0  0.74421  0.06948  0.34030  1.0000 -0.5444073386
O   O16       1.0  0.75579  0.56948  0.65970  1.0000 -0.5444073386
