# DDEC6 charges by PACMAN v1.1 (https://github.com/mtap-research/PACMAN-charge/)
data_2015[Cu][nbo]3[ASR]1
_chemical_formula_sum              "Cu6 H24 C84 N24 O72"
_cell_length_a       26.6037
_cell_length_b       26.6037
_cell_length_c       26.6037
_cell_angle_alpha    118.161
_cell_angle_beta     118.161
_cell_angle_gamma    118.161

_symmetry_space_group_name_H-M    "P 1"
_symmetry_Int_Tables_number       1

loop_
  _symmetry_equiv_pos_as_xyz
  'x, y, z'

loop_
  _atom_site_type_symbol
  _atom_site_label
  _atom_site_symmetry_multiplicity
  _atom_site_fract_x
  _atom_site_fract_y
  _atom_site_fract_z
  _atom_site_occupancy
  _atom_site_charge
Cu  Cu1       1.0  0.57369  0.57367  0.10978  1.0000 0.8800042292
Cu  Cu2       1.0  0.57367  0.10978  0.57369  1.0000 0.8800042292
Cu  Cu3       1.0  0.10978  0.57369  0.57367  1.0000 0.8800042292
Cu  Cu4       1.0  0.42631  0.42633  0.89022  1.0000 0.8800042292
Cu  Cu5       1.0  0.42633  0.89022  0.42631  1.0000 0.8800042292
Cu  Cu6       1.0  0.89022  0.42631  0.42633  1.0000 0.8800042292
H   H1        1.0  0.23800  0.10510  0.69500  1.0000 0.160215563
H   H2        1.0  0.10510  0.69500  0.23800  1.0000 0.160215563
H   H3        1.0  0.69500  0.23800  0.10510  1.0000 0.160215563
H   H4        1.0  0.76200  0.89490  0.30500  1.0000 0.160215563
H   H5        1.0  0.89490  0.30500  0.76200  1.0000 0.160215563
H   H6        1.0  0.30500  0.76200  0.89490  1.0000 0.160215563
H   H7        1.0  0.45880  0.32540  0.02430  1.0000 0.160215563
H   H8        1.0  0.32540  0.02430  0.45880  1.0000 0.160215563
H   H9        1.0  0.02430  0.45880  0.32540  1.0000 0.160215563
H   H10       1.0  0.54120  0.67460  0.97570  1.0000 0.160215563
H   H11       1.0  0.67460  0.97570  0.54120  1.0000 0.160215563
H   H12       1.0  0.97570  0.54120  0.67460  1.0000 0.160215563
H   H13       1.0  0.30590  0.89600  0.76330  1.0000 0.160215563
H   H14       1.0  0.89600  0.76330  0.30590  1.0000 0.160215563
H   H15       1.0  0.76330  0.30590  0.89600  1.0000 0.160215563
H   H16       1.0  0.69410  0.10400  0.23670  1.0000 0.160215563
H   H17       1.0  0.10400  0.23670  0.69410  1.0000 0.160215563
H   H18       1.0  0.23670  0.69410  0.10400  1.0000 0.160215563
H   H19       1.0  0.97630  0.67520  0.54150  1.0000 0.160215563
H   H20       1.0  0.67520  0.54150  0.97630  1.0000 0.160215563
H   H21       1.0  0.54150  0.97630  0.67520  1.0000 0.160215563
H   H22       1.0  0.02370  0.32480  0.45850  1.0000 0.160215563
H   H23       1.0  0.32480  0.45850  0.02370  1.0000 0.160215563
H   H24       1.0  0.45850  0.02370  0.32480  1.0000 0.160215563
C   C1        1.0  0.40970  0.33096  0.91634  1.0000 0.5934244961
C   C2        1.0  0.33096  0.91634  0.40970  1.0000 0.5934244961
C   C3        1.0  0.91634  0.40970  0.33096  1.0000 0.5934244961
C   C4        1.0  0.59030  0.66904  0.08366  1.0000 0.5934244961
C   C5        1.0  0.66904  0.08366  0.59030  1.0000 0.5934244961
C   C6        1.0  0.08366  0.59030  0.66904  1.0000 0.5934244961
C   C7        1.0  0.35933  0.23170  0.86827  1.0000 0.0093859586
C   C8        1.0  0.23170  0.86827  0.35933  1.0000 0.0093859586
C   C9        1.0  0.86827  0.35933  0.23170  1.0000 0.0093859586
C   C10       1.0  0.64067  0.76830  0.13173  1.0000 0.0093859586
C   C11       1.0  0.76830  0.13173  0.64067  1.0000 0.0093859586
C   C12       1.0  0.13173  0.64067  0.76830  1.0000 0.0093859586
C   C13       1.0  0.22050  0.95179  0.73291  1.0000 0.0093859586
C   C14       1.0  0.95179  0.73291  0.22050  1.0000 0.0093859586
C   C15       1.0  0.73291  0.22050  0.95179  1.0000 0.0093859586
C   C16       1.0  0.77950  0.04821  0.26709  1.0000 0.0093859586
C   C17       1.0  0.04821  0.26709  0.77950  1.0000 0.0093859586
C   C18       1.0  0.26709  0.77950  0.04821  1.0000 0.0093859586
C   C19       1.0  0.22466  0.03034  0.70510  1.0000 0.039896792
C   C20       1.0  0.03034  0.70510  0.22466  1.0000 0.039896792
C   C21       1.0  0.70510  0.22466  0.03034  1.0000 0.039896792
C   C22       1.0  0.77534  0.96966  0.29490  1.0000 0.039896792
C   C23       1.0  0.96966  0.29490  0.77534  1.0000 0.039896792
C   C24       1.0  0.29490  0.77534  0.96966  1.0000 0.039896792
C   C25       1.0  0.26664  0.04818  0.77968  1.0000 0.0093859586
C   C26       1.0  0.04818  0.77968  0.26664  1.0000 0.0093859586
C   C27       1.0  0.77968  0.26664  0.04818  1.0000 0.0093859586
C   C28       1.0  0.73336  0.95182  0.22032  1.0000 0.0093859586
C   C29       1.0  0.95182  0.22032  0.73336  1.0000 0.0093859586
C   C30       1.0  0.22032  0.73336  0.95182  1.0000 0.0093859586
C   C31       1.0  0.26893  0.12008  0.74749  1.0000 -0.120711092
C   C32       1.0  0.12008  0.74749  0.26893  1.0000 -0.120711092
C   C33       1.0  0.74749  0.26893  0.12008  1.0000 -0.120711092
C   C34       1.0  0.73107  0.87992  0.25251  1.0000 -0.120711092
C   C35       1.0  0.87992  0.25251  0.73107  1.0000 -0.120711092
C   C36       1.0  0.25251  0.73107  0.87992  1.0000 -0.120711092
C   C37       1.0  0.40155  0.25211  0.94454  1.0000 -0.1308084905
C   C38       1.0  0.25211  0.94454  0.40155  1.0000 -0.1354446739
C   C39       1.0  0.94454  0.40155  0.25211  1.0000 -0.1308084905
C   C40       1.0  0.59845  0.74789  0.05546  1.0000 -0.1308084905
C   C41       1.0  0.74789  0.05546  0.59845  1.0000 -0.1308084905
C   C42       1.0  0.05546  0.59845  0.74789  1.0000 -0.1308084905
C   C43       1.0  0.35657  0.16068  0.89945  1.0000 0.0477570539
C   C44       1.0  0.16068  0.89945  0.35657  1.0000 0.0477570539
C   C45       1.0  0.89945  0.35657  0.16068  1.0000 0.0477570539
C   C46       1.0  0.64343  0.83932  0.10055  1.0000 0.0477570539
C   C47       1.0  0.83932  0.10055  0.64343  1.0000 0.0477570539
C   C48       1.0  0.10055  0.64343  0.83932  1.0000 0.0477570539
C   C49       1.0  0.25313  0.88051  0.73166  1.0000 -0.120711092
C   C50       1.0  0.88051  0.73166  0.25313  1.0000 -0.120711092
C   C51       1.0  0.73166  0.25313  0.88051  1.0000 -0.120711092
C   C52       1.0  0.74687  0.11949  0.26834  1.0000 -0.120711092
C   C53       1.0  0.11949  0.26834  0.74687  1.0000 -0.120711092
C   C54       1.0  0.26834  0.74687  0.11949  1.0000 -0.120711092
C   C55       1.0  0.13051  0.76727  0.63932  1.0000 0.0048090104
C   C56       1.0  0.76727  0.63932  0.13051  1.0000 0.0048090104
C   C57       1.0  0.63932  0.13051  0.76727  1.0000 0.0048090104
C   C58       1.0  0.86949  0.23273  0.36068  1.0000 0.0048090104
C   C59       1.0  0.23273  0.36068  0.86949  1.0000 0.0048090104
C   C60       1.0  0.36068  0.86949  0.23273  1.0000 0.0048090104
C   C61       1.0  0.29447  0.96935  0.77518  1.0000 0.039896792
C   C62       1.0  0.96935  0.77518  0.29447  1.0000 0.039896792
C   C63       1.0  0.77518  0.29447  0.96935  1.0000 0.039896792
C   C64       1.0  0.70553  0.03065  0.22482  1.0000 0.039896792
C   C65       1.0  0.03065  0.22482  0.70553  1.0000 0.039896792
C   C66       1.0  0.22482  0.70553  0.03065  1.0000 0.039896792
C   C67       1.0  0.05593  0.74829  0.59848  1.0000 -0.120711092
C   C68       1.0  0.74829  0.59848  0.05593  1.0000 -0.120711092
C   C69       1.0  0.59848  0.05593  0.74829  1.0000 -0.120711092
C   C70       1.0  0.94407  0.25171  0.40152  1.0000 -0.120711092
C   C71       1.0  0.25171  0.40152  0.94407  1.0000 -0.1308084905
C   C72       1.0  0.40152  0.94407  0.25171  1.0000 -0.120711092
C   C73       1.0  0.10008  0.83872  0.64270  1.0000 0.0477570539
C   C74       1.0  0.83872  0.64270  0.10008  1.0000 0.0477570539
C   C75       1.0  0.64270  0.10008  0.83872  1.0000 0.0477570539
C   C76       1.0  0.89992  0.16128  0.35730  1.0000 0.0477570539
C   C77       1.0  0.16128  0.35730  0.89992  1.0000 0.0477570539
C   C78       1.0  0.35730  0.89992  0.16128  1.0000 0.0477570539
C   C79       1.0  0.08346  0.66889  0.59005  1.0000 0.5934244961
C   C80       1.0  0.66889  0.59005  0.08346  1.0000 0.5934244961
C   C81       1.0  0.59005  0.08346  0.66889  1.0000 0.5934244961
C   C82       1.0  0.91654  0.33111  0.40995  1.0000 0.5934244961
C   C83       1.0  0.33111  0.40995  0.91654  1.0000 0.5934244961
C   C84       1.0  0.40995  0.91654  0.33111  1.0000 0.5934244961
N   N1        1.0  0.12590  0.91521  0.57789  1.0000 0.5076215337
N   N2        1.0  0.91521  0.57789  0.12590  1.0000 0.5076215337
N   N3        1.0  0.57789  0.12590  0.91521  1.0000 0.5076215337
N   N4        1.0  0.87410  0.08479  0.42211  1.0000 0.5076215337
N   N5        1.0  0.08479  0.42211  0.87410  1.0000 0.5076215337
N   N6        1.0  0.42211  0.87410  0.08479  1.0000 0.5076215337
N   N7        1.0  0.02524  0.81988  0.61098  1.0000 0.5076215337
N   N8        1.0  0.81988  0.61098  0.02524  1.0000 0.5076215337
N   N9        1.0  0.61098  0.02524  0.81988  1.0000 0.5076215337
N   N10       1.0  0.97476  0.18012  0.38902  1.0000 0.5076215337
N   N11       1.0  0.18012  0.38902  0.97476  1.0000 0.5076215337
N   N12       1.0  0.38902  0.97476  0.18012  1.0000 0.5076215337
N   N13       1.0  0.42199  0.08482  0.87389  1.0000 0.5076215337
N   N14       1.0  0.08482  0.87389  0.42199  1.0000 0.5076215337
N   N15       1.0  0.87389  0.42199  0.08482  1.0000 0.5076215337
N   N16       1.0  0.57801  0.91518  0.12611  1.0000 0.5076215337
N   N17       1.0  0.91518  0.12611  0.57801  1.0000 0.5076215337
N   N18       1.0  0.12611  0.57801  0.91518  1.0000 0.5076215337
N   N19       1.0  0.39067  0.18178  0.97625  1.0000 0.5076215337
N   N20       1.0  0.18178  0.97625  0.39067  1.0000 0.5076215337
N   N21       1.0  0.97625  0.39067  0.18178  1.0000 0.5076215337
N   N22       1.0  0.60933  0.81822  0.02375  1.0000 0.5076215337
N   N23       1.0  0.81822  0.02375  0.60933  1.0000 0.5076215337
N   N24       1.0  0.02375  0.60933  0.81822  1.0000 0.5076215337
O   O1        1.0  0.49075  0.43023  0.02702  1.0000 -0.519115138
O   O2        1.0  0.43023  0.02702  0.49075  1.0000 -0.519115138
O   O3        1.0  0.02702  0.49075  0.43023  1.0000 -0.519115138
O   O4        1.0  0.50925  0.56977  0.97298  1.0000 -0.519115138
O   O5        1.0  0.56977  0.97298  0.50925  1.0000 -0.519115138
O   O6        1.0  0.97298  0.50925  0.56977  1.0000 -0.519115138
O   O7        1.0  0.04891  0.87655  0.50244  1.0000 -0.2615162398
O   O8        1.0  0.87655  0.50244  0.04891  1.0000 -0.2615162398
O   O9        1.0  0.50244  0.04891  0.87655  1.0000 -0.2615162398
O   O10       1.0  0.95109  0.12345  0.49756  1.0000 -0.2615162398
O   O11       1.0  0.12345  0.49756  0.95109  1.0000 -0.2698541214
O   O12       1.0  0.49756  0.95109  0.12345  1.0000 -0.2615162398
O   O13       1.0  0.11172  0.85039  0.54349  1.0000 -0.3120955365
O   O14       1.0  0.85039  0.54349  0.11172  1.0000 -0.3174318552
O   O15       1.0  0.54349  0.11172  0.85039  1.0000 -0.3174318552
O   O16       1.0  0.88828  0.14961  0.45651  1.0000 -0.3174318552
O   O17       1.0  0.14961  0.45651  0.88828  1.0000 -0.3174318552
O   O18       1.0  0.45651  0.88828  0.14961  1.0000 -0.3174318552
O   O19       1.0  0.36545  0.30567  0.84128  1.0000 -0.519115138
O   O20       1.0  0.30567  0.84128  0.36545  1.0000 -0.519115138
O   O21       1.0  0.84128  0.36545  0.30567  1.0000 -0.519115138
O   O22       1.0  0.63455  0.69433  0.15872  1.0000 -0.519115138
O   O23       1.0  0.69433  0.15872  0.63455  1.0000 -0.519115138
O   O24       1.0  0.15872  0.63455  0.69433  1.0000 -0.519115138
O   O25       1.0  0.97243  0.56921  0.50856  1.0000 -0.519115138
O   O26       1.0  0.56921  0.50856  0.97243  1.0000 -0.519115138
O   O27       1.0  0.50856  0.97243  0.56921  1.0000 -0.519115138
O   O28       1.0  0.02757  0.43079  0.49144  1.0000 -0.519115138
O   O29       1.0  0.43079  0.49144  0.02757  1.0000 -0.519115138
O   O30       1.0  0.49144  0.02757  0.43079  1.0000 -0.519115138
O   O31       1.0  0.15861  0.69418  0.63421  1.0000 -0.519115138
O   O32       1.0  0.69418  0.63421  0.15861  1.0000 -0.519115138
O   O33       1.0  0.63421  0.15861  0.69418  1.0000 -0.519115138
O   O34       1.0  0.84139  0.30582  0.36579  1.0000 -0.519115138
O   O35       1.0  0.30582  0.36579  0.84139  1.0000 -0.519115138
O   O36       1.0  0.36579  0.84139  0.30582  1.0000 -0.519115138
O   O37       1.0  0.06095  0.90040  0.65675  1.0000 -0.3288911879
O   O38       1.0  0.90040  0.65675  0.06095  1.0000 -0.3288911879
O   O39       1.0  0.65675  0.06095  0.90040  1.0000 -0.3288911879
O   O40       1.0  0.93905  0.09960  0.34325  1.0000 -0.3174318552
O   O41       1.0  0.09960  0.34325  0.93905  1.0000 -0.3174318552
O   O42       1.0  0.34325  0.93905  0.09960  1.0000 -0.3288911879
O   O43       1.0  0.91570  0.71400  0.52280  1.0000 -0.2811355372
O   O44       1.0  0.71400  0.52280  0.91570  1.0000 -0.2811355372
O   O45       1.0  0.52280  0.91570  0.71400  1.0000 -0.2811355372
O   O46       1.0  0.08430  0.28600  0.47720  1.0000 -0.2811355372
O   O47       1.0  0.28600  0.47720  0.08430  1.0000 -0.2698541214
O   O48       1.0  0.47720  0.08430  0.28600  1.0000 -0.2811355372
O   O49       1.0  0.49838  0.12419  0.95223  1.0000 -0.2811355372
O   O50       1.0  0.12419  0.95223  0.49838  1.0000 -0.2860738813
O   O51       1.0  0.95223  0.49838  0.12419  1.0000 -0.2811355372
O   O52       1.0  0.50162  0.87581  0.04777  1.0000 -0.2860738813
O   O53       1.0  0.87581  0.04777  0.50162  1.0000 -0.2811355372
O   O54       1.0  0.04777  0.50162  0.87581  1.0000 -0.2811355372
O   O55       1.0  0.45664  0.14974  0.88832  1.0000 -0.3120955365
O   O56       1.0  0.14974  0.88832  0.45664  1.0000 -0.3120955365
O   O57       1.0  0.88832  0.45664  0.14974  1.0000 -0.3120955365
O   O58       1.0  0.54336  0.85026  0.11168  1.0000 -0.3120955365
O   O59       1.0  0.85026  0.11168  0.54336  1.0000 -0.3120955365
O   O60       1.0  0.11168  0.54336  0.85026  1.0000 -0.3120955365
O   O61       1.0  0.34216  0.09881  0.93823  1.0000 -0.3288911879
O   O62       1.0  0.09881  0.93823  0.34216  1.0000 -0.3288911879
O   O63       1.0  0.93823  0.34216  0.09881  1.0000 -0.3288911879
O   O64       1.0  0.65784  0.90119  0.06177  1.0000 -0.3288911879
O   O65       1.0  0.90119  0.06177  0.65784  1.0000 -0.3288911879
O   O66       1.0  0.06177  0.65784  0.90119  1.0000 -0.3288911879
O   O67       1.0  0.47525  0.28445  0.08330  1.0000 -0.2615162398
O   O68       1.0  0.28445  0.08330  0.47525  1.0000 -0.2615162398
O   O69       1.0  0.08330  0.47525  0.28445  1.0000 -0.2698541214
O   O70       1.0  0.52475  0.71555  0.91670  1.0000 -0.2698541214
O   O71       1.0  0.71555  0.91670  0.52475  1.0000 -0.2698541214
O   O72       1.0  0.91670  0.52475  0.71555  1.0000 -0.2698541214
