# DDEC6 charges by PACMAN v1.1 (https://github.com/mtap-research/PACMAN-charge/)
data_2015[CuMo][nan]3[ASR]1
_chemical_formula_sum              "Cu12 Mo12 H96 C160 N32 O32"
_cell_length_a       9.5879
_cell_length_b       21.8444
_cell_length_c       21.8453
_cell_angle_alpha    90
_cell_angle_beta     98.785
_cell_angle_gamma    90

_symmetry_space_group_name_H-M    "P 1"
_symmetry_Int_Tables_number       1

loop_
  _symmetry_equiv_pos_as_xyz
  'x, y, z'

loop_
  _atom_site_type_symbol
  _atom_site_label
  _atom_site_symmetry_multiplicity
  _atom_site_fract_x
  _atom_site_fract_y
  _atom_site_fract_z
  _atom_site_occupancy
  _atom_site_charge
Cu  Cu1       1.0  0.94621  0.68985  0.85159  1.0000 0.9316612596
Cu  Cu2       1.0  0.44621  0.81015  0.85159  1.0000 0.9316612596
Cu  Cu3       1.0  0.05379  0.31015  0.14841  1.0000 0.9316612596
Cu  Cu4       1.0  0.55379  0.18985  0.14841  1.0000 0.9316612596
Cu  Cu5       1.0  0.45376  0.67182  0.67162  1.0000 0.8869605477
Cu  Cu6       1.0  0.95376  0.82818  0.67162  1.0000 0.8869605477
Cu  Cu7       1.0  0.54624  0.32818  0.32838  1.0000 0.8869605477
Cu  Cu8       1.0  0.04624  0.17182  0.32838  1.0000 0.8869605477
Cu  Cu9       1.0  0.49684  0.76040  0.25211  1.0000 0.5414190506
Cu  Cu10      1.0  0.99684  0.73960  0.25211  1.0000 0.5346637781
Cu  Cu11      1.0  0.50316  0.23960  0.74789  1.0000 0.5414190506
Cu  Cu12      1.0  0.00316  0.26040  0.74789  1.0000 0.5414190506
Mo  Mo1       1.0  0.88018  0.67308  0.64934  1.0000 0.9134101088
Mo  Mo2       1.0  0.38018  0.82692  0.64934  1.0000 0.9134101088
Mo  Mo3       1.0  0.11982  0.32692  0.35066  1.0000 0.9134101088
Mo  Mo4       1.0  0.61982  0.17308  0.35066  1.0000 0.9134101088
Mo  Mo5       1.0  0.54439  0.66313  0.84041  1.0000 1.8737386281
Mo  Mo6       1.0  0.04439  0.83687  0.84041  1.0000 1.8859839256
Mo  Mo7       1.0  0.45561  0.33687  0.15959  1.0000 1.8737386281
Mo  Mo8       1.0  0.95561  0.16313  0.15959  1.0000 1.8787295635
Mo  Mo9       1.0  0.68828  0.75092  0.73971  1.0000 2.1068004186
Mo  Mo10      1.0  0.18828  0.74908  0.73971  1.0000 2.1040217693
Mo  Mo11      1.0  0.31172  0.24908  0.26029  1.0000 2.1068004186
Mo  Mo12      1.0  0.81172  0.25092  0.26029  1.0000 2.1040217693
H   H1        1.0  0.90680  0.65640  0.98110  1.0000 0.1100245831
H   H2        1.0  0.40680  0.84360  0.98110  1.0000 0.1100245831
H   H3        1.0  0.09320  0.34360  0.01890  1.0000 0.1100245831
H   H4        1.0  0.59320  0.15640  0.01890  1.0000 0.1100245831
H   H5        1.0  0.23760  0.70020  0.90840  1.0000 0.129210349
H   H6        1.0  0.73760  0.79980  0.90840  1.0000 0.129210349
H   H7        1.0  0.76240  0.29980  0.09160  1.0000 0.129210349
H   H8        1.0  0.26240  0.20020  0.09160  1.0000 0.129210349
H   H9        1.0  0.02800  0.67590  0.07930  1.0000 0.129210349
H   H10       1.0  0.52800  0.82410  0.07930  1.0000 0.129210349
H   H11       1.0  0.97200  0.32410  0.92070  1.0000 0.129210349
H   H12       1.0  0.47200  0.17590  0.92070  1.0000 0.129210349
H   H13       1.0  0.36590  0.72320  0.00350  1.0000 0.129210349
H   H14       1.0  0.86590  0.77680  0.00350  1.0000 0.129210349
H   H15       1.0  0.63410  0.27680  0.99650  1.0000 0.129210349
H   H16       1.0  0.13410  0.22320  0.99650  1.0000 0.129210349
H   H17       1.0  0.71540  0.07290  0.17890  1.0000 0.0889181199
H   H18       1.0  0.21540  0.42710  0.17890  1.0000 0.0889181199
H   H19       1.0  0.28460  0.92710  0.82110  1.0000 0.0889181199
H   H20       1.0  0.78460  0.57290  0.82110  1.0000 0.0889181199
H   H21       1.0  0.31700  0.10880  0.16210  1.0000 0.1100245831
H   H22       1.0  0.81700  0.39120  0.16210  1.0000 0.1100245831
H   H23       1.0  0.68300  0.89120  0.83790  1.0000 0.1100245831
H   H24       1.0  0.18300  0.60880  0.83790  1.0000 0.1100245831
H   H25       1.0  0.26250  0.00660  0.18360  1.0000 0.1199583516
H   H26       1.0  0.76250  0.49340  0.18360  1.0000 0.129210349
H   H27       1.0  0.73750  0.99340  0.81640  1.0000 0.129210349
H   H28       1.0  0.23750  0.50660  0.81640  1.0000 0.1199583516
H   H29       1.0  0.66630  0.96990  0.20160  1.0000 0.1199583516
H   H30       1.0  0.16630  0.53010  0.20160  1.0000 0.1199583516
H   H31       1.0  0.33370  0.03010  0.79840  1.0000 0.1199583516
H   H32       1.0  0.83370  0.46990  0.79840  1.0000 0.1199583516
H   H33       1.0  0.56610  0.82910  0.49410  1.0000 0.129210349
H   H34       1.0  0.06610  0.67090  0.49410  1.0000 0.129210349
H   H35       1.0  0.43390  0.17090  0.50590  1.0000 0.129210349
H   H36       1.0  0.93390  0.32910  0.50590  1.0000 0.129210349
H   H37       1.0  0.68010  0.83680  0.59810  1.0000 0.1001865382
H   H38       1.0  0.18010  0.66320  0.59810  1.0000 0.1001865382
H   H39       1.0  0.31990  0.16320  0.40190  1.0000 0.1001865382
H   H40       1.0  0.81990  0.33680  0.40190  1.0000 0.1001865382
H   H41       1.0  0.04950  0.81500  0.55130  1.0000 0.1100245831
H   H42       1.0  0.54950  0.68500  0.55130  1.0000 0.1100245831
H   H43       1.0  0.95050  0.18500  0.44870  1.0000 0.1100245831
H   H44       1.0  0.45050  0.31500  0.44870  1.0000 0.1100245831
H   H45       1.0  0.95280  0.80590  0.44500  1.0000 0.1356124247
H   H46       1.0  0.45280  0.69410  0.44500  1.0000 0.1356124247
H   H47       1.0  0.04720  0.19410  0.55500  1.0000 0.1356124247
H   H48       1.0  0.54720  0.30590  0.55500  1.0000 0.1356124247
H   H49       1.0  0.76990  0.42150  0.32280  1.0000 0.1001865382
H   H50       1.0  0.26990  0.07850  0.32280  1.0000 0.1001865382
H   H51       1.0  0.23010  0.57850  0.67720  1.0000 0.1001865382
H   H52       1.0  0.73010  0.92150  0.67720  1.0000 0.1001865382
H   H53       1.0  0.35310  0.43080  0.32380  1.0000 0.1100245831
H   H54       1.0  0.85310  0.06920  0.32380  1.0000 0.1100245831
H   H55       1.0  0.64690  0.56920  0.67620  1.0000 0.1100245831
H   H56       1.0  0.14690  0.93080  0.67620  1.0000 0.1100245831
H   H57       1.0  0.77750  0.52970  0.30820  1.0000 0.1199583516
H   H58       1.0  0.27750  0.97030  0.30820  1.0000 0.1199583516
H   H59       1.0  0.22250  0.47030  0.69180  1.0000 0.1199583516
H   H60       1.0  0.72250  0.02970  0.69180  1.0000 0.1199583516
H   H61       1.0  0.35840  0.53570  0.30220  1.0000 0.129210349
H   H62       1.0  0.85840  0.96430  0.30220  1.0000 0.129210349
H   H63       1.0  0.64160  0.46430  0.69780  1.0000 0.129210349
H   H64       1.0  0.14160  0.03570  0.69780  1.0000 0.129210349
H   H65       1.0  0.17150  0.82780  0.05420  1.0000 0.1199583516
H   H66       1.0  0.67150  0.67220  0.05420  1.0000 0.1199583516
H   H67       1.0  0.82850  0.17220  0.94580  1.0000 0.1199583516
H   H68       1.0  0.32850  0.32780  0.94580  1.0000 0.1199583516
H   H69       1.0  0.26910  0.92450  0.10360  1.0000 0.1199583516
H   H70       1.0  0.76910  0.57550  0.10360  1.0000 0.1199583516
H   H71       1.0  0.73090  0.07550  0.89640  1.0000 0.1199583516
H   H72       1.0  0.23090  0.42450  0.89640  1.0000 0.1199583516
H   H73       1.0  0.57670  0.98250  0.31820  1.0000 0.1199583516
H   H74       1.0  0.07670  0.51750  0.31820  1.0000 0.1199583516
H   H75       1.0  0.42330  0.01750  0.68180  1.0000 0.1199583516
H   H76       1.0  0.92330  0.48250  0.68180  1.0000 0.1199583516
H   H77       1.0  0.67130  0.92660  0.41090  1.0000 0.1199583516
H   H78       1.0  0.17130  0.57340  0.41090  1.0000 0.1199583516
H   H79       1.0  0.32870  0.07340  0.58910  1.0000 0.1199583516
H   H80       1.0  0.82870  0.42660  0.58910  1.0000 0.1199583516
H   H81       1.0  0.78970  0.69250  0.45640  1.0000 0.1100245831
H   H82       1.0  0.28970  0.80750  0.45640  1.0000 0.1100245831
H   H83       1.0  0.21030  0.30750  0.54360  1.0000 0.1100245831
H   H84       1.0  0.71030  0.19250  0.54360  1.0000 0.1100245831
H   H85       1.0  0.71930  0.59560  0.40270  1.0000 0.1199583516
H   H86       1.0  0.21930  0.90440  0.40270  1.0000 0.1199583516
H   H87       1.0  0.28070  0.40440  0.59730  1.0000 0.1199583516
H   H88       1.0  0.78070  0.09560  0.59730  1.0000 0.1199583516
H   H89       1.0  0.45060  0.53960  0.18020  1.0000 0.1199583516
H   H90       1.0  0.95060  0.96040  0.18020  1.0000 0.1199583516
H   H91       1.0  0.54940  0.46040  0.81980  1.0000 0.1199583516
H   H92       1.0  0.04940  0.03960  0.81980  1.0000 0.1199583516
H   H93       1.0  0.31330  0.59500  0.09560  1.0000 0.1199583516
H   H94       1.0  0.81330  0.90500  0.09560  1.0000 0.1199583516
H   H95       1.0  0.68670  0.40500  0.90440  1.0000 0.1199583516
H   H96       1.0  0.18670  0.09500  0.90440  1.0000 0.1199583516
C   C1        1.0  0.99850  0.67150  0.98590  1.0000 0.1100245831
C   C2        1.0  0.49850  0.82850  0.98590  1.0000 0.1100245831
C   C3        1.0  0.00150  0.32850  0.01410  1.0000 0.1100245831
C   C4        1.0  0.50150  0.17150  0.01410  1.0000 0.1100245831
C   C5        1.0  0.19480  0.69780  0.94380  1.0000 0.0740340616
C   C6        1.0  0.69480  0.80220  0.94380  1.0000 0.0740340616
C   C7        1.0  0.80520  0.30220  0.05620  1.0000 0.0740340616
C   C8        1.0  0.30520  0.19780  0.05620  1.0000 0.0740340616
C   C9        1.0  0.07240  0.68320  0.04510  1.0000 -0.2179049865
C   C10       1.0  0.57240  0.81680  0.04510  1.0000 -0.2179049865
C   C11       1.0  0.92760  0.31680  0.95490  1.0000 -0.2179049865
C   C12       1.0  0.42760  0.18320  0.95490  1.0000 -0.2179049865
C   C13       1.0  0.27230  0.71070  0.00030  1.0000 -0.1892841344
C   C14       1.0  0.77230  0.78930  0.00030  1.0000 -0.1892841344
C   C15       1.0  0.72770  0.28930  0.99970  1.0000 -0.1892841344
C   C16       1.0  0.22770  0.21070  0.99970  1.0000 -0.1892841344
C   C17       1.0  0.20560  0.70460  0.05410  1.0000 0.129210349
C   C18       1.0  0.70560  0.79540  0.05410  1.0000 0.129210349
C   C19       1.0  0.79440  0.29540  0.94590  1.0000 0.129210349
C   C20       1.0  0.29440  0.20460  0.94590  1.0000 0.129210349
C   C21       1.0  0.62270  0.06090  0.17980  1.0000 0.0763887971
C   C22       1.0  0.12270  0.43910  0.17980  1.0000 0.0763887971
C   C23       1.0  0.37730  0.93910  0.82020  1.0000 0.0763887971
C   C24       1.0  0.87730  0.56090  0.82020  1.0000 0.0763887971
C   C25       1.0  0.39090  0.08100  0.17010  1.0000 0.0889181199
C   C26       1.0  0.89090  0.41900  0.17010  1.0000 0.0889181199
C   C27       1.0  0.60910  0.91900  0.82990  1.0000 0.0889181199
C   C28       1.0  0.10910  0.58100  0.82990  1.0000 0.0889181199
C   C29       1.0  0.35530  0.01890  0.18350  1.0000 -0.2179049865
C   C30       1.0  0.85530  0.48110  0.18350  1.0000 -0.2179049865
C   C31       1.0  0.64470  0.98110  0.81650  1.0000 -0.2179049865
C   C32       1.0  0.14470  0.51890  0.81650  1.0000 -0.2179049865
C   C33       1.0  0.59190  0.99760  0.19400  1.0000 -0.1834366637
C   C34       1.0  0.09190  0.50240  0.19400  1.0000 -0.1834366637
C   C35       1.0  0.40810  0.00240  0.80600  1.0000 -0.1834366637
C   C36       1.0  0.90810  0.49760  0.80600  1.0000 -0.1834366637
C   C37       1.0  0.46770  0.97860  0.19650  1.0000 0.1199583516
C   C38       1.0  0.96770  0.52140  0.19650  1.0000 0.1199583516
C   C39       1.0  0.53230  0.02140  0.80350  1.0000 0.1100245831
C   C40       1.0  0.03230  0.47860  0.80350  1.0000 0.1100245831
C   C41       1.0  0.66320  0.82440  0.50460  1.0000 -0.2179049865
C   C42       1.0  0.16320  0.67560  0.50460  1.0000 -0.2179049865
C   C43       1.0  0.33680  0.17560  0.49540  1.0000 -0.2179049865
C   C44       1.0  0.83680  0.32440  0.49540  1.0000 -0.2179049865
C   C45       1.0  0.73350  0.82940  0.56670  1.0000 0.0763887971
C   C46       1.0  0.23350  0.67060  0.56670  1.0000 0.0763887971
C   C47       1.0  0.26650  0.17060  0.43330  1.0000 0.0763887971
C   C48       1.0  0.76650  0.32940  0.43330  1.0000 0.0763887971
C   C49       1.0  0.75120  0.81180  0.46040  1.0000 0.129210349
C   C50       1.0  0.25120  0.68820  0.46040  1.0000 0.129210349
C   C51       1.0  0.24880  0.18820  0.53960  1.0000 0.129210349
C   C52       1.0  0.74880  0.31180  0.53960  1.0000 0.129210349
C   C53       1.0  0.95220  0.81650  0.53940  1.0000 0.1100245831
C   C54       1.0  0.45220  0.68350  0.53940  1.0000 0.1100245831
C   C55       1.0  0.04780  0.18350  0.46060  1.0000 0.1100245831
C   C56       1.0  0.54780  0.31650  0.46060  1.0000 0.1100245831
C   C57       1.0  0.89490  0.81050  0.47520  1.0000 -0.2107604429
C   C58       1.0  0.39490  0.68950  0.47520  1.0000 -0.2107604429
C   C59       1.0  0.10510  0.18950  0.52480  1.0000 -0.2107604429
C   C60       1.0  0.60510  0.31050  0.52480  1.0000 -0.2107604429
C   C61       1.0  0.68790  0.44480  0.31930  1.0000 0.1100245831
C   C62       1.0  0.18790  0.05520  0.31930  1.0000 0.1100245831
C   C63       1.0  0.31210  0.55520  0.68070  1.0000 0.1100245831
C   C64       1.0  0.81210  0.94480  0.68070  1.0000 0.1100245831
C   C65       1.0  0.43670  0.45040  0.31890  1.0000 0.0270041863
C   C66       1.0  0.93670  0.04960  0.31890  1.0000 0.0270041863
C   C67       1.0  0.56330  0.54960  0.68110  1.0000 0.0270041863
C   C68       1.0  0.06330  0.95040  0.68110  1.0000 0.0270041863
C   C69       1.0  0.56340  0.54140  0.29990  1.0000 0.1199583516
C   C70       1.0  0.06340  0.95860  0.29990  1.0000 0.1199583516
C   C71       1.0  0.43660  0.45860  0.70010  1.0000 0.1199583516
C   C72       1.0  0.93660  0.04140  0.70010  1.0000 0.1199583516
C   C73       1.0  0.69240  0.50950  0.30890  1.0000 -0.2179049865
C   C74       1.0  0.19240  0.99050  0.30890  1.0000 -0.2179049865
C   C75       1.0  0.30760  0.49050  0.69110  1.0000 -0.2179049865
C   C76       1.0  0.80760  0.00950  0.69110  1.0000 -0.2179049865
C   C77       1.0  0.44140  0.51300  0.30630  1.0000 -0.1892841344
C   C78       1.0  0.94140  0.98700  0.30630  1.0000 -0.1834366637
C   C79       1.0  0.55860  0.48700  0.69370  1.0000 -0.1892841344
C   C80       1.0  0.05860  0.01300  0.69370  1.0000 -0.1892841344
C   C81       1.0  0.29370  0.72230  0.11530  1.0000 -0.0886992817
C   C82       1.0  0.79370  0.77770  0.11530  1.0000 -0.0886992817
C   C83       1.0  0.70630  0.27770  0.88470  1.0000 -0.0886992817
C   C84       1.0  0.20630  0.22230  0.88470  1.0000 -0.0886992817
C   C85       1.0  0.30480  0.78270  0.13130  1.0000 0.1594821627
C   C86       1.0  0.80480  0.71730  0.13130  1.0000 0.1594821627
C   C87       1.0  0.69520  0.21730  0.86870  1.0000 0.1594821627
C   C88       1.0  0.19520  0.28270  0.86870  1.0000 0.1594821627
C   C89       1.0  0.23570  0.83200  0.09040  1.0000 -0.1684836817
C   C90       1.0  0.73570  0.66800  0.09040  1.0000 -0.1684836817
C   C91       1.0  0.76430  0.16800  0.90960  1.0000 -0.1684836817
C   C92       1.0  0.26430  0.33200  0.90960  1.0000 -0.1684836817
C   C93       1.0  0.28840  0.88510  0.11850  1.0000 -0.2107604429
C   C94       1.0  0.78840  0.61490  0.11850  1.0000 -0.2107604429
C   C95       1.0  0.71160  0.11490  0.88150  1.0000 -0.2107604429
C   C96       1.0  0.21160  0.38510  0.88150  1.0000 -0.2107604429
C   C97       1.0  0.37890  0.86920  0.17520  1.0000 0.180194665
C   C98       1.0  0.87890  0.63080  0.17520  1.0000 0.1854981951
C   C99       1.0  0.62110  0.13080  0.82480  1.0000 0.1854981951
C   C100      1.0  0.12110  0.36920  0.82480  1.0000 0.1854981951
C   C101      1.0  0.45200  0.91270  0.21610  1.0000 -0.0886992817
C   C102      1.0  0.95200  0.58730  0.21610  1.0000 -0.0886992817
C   C103      1.0  0.54800  0.08730  0.78390  1.0000 -0.0886992817
C   C104      1.0  0.04800  0.41270  0.78390  1.0000 -0.0886992817
C   C105      1.0  0.52260  0.89750  0.27550  1.0000 0.1685973086
C   C106      1.0  0.02260  0.60250  0.27550  1.0000 0.1685973086
C   C107      1.0  0.47740  0.10250  0.72450  1.0000 0.1685973086
C   C108      1.0  0.97740  0.39750  0.72450  1.0000 0.1685973086
C   C109      1.0  0.57880  0.94010  0.32240  1.0000 -0.1970578169
C   C110      1.0  0.07880  0.55990  0.32240  1.0000 -0.1970578169
C   C111      1.0  0.42120  0.05990  0.67760  1.0000 -0.1970578169
C   C112      1.0  0.92120  0.44010  0.67760  1.0000 -0.1970578169
C   C113      1.0  0.63410  0.91000  0.37270  1.0000 -0.1834366637
C   C114      1.0  0.13410  0.59000  0.37270  1.0000 -0.1834366637
C   C115      1.0  0.36590  0.09000  0.62730  1.0000 -0.1834366637
C   C116      1.0  0.86590  0.41000  0.62730  1.0000 -0.1834366637
C   C117      1.0  0.62420  0.84350  0.35520  1.0000 0.1854981951
C   C118      1.0  0.12420  0.65650  0.35520  1.0000 0.1854981951
C   C119      1.0  0.37580  0.15650  0.64480  1.0000 0.1854981951
C   C120      1.0  0.87580  0.34350  0.64480  1.0000 0.1854981951
C   C121      1.0  0.68040  0.79750  0.39440  1.0000 -0.0977474709
C   C122      1.0  0.18040  0.70250  0.39440  1.0000 -0.0977474709
C   C123      1.0  0.31960  0.20250  0.60560  1.0000 -0.0977474709
C   C124      1.0  0.81960  0.29750  0.60560  1.0000 -0.0977474709
C   C125      1.0  0.67910  0.73660  0.37600  1.0000 0.1685973086
C   C126      1.0  0.17910  0.76340  0.37600  1.0000 0.1685973086
C   C127      1.0  0.32090  0.26340  0.62400  1.0000 0.1685973086
C   C128      1.0  0.82090  0.23660  0.62400  1.0000 0.1685973086
C   C129      1.0  0.73700  0.68800  0.41730  1.0000 -0.1892841344
C   C130      1.0  0.23700  0.81200  0.41730  1.0000 -0.1970578169
C   C131      1.0  0.26300  0.31200  0.58270  1.0000 -0.1970578169
C   C132      1.0  0.76300  0.18800  0.58270  1.0000 -0.1970578169
C   C133      1.0  0.69930  0.63490  0.38750  1.0000 -0.1892841344
C   C134      1.0  0.19930  0.86510  0.38750  1.0000 -0.1970578169
C   C135      1.0  0.30070  0.36510  0.61250  1.0000 -0.1892841344
C   C136      1.0  0.80070  0.13490  0.61250  1.0000 -0.1892841344
C   C137      1.0  0.62100  0.65100  0.32690  1.0000 0.180194665
C   C138      1.0  0.12100  0.84900  0.32690  1.0000 0.180194665
C   C139      1.0  0.37900  0.34900  0.67310  1.0000 0.180194665
C   C140      1.0  0.87900  0.15100  0.67310  1.0000 0.180194665
C   C141      1.0  0.56650  0.60970  0.28260  1.0000 -0.0845333
C   C142      1.0  0.06650  0.89030  0.28260  1.0000 -0.0886992817
C   C143      1.0  0.43350  0.39030  0.71740  1.0000 -0.0886992817
C   C144      1.0  0.93350  0.10970  0.71740  1.0000 -0.0845333
C   C145      1.0  0.48240  0.62420  0.22650  1.0000 0.180194665
C   C146      1.0  0.98240  0.87580  0.22650  1.0000 0.180194665
C   C147      1.0  0.51760  0.37580  0.77350  1.0000 0.180194665
C   C148      1.0  0.01760  0.12420  0.77350  1.0000 0.1854981951
C   C149      1.0  0.43360  0.58150  0.17880  1.0000 -0.2107604429
C   C150      1.0  0.93360  0.91850  0.17880  1.0000 -0.2107604429
C   C151      1.0  0.56640  0.41850  0.82120  1.0000 -0.2107604429
C   C152      1.0  0.06640  0.08150  0.82120  1.0000 -0.2107604429
C   C153      1.0  0.36010  0.61160  0.13230  1.0000 -0.1892841344
C   C154      1.0  0.86010  0.88840  0.13230  1.0000 -0.1892841344
C   C155      1.0  0.63990  0.38840  0.86770  1.0000 -0.1892841344
C   C156      1.0  0.13990  0.11160  0.86770  1.0000 -0.1892841344
C   C157      1.0  0.36670  0.67460  0.14940  1.0000 0.1685973086
C   C158      1.0  0.86670  0.82540  0.14940  1.0000 0.1685973086
C   C159      1.0  0.63330  0.32540  0.85060  1.0000 0.1685973086
C   C160      1.0  0.13330  0.17460  0.85060  1.0000 0.1685973086
N   N1        1.0  0.05820  0.68180  0.93840  1.0000 -0.2297388238
N   N2        1.0  0.55820  0.81820  0.93840  1.0000 -0.2297388238
N   N3        1.0  0.94180  0.31820  0.06160  1.0000 -0.2297388238
N   N4        1.0  0.44180  0.18180  0.06160  1.0000 -0.2297388238
N   N5        1.0  0.51870  0.10150  0.16810  1.0000 -0.2297388238
N   N6        1.0  0.01870  0.39850  0.16810  1.0000 -0.2297388238
N   N7        1.0  0.48130  0.89850  0.83190  1.0000 -0.2297388238
N   N8        1.0  0.98130  0.60150  0.83190  1.0000 -0.2297388238
N   N9        1.0  0.87170  0.82390  0.58130  1.0000 -0.248359773
N   N10       1.0  0.37170  0.67610  0.58130  1.0000 -0.248359773
N   N11       1.0  0.12830  0.17610  0.41870  1.0000 -0.248359773
N   N12       1.0  0.62830  0.32390  0.41870  1.0000 -0.248359773
N   N13       1.0  0.56640  0.41880  0.32360  1.0000 -0.248359773
N   N14       1.0  0.06640  0.08120  0.32360  1.0000 -0.248359773
N   N15       1.0  0.43360  0.58120  0.67640  1.0000 -0.248359773
N   N16       1.0  0.93360  0.91880  0.67640  1.0000 -0.248359773
N   N17       1.0  0.54800  0.83840  0.29740  1.0000 -0.3769436364
N   N18       1.0  0.04800  0.66160  0.29740  1.0000 -0.3769436364
N   N19       1.0  0.45200  0.16160  0.70260  1.0000 -0.3769436364
N   N20       1.0  0.95200  0.33840  0.70260  1.0000 -0.3769436364
N   N21       1.0  0.60630  0.71340  0.32160  1.0000 -0.3714868647
N   N22       1.0  0.10630  0.78660  0.32160  1.0000 -0.3714868647
N   N23       1.0  0.39370  0.28660  0.67840  1.0000 -0.3714868647
N   N24       1.0  0.89370  0.21340  0.67840  1.0000 -0.3714868647
N   N25       1.0  0.44090  0.68130  0.20870  1.0000 -0.3714868647
N   N26       1.0  0.94090  0.81870  0.20870  1.0000 -0.3714868647
N   N27       1.0  0.55910  0.31870  0.79130  1.0000 -0.3714868647
N   N28       1.0  0.05910  0.18130  0.79130  1.0000 -0.3714868647
N   N29       1.0  0.38630  0.80710  0.18360  1.0000 -0.3769436364
N   N30       1.0  0.88630  0.69290  0.18360  1.0000 -0.3769436364
N   N31       1.0  0.61370  0.19290  0.81640  1.0000 -0.3769436364
N   N32       1.0  0.11370  0.30710  0.81640  1.0000 -0.3769436364
O   O1        1.0  0.69560  0.68790  0.65800  1.0000 -0.8578094726
O   O2        1.0  0.19560  0.81210  0.65800  1.0000 -0.8578094726
O   O3        1.0  0.30440  0.31210  0.34200  1.0000 -0.8578094726
O   O4        1.0  0.80440  0.18790  0.34200  1.0000 -0.8578094726
O   O5        1.0  0.75480  0.81260  0.70370  1.0000 -0.7716870789
O   O6        1.0  0.25480  0.68740  0.70370  1.0000 -0.7716870789
O   O7        1.0  0.24520  0.18740  0.29630  1.0000 -0.7716870789
O   O8        1.0  0.74520  0.31260  0.29630  1.0000 -0.7716870789
O   O9        1.0  0.83650  0.70590  0.77140  1.0000 -0.8138596897
O   O10       1.0  0.33650  0.79410  0.77140  1.0000 -0.8138596897
O   O11       1.0  0.16350  0.29410  0.22860  1.0000 -0.8138596897
O   O12       1.0  0.66350  0.20590  0.22860  1.0000 -0.8138596897
O   O13       1.0  0.63670  0.78440  0.80460  1.0000 -0.7778998201
O   O14       1.0  0.13670  0.71560  0.80460  1.0000 -0.7778998201
O   O15       1.0  0.36330  0.21560  0.19540  1.0000 -0.7778998201
O   O16       1.0  0.86330  0.28440  0.19540  1.0000 -0.7778998201
O   O17       1.0  0.71580  0.66260  0.88240  1.0000 -0.822441626
O   O18       1.0  0.21580  0.83740  0.88240  1.0000 -0.822441626
O   O19       1.0  0.28420  0.33740  0.11760  1.0000 -0.822441626
O   O20       1.0  0.78420  0.16260  0.11760  1.0000 -0.822441626
O   O21       1.0  0.93790  0.77860  0.86990  1.0000 -0.8432960992
O   O22       1.0  0.43790  0.72140  0.86990  1.0000 -0.8432960992
O   O23       1.0  0.06210  0.22140  0.13010  1.0000 -0.8432960992
O   O24       1.0  0.56210  0.27860  0.13010  1.0000 -0.8432960992
O   O25       1.0  0.00010  0.73870  0.67730  1.0000 -0.8522123133
O   O26       1.0  0.50010  0.76130  0.67730  1.0000 -0.8522123133
O   O27       1.0  0.99990  0.26130  0.32270  1.0000 -0.8522123133
O   O28       1.0  0.49990  0.23870  0.32270  1.0000 -0.8522123133
O   O29       1.0  0.55360  0.67230  0.75760  1.0000 -0.9002715533
O   O30       1.0  0.05360  0.82770  0.75760  1.0000 -0.9002715533
O   O31       1.0  0.44640  0.32770  0.24240  1.0000 -0.9002715533
O   O32       1.0  0.94640  0.17230  0.24240  1.0000 -0.9002715533
