# DDEC6 charges by PACMAN v1.1 (https://github.com/mtap-research/PACMAN-charge/)
data_2015[Zn][nan]3[ASR]14
_chemical_formula_sum              "Zn6 H24 C72 O36"
_cell_length_a       12.4752
_cell_length_b       15.3763
_cell_length_c       17.9551
_cell_angle_alpha    110.483
_cell_angle_beta     104.435
_cell_angle_gamma    86.284

_symmetry_space_group_name_H-M    "P 1"
_symmetry_Int_Tables_number       1

loop_
  _symmetry_equiv_pos_as_xyz
  'x, y, z'

loop_
  _atom_site_type_symbol
  _atom_site_label
  _atom_site_symmetry_multiplicity
  _atom_site_fract_x
  _atom_site_fract_y
  _atom_site_fract_z
  _atom_site_occupancy
  _atom_site_charge
Zn  Zn1       1.0  0.99373  0.76132  0.34808  1.0000 0.9479561014
Zn  Zn2       1.0  0.00627  0.23868  0.65192  1.0000 0.9479561014
Zn  Zn3       1.0  0.87263  0.58601  0.16799  1.0000 0.9603464169
Zn  Zn4       1.0  0.12737  0.41399  0.83201  1.0000 0.9603464169
Zn  Zn5       1.0  0.17783  0.03843  0.18856  1.0000 0.9246359629
Zn  Zn6       1.0  0.82217  0.96157  0.81144  1.0000 0.9246359629
H   H1        1.0  0.74520  0.01900  0.42560  1.0000 0.1405027
H   H2        1.0  0.25480  0.98100  0.57440  1.0000 0.1405027
H   H3        1.0  0.26340  0.81670  0.25150  1.0000 0.1405027
H   H4        1.0  0.73660  0.18330  0.74850  1.0000 0.1405027
H   H5        1.0  0.54020  0.68780  0.17360  1.0000 0.1323862815
H   H6        1.0  0.45980  0.31220  0.82640  1.0000 0.1323862815
H   H7        1.0  0.57430  0.00840  0.30950  1.0000 0.1405027
H   H8        1.0  0.42570  0.99160  0.69050  1.0000 0.1405027
H   H9        1.0  0.38400  0.68230  0.05420  1.0000 0.1323862815
H   H10       1.0  0.61600  0.31770  0.94580  1.0000 0.1323862815
H   H11       1.0  0.07780  0.61410  0.05790  1.0000 0.1479645011
H   H12       1.0  0.92220  0.38590  0.94210  1.0000 0.1479645011
H   H13       1.0  0.04120  0.07490  0.39720  1.0000 0.1479645011
H   H14       1.0  0.95880  0.92510  0.60280  1.0000 0.1479645011
H   H15       1.0  0.82880  0.88600  0.20990  1.0000 0.1323862815
H   H16       1.0  0.17120  0.11400  0.79010  1.0000 0.1323862815
H   H17       1.0  0.01020  0.37270  0.23500  1.0000 0.1405027
H   H18       1.0  0.98980  0.62730  0.76500  1.0000 0.1405027
H   H19       1.0  0.31510  0.30370  0.33750  1.0000 0.1323862815
H   H20       1.0  0.68490  0.69630  0.66250  1.0000 0.1323862815
H   H21       1.0  0.22470  0.57330  0.41040  1.0000 0.1405027
H   H22       1.0  0.77530  0.42670  0.58960  1.0000 0.1405027
H   H23       1.0  0.66200  0.43650  0.46400  1.0000 0.1197449131
H   H24       1.0  0.33800  0.56350  0.53600  1.0000 0.1197449131
C   C1        1.0  0.65140  0.79530  0.23970  1.0000 -0.0463594819
C   C2        1.0  0.34860  0.20470  0.76030  1.0000 -0.0463594819
C   C3        1.0  0.79730  0.00660  0.39280  1.0000 -0.1221927001
C   C4        1.0  0.20270  0.99340  0.60720  1.0000 -0.1221927001
C   C5        1.0  0.15790  0.71820  0.16160  1.0000 0.0010403667
C   C6        1.0  0.84210  0.28180  0.83840  1.0000 0.0010403667
C   C7        1.0  0.77170  0.94110  0.31450  1.0000 0.0819345775
C   C8        1.0  0.22830  0.05890  0.68550  1.0000 0.0819345775
C   C9        1.0  0.66300  0.89070  0.27970  1.0000 0.0596451688
C   C10       1.0  0.33700  0.10930  0.72030  1.0000 0.0596451688
C   C11       1.0  0.34090  0.75570  0.15920  1.0000 0.0819345775
C   C12       1.0  0.65910  0.24430  0.84080  1.0000 0.0819345775
C   C13       1.0  0.25510  0.77050  0.19870  1.0000 -0.1221927001
C   C14       1.0  0.74490  0.22950  0.80130  1.0000 -0.1221927001
C   C15       1.0  0.54660  0.75320  0.20080  1.0000 -0.14592976
C   C16       1.0  0.45340  0.24680  0.79920  1.0000 -0.14592976
C   C17       1.0  0.94640  0.98060  0.29530  1.0000 0.0271430708
C   C18       1.0  0.05360  0.01940  0.70470  1.0000 0.0271430708
C   C19       1.0  0.45170  0.80560  0.20120  1.0000 0.0718498839
C   C20       1.0  0.54830  0.19440  0.79880  1.0000 0.0718498839
C   C21       1.0  0.06860  0.72390  0.20520  1.0000 0.6111607117
C   C22       1.0  0.93140  0.27610  0.79480  1.0000 0.6111607117
C   C23       1.0  0.89960  0.05500  0.42390  1.0000 0.0010403667
C   C24       1.0  0.10040  0.94500  0.57610  1.0000 0.0010403667
C   C25       1.0  0.56740  0.94330  0.28110  1.0000 -0.1299108403
C   C26       1.0  0.43260  0.05670  0.71890  1.0000 -0.1299108403
C   C27       1.0  0.46230  0.90300  0.24220  1.0000 -0.0463594819
C   C28       1.0  0.53770  0.09700  0.75780  1.0000 -0.0441990147
C   C29       1.0  0.02440  0.55670  0.30840  1.0000 0.6111607117
C   C30       1.0  0.97560  0.44330  0.69160  1.0000 0.6111607117
C   C31       1.0  0.74990  0.73350  0.23950  1.0000 0.6111607117
C   C32       1.0  0.25010  0.26650  0.76050  1.0000 0.6111607117
C   C33       1.0  0.36900  0.96660  0.23950  1.0000 0.5579939646
C   C34       1.0  0.63100  0.03340  0.76050  1.0000 0.5579939646
C   C35       1.0  0.32570  0.69120  0.08130  1.0000 -0.1299108403
C   C36       1.0  0.67430  0.30880  0.91870  1.0000 -0.1299108403
C   C37       1.0  0.14400  0.65100  0.08270  1.0000 -0.0930947425
C   C38       1.0  0.85600  0.34900  0.91730  1.0000 -0.0930947425
C   C39       1.0  0.97210  0.04180  0.37570  1.0000 -0.0973361457
C   C40       1.0  0.02790  0.95820  0.62430  1.0000 -0.0973361457
C   C41       1.0  0.22820  0.63840  0.04080  1.0000 0.0010403667
C   C42       1.0  0.77180  0.36160  0.95920  1.0000 0.0010403667
C   C43       1.0  0.92160  0.12630  0.50830  1.0000 0.552188661
C   C44       1.0  0.07840  0.87370  0.49170  1.0000 0.552188661
C   C45       1.0  0.10420  0.48270  0.32090  1.0000 -0.0063819398
C   C46       1.0  0.89580  0.51730  0.67910  1.0000 -0.0063819398
C   C47       1.0  0.84630  0.92900  0.26440  1.0000 -0.1397527891
C   C48       1.0  0.15370  0.07100  0.73560  1.0000 -0.1397527891
C   C49       1.0  0.21350  0.56580  0.95780  1.0000 0.552188661
C   C50       1.0  0.78650  0.43420  0.04220  1.0000 0.552188661
C   C51       1.0  0.49480  0.43530  0.42490  1.0000 -0.0227846836
C   C52       1.0  0.50520  0.56470  0.57510  1.0000 -0.0227846836
C   C53       1.0  0.01760  0.97150  0.23690  1.0000 0.5579939646
C   C54       1.0  0.98240  0.02850  0.76310  1.0000 0.5579939646
C   C55       1.0  0.07970  0.39050  0.27330  1.0000 -0.0973361457
C   C56       1.0  0.92030  0.60950  0.72670  1.0000 -0.0973361457
C   C57       1.0  0.15800  0.32430  0.28230  1.0000 0.0126052418
C   C58       1.0  0.84200  0.67570  0.71770  1.0000 0.0126052418
C   C59       1.0  0.39650  0.47040  0.44310  1.0000 0.0596451688
C   C60       1.0  0.60350  0.52960  0.55690  1.0000 0.0596451688
C   C61       1.0  0.26130  0.34980  0.33470  1.0000 -0.0930947425
C   C62       1.0  0.73870  0.65020  0.66530  1.0000 -0.0930947425
C   C63       1.0  0.20860  0.51000  0.37730  1.0000 -0.1221927001
C   C64       1.0  0.79140  0.49000  0.62270  1.0000 -0.1221927001
C   C65       1.0  0.28810  0.44190  0.38350  1.0000 0.0819345775
C   C66       1.0  0.71190  0.55810  0.61650  1.0000 0.0819345775
C   C67       1.0  0.12970  0.22310  0.23330  1.0000 0.552188661
C   C68       1.0  0.87030  0.77690  0.76670  1.0000 0.552188661
C   C69       1.0  0.59640  0.46300  0.47940  1.0000 -0.1221927001
C   C70       1.0  0.40360  0.53700  0.52060  1.0000 -0.1221927001
C   C71       1.0  0.51730  0.35810  0.34910  1.0000 0.5368339581
C   C72       1.0  0.48270  0.64190  0.65090  1.0000 0.5368339581
O   O1        1.0  0.82990  0.75340  0.30070  1.0000 -0.5420251327
O   O2        1.0  0.17010  0.24660  0.69930  1.0000 -0.5420251327
O   O3        1.0  0.74300  0.65990  0.17599  1.0000 -0.5212426769
O   O4        1.0  0.25700  0.34010  0.82401  1.0000 -0.5212426769
O   O5        1.0  0.98770  0.66730  0.16830  1.0000 -0.5586190658
O   O6        1.0  0.01230  0.33270  0.83170  1.0000 -0.5586190658
O   O7        1.0  0.13860  0.50340  0.93960  1.0000 -0.5059760052
O   O8        1.0  0.86140  0.49660  0.06040  1.0000 -0.5059760052
O   O9        1.0  0.01870  0.15420  0.54320  1.0000 -0.4698895906
O   O10       1.0  0.98130  0.84580  0.45680  1.0000 -0.4698895906
O   O11       1.0  0.07890  0.78000  0.27630  1.0000 -0.4792292106
O   O12       1.0  0.92110  0.22000  0.72370  1.0000 -0.4792292106
O   O13       1.0  0.30060  0.95420  0.17050  1.0000 -0.5011730032
O   O14       1.0  0.69940  0.04580  0.82950  1.0000 -0.5011730032
O   O15       1.0  0.84170  0.15780  0.54040  1.0000 -0.4698895906
O   O16       1.0  0.15830  0.84220  0.45960  1.0000 -0.4698895906
O   O17       1.0  0.26950  0.56690  0.91180  1.0000 -0.4034943618
O   O18       1.0  0.73050  0.43310  0.08820  1.0000 -0.4034943618
O   O19       1.0  0.21380  0.17220  0.22440  1.0000 -0.462674989
O   O20       1.0  0.78620  0.82780  0.77560  1.0000 -0.4698895906
O   O21       1.0  0.35920  0.03060  0.30340  1.0000 -0.4291098254
O   O22       1.0  0.64080  0.96940  0.69660  1.0000 -0.4238045054
O   O23       1.0  0.10620  0.01850  0.26600  1.0000 -0.4928423303
O   O24       1.0  0.89380  0.98150  0.73400  1.0000 -0.4928423303
O   O25       1.0  0.04750  0.63990  0.35690  1.0000 -0.5212426769
O   O26       1.0  0.95250  0.36010  0.64310  1.0000 -0.5212426769
O   O27       1.0  0.93800  0.53100  0.25120  1.0000 -0.5326844292
O   O28       1.0  0.06200  0.46900  0.74880  1.0000 -0.5326844292
O   O29       1.0  0.03120  0.19710  0.20880  1.0000 -0.3891549247
O   O30       1.0  0.96880  0.80290  0.79120  1.0000 -0.3891549247
O   O31       1.0  0.98310  0.92230  0.16380  1.0000 -0.4698895906
O   O32       1.0  0.01690  0.07770  0.83620  1.0000 -0.4698895906
O   O33       1.0  0.47790  0.37300  0.28210  1.0000 -0.4103820063
O   O34       1.0  0.52210  0.62700  0.71790  1.0000 -0.4034943618
O   O35       1.0  0.57080  0.28310  0.34990  1.0000 -0.4103820063
O   O36       1.0  0.42920  0.71690  0.65010  1.0000 -0.4103820063
