# DDEC6 charges by PACMAN v1.1 (https://github.com/mtap-research/PACMAN-charge/)
data_2015[Eu][nan]3[ASR]9
_chemical_formula_sum              "Eu8 H64 C128 N8 O56"
_cell_length_a       33.5
_cell_length_b       26.2281
_cell_length_c       23.2267
_cell_angle_alpha    85.0494
_cell_angle_beta     51.2613
_cell_angle_gamma    43.6893

_symmetry_space_group_name_H-M    "P 1"
_symmetry_Int_Tables_number       1

loop_
  _symmetry_equiv_pos_as_xyz
  'x, y, z'

loop_
  _atom_site_type_symbol
  _atom_site_label
  _atom_site_symmetry_multiplicity
  _atom_site_fract_x
  _atom_site_fract_y
  _atom_site_fract_z
  _atom_site_occupancy
  _atom_site_charge
Eu  Eu1       1.0  0.54474  0.54474  0.95526  1.0000 2.0584084608
Eu  Eu2       1.0  0.95526  0.95526  0.54474  1.0000 2.0584084608
Eu  Eu3       1.0  0.70526  0.70526  0.29474  1.0000 2.0584084608
Eu  Eu4       1.0  0.29474  0.29474  0.70526  1.0000 2.0584084608
Eu  Eu5       1.0  0.79626  0.20374  0.79626  1.0000 2.1417013623
Eu  Eu6       1.0  0.20374  0.79626  0.20374  1.0000 2.1417013623
Eu  Eu7       1.0  0.45374  0.04626  0.45374  1.0000 2.1417013623
Eu  Eu8       1.0  0.04626  0.45374  0.04626  1.0000 2.1417013623
H   H1        1.0  0.86470  0.16590  0.60170  1.0000 0.1175880207
H   H2        1.0  0.16590  0.86470  0.36770  1.0000 0.1175880207
H   H3        1.0  0.60170  0.36770  0.86470  1.0000 0.1175880207
H   H4        1.0  0.36770  0.60170  0.16590  1.0000 0.1175880207
H   H5        1.0  0.38530  0.08410  0.64830  1.0000 0.1175880207
H   H6        1.0  0.08410  0.38530  0.88230  1.0000 0.1175880207
H   H7        1.0  0.64830  0.88230  0.38530  1.0000 0.1175880207
H   H8        1.0  0.88230  0.64830  0.08410  1.0000 0.1175880207
H   H9        1.0  0.99020  0.12260  0.35420  1.0000 0.1291658883
H   H10       1.0  0.12260  0.99020  0.53300  1.0000 0.1291658883
H   H11       1.0  0.35420  0.53300  0.99020  1.0000 0.1291658883
H   H12       1.0  0.53300  0.35420  0.12260  1.0000 0.1291658883
H   H13       1.0  0.25980  0.12740  0.89580  1.0000 0.1291658883
H   H14       1.0  0.12740  0.25980  0.71700  1.0000 0.1291658883
H   H15       1.0  0.89580  0.71700  0.25980  1.0000 0.1291658883
H   H16       1.0  0.71700  0.89580  0.12740  1.0000 0.1291658883
H   H17       1.0  0.77040  0.38540  0.61140  1.0000 0.1291658883
H   H18       1.0  0.38540  0.77040  0.23280  1.0000 0.1291658883
H   H19       1.0  0.61140  0.23280  0.77040  1.0000 0.1291658883
H   H20       1.0  0.23280  0.61140  0.38540  1.0000 0.1291658883
H   H21       1.0  0.47960  0.86460  0.63860  1.0000 0.1291658883
H   H22       1.0  0.86460  0.47960  0.01720  1.0000 0.1291658883
H   H23       1.0  0.63860  0.01720  0.47960  1.0000 0.1291658883
H   H24       1.0  0.01720  0.63860  0.86460  1.0000 0.1291658883
H   H25       1.0  0.07920  0.20820  0.17840  1.0000 0.1175880207
H   H26       1.0  0.20820  0.07920  0.53420  1.0000 0.1175880207
H   H27       1.0  0.17840  0.53420  0.07920  1.0000 0.1175880207
H   H28       1.0  0.53420  0.17840  0.20820  1.0000 0.1175880207
H   H29       1.0  0.17080  0.04180  0.07160  1.0000 0.1175880207
H   H30       1.0  0.04180  0.17080  0.71580  1.0000 0.1175880207
H   H31       1.0  0.07160  0.71580  0.17080  1.0000 0.1175880207
H   H32       1.0  0.71580  0.07160  0.04180  1.0000 0.1175880207
H   H33       1.0  0.05640  0.30280  0.13700  1.0000 0.1175880207
H   H34       1.0  0.30280  0.05640  0.50380  1.0000 0.1175880207
H   H35       1.0  0.13700  0.50380  0.05640  1.0000 0.1175880207
H   H36       1.0  0.50380  0.13700  0.30280  1.0000 0.1175880207
H   H37       1.0  0.19360  0.94720  0.11300  1.0000 0.1175880207
H   H38       1.0  0.94720  0.19360  0.74620  1.0000 0.1175880207
H   H39       1.0  0.11300  0.74620  0.19360  1.0000 0.1175880207
H   H40       1.0  0.74620  0.11300  0.94720  1.0000 0.1175880207
H   H41       1.0  0.75600  0.54280  0.39640  1.0000 0.1291658883
H   H42       1.0  0.54280  0.75600  0.30480  1.0000 0.1291658883
H   H43       1.0  0.39640  0.30480  0.75600  1.0000 0.1291658883
H   H44       1.0  0.30480  0.39640  0.54280  1.0000 0.1291658883
H   H45       1.0  0.49400  0.70720  0.85360  1.0000 0.1291658883
H   H46       1.0  0.70720  0.49400  0.94520  1.0000 0.1291658883
H   H47       1.0  0.85360  0.94520  0.49400  1.0000 0.1291658883
H   H48       1.0  0.94520  0.85360  0.70720  1.0000 0.1291658883
H   H49       1.0  0.77940  0.44940  0.43840  1.0000 0.0983633615
H   H50       1.0  0.44940  0.77940  0.33280  1.0000 0.0983633615
H   H51       1.0  0.43840  0.33280  0.77940  1.0000 0.0983633615
H   H52       1.0  0.33280  0.43840  0.44940  1.0000 0.0983633615
H   H53       1.0  0.47060  0.80060  0.81160  1.0000 0.0983633615
H   H54       1.0  0.80060  0.47060  0.91720  1.0000 0.0983633615
H   H55       1.0  0.81160  0.91720  0.47060  1.0000 0.0983633615
H   H56       1.0  0.91720  0.81160  0.80060  1.0000 0.0983633615
H   H57       1.0  0.83240  0.36740  0.47500  1.0000 0.265573255
H   H58       1.0  0.36740  0.83240  0.32520  1.0000 0.265573255
H   H59       1.0  0.47500  0.32520  0.83240  1.0000 0.2639293588
H   H60       1.0  0.32520  0.47500  0.36740  1.0000 0.2639293588
H   H61       1.0  0.41760  0.88260  0.77500  1.0000 0.265573255
H   H62       1.0  0.88260  0.41760  0.92480  1.0000 0.265573255
H   H63       1.0  0.77500  0.92480  0.41760  1.0000 0.2639293588
H   H64       1.0  0.92480  0.77500  0.88260  1.0000 0.265573255
C   C1        1.0  0.72947  0.35137  0.73323  1.0000 0.6101500757
C   C2        1.0  0.35137  0.72947  0.18593  1.0000 0.6101500757
C   C3        1.0  0.73323  0.18593  0.72947  1.0000 0.6101500757
C   C4        1.0  0.18593  0.73323  0.35137  1.0000 0.6101500757
C   C5        1.0  0.52053  0.89863  0.51677  1.0000 0.6101500757
C   C6        1.0  0.89863  0.52053  0.06407  1.0000 0.6101500757
C   C7        1.0  0.51677  0.06407  0.52053  1.0000 0.6101500757
C   C8        1.0  0.06407  0.51677  0.89863  1.0000 0.6101500757
C   C9        1.0  0.80514  0.28594  0.62386  1.0000 -0.0118784789
C   C10       1.0  0.28594  0.80514  0.28506  1.0000 -0.0118784789
C   C11       1.0  0.62386  0.28506  0.80514  1.0000 -0.0118784789
C   C12       1.0  0.28506  0.62386  0.28594  1.0000 -0.0118784789
C   C13       1.0  0.44486  0.96406  0.62614  1.0000 -0.0118784789
C   C14       1.0  0.96406  0.44486  0.96494  1.0000 -0.0118784789
C   C15       1.0  0.62614  0.96494  0.44486  1.0000 -0.0118784789
C   C16       1.0  0.96494  0.62614  0.96406  1.0000 -0.0118784789
C   C17       1.0  0.86842  0.18964  0.56996  1.0000 -0.134677571
C   C18       1.0  0.18964  0.86842  0.37198  1.0000 -0.1359100573
C   C19       1.0  0.56996  0.37198  0.86842  1.0000 -0.134677571
C   C20       1.0  0.37198  0.56996  0.18964  1.0000 -0.134677571
C   C21       1.0  0.38158  0.06036  0.68004  1.0000 -0.134677571
C   C22       1.0  0.06036  0.38158  0.87802  1.0000 -0.134677571
C   C23       1.0  0.68004  0.87802  0.38158  1.0000 -0.1359100573
C   C24       1.0  0.87802  0.68004  0.06036  1.0000 -0.134677571
C   C25       1.0  0.93687  0.12881  0.46959  1.0000 -0.0279286523
C   C26       1.0  0.12881  0.93687  0.46473  1.0000 -0.0279286523
C   C27       1.0  0.46959  0.46473  0.93687  1.0000 -0.0279286523
C   C28       1.0  0.46473  0.46959  0.12881  1.0000 -0.0279286523
C   C29       1.0  0.31313  0.12119  0.78041  1.0000 -0.0279286523
C   C30       1.0  0.12119  0.31313  0.78527  1.0000 -0.0279286523
C   C31       1.0  0.78041  0.78527  0.31313  1.0000 -0.0279286523
C   C32       1.0  0.78527  0.78041  0.12119  1.0000 -0.0279286523
C   C33       1.0  0.94343  0.16395  0.42205  1.0000 -0.169540298
C   C34       1.0  0.16395  0.94343  0.47057  1.0000 -0.169540298
C   C35       1.0  0.42205  0.47057  0.94343  1.0000 -0.169540298
C   C36       1.0  0.47057  0.42205  0.16395  1.0000 -0.169540298
C   C37       1.0  0.30657  0.08605  0.82795  1.0000 -0.169540298
C   C38       1.0  0.08605  0.30657  0.77943  1.0000 -0.169540298
C   C39       1.0  0.82795  0.77943  0.30657  1.0000 -0.169540298
C   C40       1.0  0.77943  0.82795  0.08605  1.0000 -0.169540298
C   C41       1.0  0.88095  0.25995  0.47485  1.0000 0.2130306132
C   C42       1.0  0.25995  0.88095  0.38425  1.0000 0.2130306132
C   C43       1.0  0.47485  0.38425  0.88095  1.0000 0.2130306132
C   C44       1.0  0.38425  0.47485  0.25995  1.0000 0.2130306132
C   C45       1.0  0.36905  0.99005  0.77515  1.0000 0.2130306132
C   C46       1.0  0.99005  0.36905  0.86575  1.0000 0.2130306132
C   C47       1.0  0.77515  0.86575  0.36905  1.0000 0.2130306132
C   C48       1.0  0.86575  0.77515  0.99005  1.0000 0.2130306132
C   C49       1.0  0.81192  0.32124  0.57576  1.0000 -0.2013141222
C   C50       1.0  0.32124  0.81192  0.29108  1.0000 -0.2013141222
C   C51       1.0  0.57576  0.29108  0.81192  1.0000 -0.2013141222
C   C52       1.0  0.29108  0.57576  0.32124  1.0000 -0.2013141222
C   C53       1.0  0.43808  0.92876  0.67424  1.0000 -0.2013141222
C   C54       1.0  0.92876  0.43808  0.95892  1.0000 -0.2013141222
C   C55       1.0  0.67424  0.95892  0.43808  1.0000 -0.2013141222
C   C56       1.0  0.95892  0.67424  0.92876  1.0000 -0.2013141222
C   C57       1.0  0.00088  0.02784  0.41576  1.0000 0.6318752088
C   C58       1.0  0.02784  0.00088  0.55552  1.0000 0.6318752088
C   C59       1.0  0.41576  0.55552  0.00088  1.0000 0.6318752088
C   C60       1.0  0.55552  0.41576  0.02784  1.0000 0.6318752088
C   C61       1.0  0.24912  0.22216  0.83424  1.0000 0.6318752088
C   C62       1.0  0.22216  0.24912  0.69448  1.0000 0.6318752088
C   C63       1.0  0.83424  0.69448  0.24912  1.0000 0.6318752088
C   C64       1.0  0.69448  0.83424  0.22216  1.0000 0.6318752088
C   C65       1.0  0.94795  0.25623  0.33757  1.0000 0.4543316232
C   C66       1.0  0.25623  0.94795  0.45825  1.0000 0.4564988233
C   C67       1.0  0.33757  0.45825  0.94795  1.0000 0.4543316232
C   C68       1.0  0.45825  0.33757  0.25623  1.0000 0.4543316232
C   C69       1.0  0.30205  0.99377  0.91243  1.0000 0.4543316232
C   C70       1.0  0.99377  0.30205  0.79175  1.0000 0.4543316232
C   C71       1.0  0.91243  0.79175  0.30205  1.0000 0.4543316232
C   C72       1.0  0.79175  0.91243  0.99377  1.0000 0.4564988233
C   C73       1.0  0.93214  0.31876  0.31184  1.0000 -0.0279286523
C   C74       1.0  0.31876  0.93214  0.43726  1.0000 -0.0279286523
C   C75       1.0  0.31184  0.43726  0.93214  1.0000 -0.0279286523
C   C76       1.0  0.43726  0.31184  0.31876  1.0000 -0.0279286523
C   C77       1.0  0.31786  0.93124  0.93816  1.0000 -0.0279286523
C   C78       1.0  0.93124  0.31786  0.81274  1.0000 -0.0279286523
C   C79       1.0  0.93816  0.81274  0.31786  1.0000 -0.0279286523
C   C80       1.0  0.81274  0.93816  0.93124  1.0000 -0.0279286523
C   C81       1.0  0.01440  0.27548  0.22232  1.0000 -0.1032356525
C   C82       1.0  0.27548  0.01440  0.48780  1.0000 -0.1032356525
C   C83       1.0  0.22232  0.48780  0.01440  1.0000 -0.1032356525
C   C84       1.0  0.48780  0.22232  0.27548  1.0000 -0.1032356525
C   C85       1.0  0.23560  0.97452  0.02768  1.0000 -0.1032356525
C   C86       1.0  0.97452  0.23560  0.76220  1.0000 -0.1032356525
C   C87       1.0  0.02768  0.76220  0.23560  1.0000 -0.1032356525
C   C88       1.0  0.76220  0.02768  0.97452  1.0000 -0.1032356525
C   C89       1.0  0.00102  0.33198  0.19722  1.0000 -0.0885294809
C   C90       1.0  0.33198  0.00102  0.46978  1.0000 -0.0885294809
C   C91       1.0  0.19722  0.46978  0.00102  1.0000 -0.0885294809
C   C92       1.0  0.46978  0.19722  0.33198  1.0000 -0.0885294809
C   C93       1.0  0.24898  0.91802  0.05278  1.0000 -0.0885294809
C   C94       1.0  0.91802  0.24898  0.78022  1.0000 -0.0885294809
C   C95       1.0  0.05278  0.78022  0.24898  1.0000 -0.0885294809
C   C96       1.0  0.78022  0.05278  0.91802  1.0000 -0.0885294809
C   C97       1.0  0.90413  0.43225  0.26315  1.0000 -0.0372581517
C   C98       1.0  0.43225  0.90413  0.40047  1.0000 -0.0372581517
C   C99       1.0  0.26315  0.40047  0.90413  1.0000 -0.0372581517
C   C100      1.0  0.40047  0.26315  0.43225  1.0000 -0.0372581517
C   C101      1.0  0.34587  0.81775  0.98685  1.0000 -0.0372581517
C   C102      1.0  0.81775  0.34587  0.84953  1.0000 -0.0372581517
C   C103      1.0  0.98685  0.84953  0.34587  1.0000 -0.0372581517
C   C104      1.0  0.84953  0.98685  0.81775  1.0000 -0.0372581517
C   C105      1.0  0.82074  0.47602  0.35318  1.0000 -0.0885294809
C   C106      1.0  0.47602  0.82074  0.35006  1.0000 -0.0885294809
C   C107      1.0  0.35318  0.35006  0.82074  1.0000 -0.0885294809
C   C108      1.0  0.35006  0.35318  0.47602  1.0000 -0.0885294809
C   C109      1.0  0.42926  0.77398  0.89682  1.0000 -0.0885294809
C   C110      1.0  0.77398  0.42926  0.89994  1.0000 -0.0885294809
C   C111      1.0  0.89682  0.89994  0.42926  1.0000 -0.0885294809
C   C112      1.0  0.89994  0.89682  0.77398  1.0000 -0.0885294809
C   C113      1.0  0.83471  0.41995  0.37785  1.0000 -0.1575482756
C   C114      1.0  0.41995  0.83471  0.36749  1.0000 -0.1575482756
C   C115      1.0  0.37785  0.36749  0.83471  1.0000 -0.1575482756
C   C116      1.0  0.36749  0.37785  0.41995  1.0000 -0.1575482756
C   C117      1.0  0.41529  0.83005  0.87215  1.0000 -0.1575482756
C   C118      1.0  0.83005  0.41529  0.88251  1.0000 -0.1575482756
C   C119      1.0  0.87215  0.88251  0.41529  1.0000 -0.1575482756
C   C120      1.0  0.88251  0.87215  0.83005  1.0000 -0.1575482756
C   C121      1.0  0.88977  0.49235  0.23445  1.0000 0.6318752088
C   C122      1.0  0.49235  0.88977  0.38343  1.0000 0.6318752088
C   C123      1.0  0.23445  0.38343  0.88977  1.0000 0.6318752088
C   C124      1.0  0.38343  0.23445  0.49235  1.0000 0.6318752088
C   C125      1.0  0.36023  0.75765  0.01555  1.0000 0.6318752088
C   C126      1.0  0.75765  0.36023  0.86657  1.0000 0.6318752088
C   C127      1.0  0.01555  0.86657  0.36023  1.0000 0.6318752088
C   C128      1.0  0.86657  0.01555  0.75765  1.0000 0.6318752088
N   N1        1.0  0.88070  0.30426  0.43334  1.0000 -0.3724904664
N   N2        1.0  0.30426  0.88070  0.38170  1.0000 -0.3724904664
N   N3        1.0  0.43334  0.38170  0.88070  1.0000 -0.3724904664
N   N4        1.0  0.38170  0.43334  0.30426  1.0000 -0.3724904664
N   N5        1.0  0.36930  0.94574  0.81666  1.0000 -0.3724904664
N   N6        1.0  0.94574  0.36930  0.86830  1.0000 -0.3724904664
N   N7        1.0  0.81666  0.86830  0.36930  1.0000 -0.3724904664
N   N8        1.0  0.86830  0.81666  0.94574  1.0000 -0.3724904664
O   O1        1.0  0.67068  0.44022  0.78118  1.0000 -0.6285192154
O   O2        1.0  0.44022  0.67068  0.10792  1.0000 -0.6285192154
O   O3        1.0  0.78118  0.10792  0.67068  1.0000 -0.6285192154
O   O4        1.0  0.10792  0.78118  0.44022  1.0000 -0.6285192154
O   O5        1.0  0.57932  0.80978  0.46882  1.0000 -0.6285192154
O   O6        1.0  0.80978  0.57932  0.14208  1.0000 -0.6285192154
O   O7        1.0  0.46882  0.14208  0.57932  1.0000 -0.6285192154
O   O8        1.0  0.14208  0.46882  0.80978  1.0000 -0.6285192154
O   O9        1.0  0.72414  0.32518  0.78042  1.0000 -0.6615709968
O   O10       1.0  0.32518  0.72414  0.17026  1.0000 -0.6615709968
O   O11       1.0  0.78042  0.17026  0.72414  1.0000 -0.6615709968
O   O12       1.0  0.17026  0.78042  0.32518  1.0000 -0.6615709968
O   O13       1.0  0.52586  0.92482  0.46958  1.0000 -0.6615709968
O   O14       1.0  0.92482  0.52586  0.07974  1.0000 -0.6615709968
O   O15       1.0  0.46958  0.07974  0.52586  1.0000 -0.6615709968
O   O16       1.0  0.07974  0.46958  0.92482  1.0000 -0.6615709968
O   O17       1.0  0.94757  0.03735  0.47545  1.0000 -0.5963526152
O   O18       1.0  0.03735  0.94757  0.53963  1.0000 -0.5963526152
O   O19       1.0  0.47545  0.53963  0.94757  1.0000 -0.5963526152
O   O20       1.0  0.53963  0.47545  0.03735  1.0000 -0.5963526152
O   O21       1.0  0.30243  0.21265  0.77455  1.0000 -0.5963526152
O   O22       1.0  0.21265  0.30243  0.71037  1.0000 -0.5963526152
O   O23       1.0  0.77455  0.71037  0.30243  1.0000 -0.5963526152
O   O24       1.0  0.71037  0.77455  0.21265  1.0000 -0.5963526152
O   O25       1.0  0.09000  0.94990  0.32850  1.0000 -0.6873576723
O   O26       1.0  0.94990  0.09000  0.63160  1.0000 -0.6873576723
O   O27       1.0  0.32850  0.63160  0.09000  1.0000 -0.6873576723
O   O28       1.0  0.63160  0.32850  0.94990  1.0000 -0.6873576723
O   O29       1.0  0.16000  0.30010  0.92150  1.0000 -0.6873576723
O   O30       1.0  0.30010  0.16000  0.61840  1.0000 -0.6873576723
O   O31       1.0  0.92150  0.61840  0.16000  1.0000 -0.6873576723
O   O32       1.0  0.61840  0.92150  0.30010  1.0000 -0.6873576723
O   O33       1.0  0.02354  0.16624  0.26856  1.0000 -0.4491478138
O   O34       1.0  0.16624  0.02354  0.54166  1.0000 -0.4491478138
O   O35       1.0  0.26856  0.54166  0.02354  1.0000 -0.4491478138
O   O36       1.0  0.54166  0.26856  0.16624  1.0000 -0.4491478138
O   O37       1.0  0.22646  0.08376  0.98144  1.0000 -0.4491478138
O   O38       1.0  0.08376  0.22646  0.70834  1.0000 -0.4491478138
O   O39       1.0  0.98144  0.70834  0.22646  1.0000 -0.4491478138
O   O40       1.0  0.70834  0.98144  0.08376  1.0000 -0.4491478138
O   O41       1.0  0.95056  0.47540  0.18400  1.0000 -0.6786151983
O   O42       1.0  0.47540  0.95056  0.39004  1.0000 -0.6786151983
O   O43       1.0  0.18400  0.39004  0.95056  1.0000 -0.6786151983
O   O44       1.0  0.39004  0.18400  0.47540  1.0000 -0.6786151983
O   O45       1.0  0.29944  0.77460  0.06600  1.0000 -0.6786151983
O   O46       1.0  0.77460  0.29944  0.85996  1.0000 -0.6786151983
O   O47       1.0  0.06600  0.85996  0.29944  1.0000 -0.6786151983
O   O48       1.0  0.85996  0.06600  0.77460  1.0000 -0.6786151983
O   O49       1.0  0.81167  0.55439  0.27101  1.0000 -0.6227104075
O   O50       1.0  0.55439  0.81167  0.36293  1.0000 -0.6227104075
O   O51       1.0  0.27101  0.36293  0.81167  1.0000 -0.6227104075
O   O52       1.0  0.36293  0.27101  0.55439  1.0000 -0.6227104075
O   O53       1.0  0.43833  0.69561  0.97899  1.0000 -0.6227104075
O   O54       1.0  0.69561  0.43833  0.88707  1.0000 -0.6227104075
O   O55       1.0  0.97899  0.88707  0.43833  1.0000 -0.6227104075
O   O56       1.0  0.88707  0.97899  0.69561  1.0000 -0.6227104075
