# DDEC6 charges by PACMAN v1.1 (https://github.com/mtap-research/PACMAN-charge/)
data_2015[Zn][deh]3[ASR]1
_chemical_formula_sum              "Zn8 H48 C96 N16 O32"
_cell_length_a       19.6232
_cell_length_b       19.6232
_cell_length_c       26.306
_cell_angle_alpha    56.4506
_cell_angle_beta     123.549
_cell_angle_gamma    118.933

_symmetry_space_group_name_H-M    "P 1"
_symmetry_Int_Tables_number       1

loop_
  _symmetry_equiv_pos_as_xyz
  'x, y, z'

loop_
  _atom_site_type_symbol
  _atom_site_label
  _atom_site_symmetry_multiplicity
  _atom_site_fract_x
  _atom_site_fract_y
  _atom_site_fract_z
  _atom_site_occupancy
  _atom_site_charge
Zn  Zn1       1.0  0.72566  0.41106  0.75292  1.0000 0.7435759439
Zn  Zn2       1.0  0.41106  0.72566  0.74708  1.0000 0.7435759439
Zn  Zn3       1.0  0.27434  0.58894  0.24708  1.0000 0.7435759439
Zn  Zn4       1.0  0.58894  0.27434  0.25292  1.0000 0.7435759439
Zn  Zn5       1.0  0.17600  0.45860  0.96439  1.0000 0.7688030883
Zn  Zn6       1.0  0.45860  0.17600  0.53561  1.0000 0.7688030883
Zn  Zn7       1.0  0.82400  0.54140  0.03561  1.0000 0.7688030883
Zn  Zn8       1.0  0.54140  0.82400  0.46439  1.0000 0.7688030883
H   H1        1.0  0.78470  0.49050  0.85990  1.0000 0.1306607393
H   H2        1.0  0.49050  0.78470  0.64010  1.0000 0.1306607393
H   H3        1.0  0.21530  0.50950  0.14010  1.0000 0.1306607393
H   H4        1.0  0.50950  0.21530  0.35990  1.0000 0.1306607393
H   H5        1.0  0.60490  0.35670  0.93630  1.0000 0.1383388665
H   H6        1.0  0.35670  0.60490  0.56370  1.0000 0.1383388665
H   H7        1.0  0.39510  0.64330  0.06370  1.0000 0.1383388665
H   H8        1.0  0.64330  0.39510  0.43630  1.0000 0.1383388665
H   H9        1.0  0.53290  0.28130  0.86850  1.0000 0.1306607393
H   H10       1.0  0.28130  0.53290  0.63150  1.0000 0.1306607393
H   H11       1.0  0.46710  0.71870  0.13150  1.0000 0.1306607393
H   H12       1.0  0.71870  0.46710  0.36850  1.0000 0.1306607393
H   H13       1.0  0.45250  0.23710  0.78640  1.0000 0.1306607393
H   H14       1.0  0.23710  0.45250  0.71360  1.0000 0.1306607393
H   H15       1.0  0.54750  0.76290  0.21360  1.0000 0.1306607393
H   H16       1.0  0.76290  0.54750  0.28640  1.0000 0.1306607393
H   H17       1.0  0.39240  0.17980  0.70820  1.0000 0.1192694738
H   H18       1.0  0.17980  0.39240  0.79180  1.0000 0.1192694738
H   H19       1.0  0.60760  0.82020  0.29180  1.0000 0.1192694738
H   H20       1.0  0.82020  0.60760  0.20820  1.0000 0.1192694738
H   H21       1.0  0.60650  0.30110  0.67230  1.0000 0.1306607393
H   H22       1.0  0.30110  0.60650  0.82770  1.0000 0.1306607393
H   H23       1.0  0.39350  0.69890  0.32770  1.0000 0.1306607393
H   H24       1.0  0.69890  0.39350  0.17230  1.0000 0.1306607393
H   H25       1.0  0.98760  0.42540  0.88260  1.0000 0.1383388665
H   H26       1.0  0.42540  0.98760  0.61740  1.0000 0.1306607393
H   H27       1.0  0.01240  0.57460  0.11740  1.0000 0.1383388665
H   H28       1.0  0.57460  0.01240  0.38260  1.0000 0.1383388665
H   H29       1.0  0.88370  0.17650  0.96990  1.0000 0.1306607393
H   H30       1.0  0.17650  0.88370  0.53010  1.0000 0.1306607393
H   H31       1.0  0.11630  0.82350  0.03010  1.0000 0.1306607393
H   H32       1.0  0.82350  0.11630  0.46990  1.0000 0.1306607393
H   H33       1.0  0.01740  0.15880  0.05230  1.0000 0.1306607393
H   H34       1.0  0.15880  0.01740  0.44770  1.0000 0.1306607393
H   H35       1.0  0.98260  0.84120  0.94770  1.0000 0.1306607393
H   H36       1.0  0.84120  0.98260  0.55230  1.0000 0.1306607393
H   H37       1.0  0.16130  0.15590  0.11560  1.0000 0.1306607393
H   H38       1.0  0.15590  0.16130  0.38440  1.0000 0.1306607393
H   H39       1.0  0.83870  0.84410  0.88440  1.0000 0.1306607393
H   H40       1.0  0.84410  0.83870  0.61560  1.0000 0.1306607393
H   H41       1.0  0.30620  0.16580  0.17820  1.0000 0.1306607393
H   H42       1.0  0.16580  0.30620  0.32180  1.0000 0.1306607393
H   H43       1.0  0.69380  0.83420  0.82180  1.0000 0.1306607393
H   H44       1.0  0.83420  0.69380  0.67820  1.0000 0.1306607393
H   H45       1.0  0.35800  0.41820  0.06940  1.0000 0.1306607393
H   H46       1.0  0.41820  0.35800  0.43060  1.0000 0.1306607393
H   H47       1.0  0.64200  0.58180  0.93060  1.0000 0.1306607393
H   H48       1.0  0.58180  0.64200  0.56940  1.0000 0.1306607393
C   C1        1.0  0.73350  0.44810  0.86150  1.0000 0.0418902052
C   C2        1.0  0.44810  0.73350  0.63850  1.0000 0.0418902052
C   C3        1.0  0.26650  0.55190  0.13850  1.0000 0.0418902052
C   C4        1.0  0.55190  0.26650  0.36150  1.0000 0.0418902052
C   C5        1.0  0.70150  0.43070  0.90440  1.0000 -0.0182104341
C   C6        1.0  0.43070  0.70150  0.59560  1.0000 -0.0182104341
C   C7        1.0  0.29850  0.56930  0.09560  1.0000 -0.0182104341
C   C8        1.0  0.56930  0.29850  0.40440  1.0000 -0.0182104341
C   C9        1.0  0.62670  0.36850  0.90700  1.0000 -0.0503419584
C   C10       1.0  0.36850  0.62670  0.59300  1.0000 -0.0573755675
C   C11       1.0  0.37330  0.63150  0.09300  1.0000 -0.0503419584
C   C12       1.0  0.63150  0.37330  0.40700  1.0000 -0.0503419584
C   C13       1.0  0.58400  0.32380  0.86670  1.0000 -0.1562072949
C   C14       1.0  0.32380  0.58400  0.63330  1.0000 -0.1562072949
C   C15       1.0  0.41600  0.67620  0.13330  1.0000 -0.1562072949
C   C16       1.0  0.67620  0.41600  0.36670  1.0000 -0.1562072949
C   C17       1.0  0.61600  0.34100  0.82390  1.0000 0.1632622216
C   C18       1.0  0.34100  0.61600  0.67610  1.0000 0.1632622216
C   C19       1.0  0.38400  0.65900  0.17610  1.0000 0.1632622216
C   C20       1.0  0.65900  0.38400  0.32390  1.0000 0.1713487907
C   C21       1.0  0.56510  0.30310  0.77580  1.0000 0.1713487907
C   C22       1.0  0.30310  0.56510  0.72420  1.0000 0.1713487907
C   C23       1.0  0.43490  0.69690  0.22420  1.0000 0.1713487907
C   C24       1.0  0.69690  0.43490  0.27580  1.0000 0.1713487907
C   C25       1.0  0.48370  0.25010  0.76320  1.0000 -0.1694262321
C   C26       1.0  0.25010  0.48370  0.73680  1.0000 -0.1694262321
C   C27       1.0  0.51630  0.74990  0.23680  1.0000 -0.1694262321
C   C28       1.0  0.74990  0.51630  0.26320  1.0000 -0.1694262321
C   C29       1.0  0.44800  0.21600  0.71680  1.0000 -0.0408713331
C   C30       1.0  0.21600  0.44800  0.78320  1.0000 -0.0408713331
C   C31       1.0  0.55200  0.78400  0.28320  1.0000 -0.0408713331
C   C32       1.0  0.78400  0.55200  0.21680  1.0000 -0.0408713331
C   C33       1.0  0.49380  0.23500  0.68290  1.0000 -0.0503419584
C   C34       1.0  0.23500  0.49380  0.81710  1.0000 -0.0503419584
C   C35       1.0  0.50620  0.76500  0.31710  1.0000 -0.0503419584
C   C36       1.0  0.76500  0.50620  0.18290  1.0000 -0.0503419584
C   C37       1.0  0.57520  0.28800  0.69550  1.0000 0.0612459935
C   C38       1.0  0.28800  0.57520  0.80450  1.0000 0.0612459935
C   C39       1.0  0.42480  0.71200  0.30450  1.0000 0.0612459935
C   C40       1.0  0.71200  0.42480  0.19550  1.0000 0.0612459935
C   C41       1.0  0.99370  0.37130  0.91710  1.0000 0.0612459935
C   C42       1.0  0.37130  0.99370  0.58290  1.0000 0.0612459935
C   C43       1.0  0.00630  0.62870  0.08290  1.0000 0.0548784121
C   C44       1.0  0.62870  0.00630  0.41710  1.0000 0.0612459935
C   C45       1.0  0.92300  0.30260  0.91850  1.0000 -0.0408713331
C   C46       1.0  0.30260  0.92300  0.58150  1.0000 -0.0408713331
C   C47       1.0  0.07700  0.69740  0.08150  1.0000 -0.0408713331
C   C48       1.0  0.69740  0.07700  0.41850  1.0000 -0.0408713331
C   C49       1.0  0.93190  0.22350  0.96890  1.0000 -0.0320348518
C   C50       1.0  0.22350  0.93190  0.53110  1.0000 -0.0320348518
C   C51       1.0  0.06810  0.77650  0.03110  1.0000 -0.0320348518
C   C52       1.0  0.77650  0.06810  0.46890  1.0000 -0.0320348518
C   C53       1.0  0.01140  0.21300  0.01790  1.0000 -0.1694262321
C   C54       1.0  0.21300  0.01140  0.48210  1.0000 -0.1769806074
C   C55       1.0  0.98860  0.78700  0.98210  1.0000 -0.1694262321
C   C56       1.0  0.78700  0.98860  0.51790  1.0000 -0.1694262321
C   C57       1.0  0.08200  0.28160  0.01650  1.0000 0.1880511029
C   C58       1.0  0.28160  0.08200  0.48350  1.0000 0.1880511029
C   C59       1.0  0.91800  0.71840  0.98350  1.0000 0.1880511029
C   C60       1.0  0.71840  0.91800  0.51650  1.0000 0.1880511029
C   C61       1.0  0.17360  0.28120  0.05530  1.0000 0.18016574
C   C62       1.0  0.28120  0.17360  0.44470  1.0000 0.18016574
C   C63       1.0  0.82640  0.71880  0.94470  1.0000 0.18016574
C   C64       1.0  0.71880  0.82640  0.55530  1.0000 0.18016574
C   C65       1.0  0.20120  0.20920  0.10620  1.0000 -0.1769806074
C   C66       1.0  0.20920  0.20120  0.39380  1.0000 -0.1769806074
C   C67       1.0  0.79880  0.79080  0.89380  1.0000 -0.1769806074
C   C68       1.0  0.79080  0.79880  0.60620  1.0000 -0.1769806074
C   C69       1.0  0.28720  0.21500  0.14340  1.0000 -0.0320348518
C   C70       1.0  0.21500  0.28720  0.35660  1.0000 -0.0320348518
C   C71       1.0  0.71280  0.78500  0.85660  1.0000 -0.0320348518
C   C72       1.0  0.78500  0.71280  0.64340  1.0000 -0.0320348518
C   C73       1.0  0.34570  0.29290  0.12970  1.0000 -0.0573755675
C   C74       1.0  0.29290  0.34570  0.37030  1.0000 -0.0573755675
C   C75       1.0  0.65430  0.70710  0.87030  1.0000 -0.0573755675
C   C76       1.0  0.70710  0.65430  0.62970  1.0000 -0.0573755675
C   C77       1.0  0.31810  0.36490  0.07880  1.0000 0.0612459935
C   C78       1.0  0.36490  0.31810  0.42120  1.0000 0.0612459935
C   C79       1.0  0.68190  0.63510  0.92120  1.0000 0.0612459935
C   C80       1.0  0.63510  0.68190  0.57880  1.0000 0.0612459935
C   C81       1.0  0.77250  0.49150  0.94410  1.0000 0.4994338735
C   C82       1.0  0.49150  0.77250  0.55590  1.0000 0.4994338735
C   C83       1.0  0.22750  0.50850  0.05590  1.0000 0.4994338735
C   C84       1.0  0.50850  0.22750  0.44410  1.0000 0.4994338735
C   C85       1.0  0.44140  0.19720  0.62860  1.0000 0.5286354317
C   C86       1.0  0.19720  0.44140  0.87140  1.0000 0.5286354317
C   C87       1.0  0.55860  0.80280  0.37140  1.0000 0.5286354317
C   C88       1.0  0.80280  0.55860  0.12860  1.0000 0.5286354317
C   C89       1.0  0.83080  0.30820  0.86240  1.0000 0.5286354317
C   C90       1.0  0.30820  0.83080  0.63760  1.0000 0.535720153
C   C91       1.0  0.16920  0.69180  0.13760  1.0000 0.535720153
C   C92       1.0  0.69180  0.16920  0.36240  1.0000 0.5286354317
C   C93       1.0  0.43910  0.30590  0.17010  1.0000 0.5286354317
C   C94       1.0  0.30590  0.43910  0.32990  1.0000 0.5286354317
C   C95       1.0  0.56090  0.69410  0.82990  1.0000 0.5286354317
C   C96       1.0  0.69410  0.56090  0.67010  1.0000 0.5286354317
N   N1        1.0  0.69080  0.40320  0.82130  1.0000 -0.2428454549
N   N2        1.0  0.40320  0.69080  0.67870  1.0000 -0.2428454549
N   N3        1.0  0.30920  0.59680  0.17870  1.0000 -0.2428454549
N   N4        1.0  0.59680  0.30920  0.32130  1.0000 -0.2428454549
N   N5        1.0  0.61090  0.32210  0.74190  1.0000 -0.2657825317
N   N6        1.0  0.32210  0.61090  0.75810  1.0000 -0.2657825317
N   N7        1.0  0.38910  0.67790  0.25810  1.0000 -0.2598654614
N   N8        1.0  0.67790  0.38910  0.24190  1.0000 -0.2657825317
N   N9        1.0  0.07320  0.36080  0.96610  1.0000 -0.2793977351
N   N10       1.0  0.36080  0.07320  0.53390  1.0000 -0.2793977351
N   N11       1.0  0.92680  0.63920  0.03390  1.0000 -0.2793977351
N   N12       1.0  0.63920  0.92680  0.46610  1.0000 -0.2793977351
N   N13       1.0  0.23210  0.35910  0.04160  1.0000 -0.2598654614
N   N14       1.0  0.35910  0.23210  0.45840  1.0000 -0.2598654614
N   N15       1.0  0.76790  0.64090  0.95840  1.0000 -0.2598654614
N   N16       1.0  0.64090  0.76790  0.54160  1.0000 -0.2598654614
O   O1        1.0  0.73730  0.46590  0.99060  1.0000 -0.5883768068
O   O2        1.0  0.46590  0.73730  0.50940  1.0000 -0.5883768068
O   O3        1.0  0.26270  0.53410  0.00940  1.0000 -0.5883768068
O   O4        1.0  0.53410  0.26270  0.49060  1.0000 -0.5883768068
O   O5        1.0  0.82650  0.54410  0.93670  1.0000 -0.4365758862
O   O6        1.0  0.54410  0.82650  0.56330  1.0000 -0.4365758862
O   O7        1.0  0.17350  0.45590  0.06330  1.0000 -0.4365758862
O   O8        1.0  0.45590  0.17350  0.43670  1.0000 -0.4344609545
O   O9        1.0  0.37810  0.15050  0.62010  1.0000 -0.4575439261
O   O10       1.0  0.15050  0.37810  0.87990  1.0000 -0.4575439261
O   O11       1.0  0.62190  0.84950  0.37990  1.0000 -0.4575439261
O   O12       1.0  0.84950  0.62190  0.12010  1.0000 -0.454660909
O   O13       1.0  0.49460  0.22020  0.60350  1.0000 -0.5295788661
O   O14       1.0  0.22020  0.49460  0.89650  1.0000 -0.5295788661
O   O15       1.0  0.50540  0.77980  0.39650  1.0000 -0.5295788661
O   O16       1.0  0.77980  0.50540  0.10350  1.0000 -0.5295788661
O   O17       1.0  0.77190  0.24970  0.86810  1.0000 -0.5024721117
O   O18       1.0  0.24970  0.77190  0.63190  1.0000 -0.5024721117
O   O19       1.0  0.22810  0.75030  0.13190  1.0000 -0.5024721117
O   O20       1.0  0.75030  0.22810  0.36810  1.0000 -0.5024721117
O   O21       1.0  0.83700  0.38300  0.82440  1.0000 -0.5101973654
O   O22       1.0  0.38300  0.83700  0.67560  1.0000 -0.5101973654
O   O23       1.0  0.16300  0.61700  0.17560  1.0000 -0.5101973654
O   O24       1.0  0.61700  0.16300  0.32440  1.0000 -0.5101973654
O   O25       1.0  0.45400  0.23400  0.21500  1.0000 -0.5222472714
O   O26       1.0  0.23400  0.45400  0.28500  1.0000 -0.5222472714
O   O27       1.0  0.54600  0.76600  0.78500  1.0000 -0.5222472714
O   O28       1.0  0.76600  0.54600  0.71500  1.0000 -0.5222472714
O   O29       1.0  0.48700  0.37160  0.15500  1.0000 -0.5101973654
O   O30       1.0  0.37160  0.48700  0.34500  1.0000 -0.5101973654
O   O31       1.0  0.51300  0.62840  0.84500  1.0000 -0.5101973654
O   O32       1.0  0.62840  0.51300  0.65500  1.0000 -0.5101973654
