# DDEC6 charges by PACMAN v1.1 (https://github.com/mtap-research/PACMAN-charge/)
data_2015[Cu][nan]3[ASR]14
_chemical_formula_sum              "Cu4 H16 C32 N12 O16"
_cell_length_a       4.693
_cell_length_b       19.849
_cell_length_c       11.096
_cell_angle_alpha    90
_cell_angle_beta     96.9
_cell_angle_gamma    90

_symmetry_space_group_name_H-M    "P 1"
_symmetry_Int_Tables_number       1

loop_
  _symmetry_equiv_pos_as_xyz
  'x, y, z'

loop_
  _atom_site_type_symbol
  _atom_site_label
  _atom_site_symmetry_multiplicity
  _atom_site_fract_x
  _atom_site_fract_y
  _atom_site_fract_z
  _atom_site_occupancy
  _atom_site_charge
Cu  Cu1       1.0  0.28000  0.83935  0.93580  1.0000 0.7391107119
Cu  Cu2       1.0  0.28000  0.66065  0.43580  1.0000 0.7391107119
Cu  Cu3       1.0  0.72000  0.16065  0.06420  1.0000 0.7391107119
Cu  Cu4       1.0  0.72000  0.33935  0.56420  1.0000 0.7391107119
H   H1        1.0  0.23950  0.58660  0.89720  1.0000 0.1135329044
H   H2        1.0  0.23950  0.91340  0.39720  1.0000 0.1135329044
H   H3        1.0  0.76050  0.41340  0.10280  1.0000 0.1135329044
H   H4        1.0  0.76050  0.08660  0.60280  1.0000 0.1135329044
H   H5        1.0  0.41960  0.68640  0.99150  1.0000 0.1349913514
H   H6        1.0  0.41960  0.81360  0.49150  1.0000 0.1365870472
H   H7        1.0  0.58040  0.31360  0.00850  1.0000 0.1365870472
H   H8        1.0  0.58040  0.18640  0.50850  1.0000 0.1349913514
H   H9        1.0  0.56280  0.94920  0.82240  1.0000 0.1365870472
H   H10       1.0  0.56280  0.55080  0.32240  1.0000 0.1365870472
H   H11       1.0  0.43720  0.05080  0.17760  1.0000 0.1365870472
H   H12       1.0  0.43720  0.44920  0.67760  1.0000 0.1365870472
H   H13       1.0  0.24740  0.94580  0.13290  1.0000 0.1178351677
H   H14       1.0  0.24740  0.55420  0.63290  1.0000 0.1178351677
H   H15       1.0  0.75260  0.05420  0.86710  1.0000 0.1178351677
H   H16       1.0  0.75260  0.44580  0.36710  1.0000 0.1178351677
C   C1        1.0  0.03800  0.74890  0.76300  1.0000 0.0584588907
C   C2        1.0  0.03800  0.75110  0.26300  1.0000 0.0584588907
C   C3        1.0  0.96200  0.25110  0.23700  1.0000 0.0584588907
C   C4        1.0  0.96200  0.24890  0.73700  1.0000 0.0584588907
C   C5        1.0  0.93100  0.69040  0.70800  1.0000 0.0788460522
C   C6        1.0  0.93100  0.80960  0.20800  1.0000 0.0788460522
C   C7        1.0  0.06900  0.30960  0.29200  1.0000 0.0788460522
C   C8        1.0  0.06900  0.19040  0.79200  1.0000 0.0788460522
C   C9        1.0  0.18200  0.63020  0.86000  1.0000 0.0473602823
C   C10       1.0  0.18200  0.86980  0.36000  1.0000 0.0473602823
C   C11       1.0  0.81800  0.36980  0.14000  1.0000 0.0473602823
C   C12       1.0  0.81800  0.13020  0.64000  1.0000 0.0473602823
C   C13       1.0  0.28900  0.68760  0.91900  1.0000 0.0693112369
C   C14       1.0  0.28900  0.81240  0.41900  1.0000 0.0693112369
C   C15       1.0  0.71100  0.31240  0.08100  1.0000 0.0693112369
C   C16       1.0  0.71100  0.18760  0.58100  1.0000 0.0693112369
C   C17       1.0  0.97900  0.81990  0.71200  1.0000 0.5306607223
C   C18       1.0  0.97900  0.68010  0.21200  1.0000 0.5306607223
C   C19       1.0  0.02100  0.18010  0.28800  1.0000 0.5306607223
C   C20       1.0  0.02100  0.31990  0.78800  1.0000 0.5306607223
C   C21       1.0  0.74300  0.68410  0.59000  1.0000 0.5430481768
C   C22       1.0  0.74300  0.81590  0.09000  1.0000 0.5430481768
C   C23       1.0  0.25700  0.31590  0.41000  1.0000 0.5430481768
C   C24       1.0  0.25700  0.18410  0.91000  1.0000 0.5430481768
C   C25       1.0  0.53500  0.96860  0.89900  1.0000 0.0584588907
C   C26       1.0  0.53500  0.53140  0.39900  1.0000 0.0584588907
C   C27       1.0  0.46500  0.03140  0.10100  1.0000 0.0584588907
C   C28       1.0  0.46500  0.46860  0.60100  1.0000 0.0584588907
C   C29       1.0  0.35300  0.96720  0.07700  1.0000 0.0325048118
C   C30       1.0  0.35300  0.53280  0.57700  1.0000 0.0325048118
C   C31       1.0  0.64700  0.03280  0.92300  1.0000 0.0325048118
C   C32       1.0  0.64700  0.46720  0.42300  1.0000 0.0325048118
N   N1        1.0  0.21200  0.74740  0.86740  1.0000 -0.2116250359
N   N2        1.0  0.21200  0.75260  0.36740  1.0000 -0.2116250359
N   N3        1.0  0.78800  0.25260  0.13260  1.0000 -0.2116250359
N   N4        1.0  0.78800  0.24740  0.63260  1.0000 -0.2116250359
N   N5        1.0  0.00600  0.63140  0.75800  1.0000 -0.2444007509
N   N6        1.0  0.00600  0.86860  0.25800  1.0000 -0.2444007509
N   N7        1.0  0.99400  0.36860  0.24200  1.0000 -0.2444007509
N   N8        1.0  0.99400  0.13140  0.74200  1.0000 -0.2444007509
N   N9        1.0  0.39500  0.93660  0.97500  1.0000 -0.1633742564
N   N10       1.0  0.39500  0.56340  0.47500  1.0000 -0.1633742564
N   N11       1.0  0.60500  0.06340  0.02500  1.0000 -0.1633742564
N   N12       1.0  0.60500  0.43660  0.52500  1.0000 -0.1633742564
O   O1        1.0  0.10400  0.86510  0.77450  1.0000 -0.5095417165
O   O2        1.0  0.10400  0.63490  0.27450  1.0000 -0.5095417165
O   O3        1.0  0.89600  0.13490  0.22550  1.0000 -0.5095417165
O   O4        1.0  0.89600  0.36510  0.72550  1.0000 -0.5095417165
O   O5        1.0  0.83800  0.82660  0.61310  1.0000 -0.4921656215
O   O6        1.0  0.83800  0.67340  0.11310  1.0000 -0.4921656215
O   O7        1.0  0.16200  0.17340  0.38690  1.0000 -0.4921656215
O   O8        1.0  0.16200  0.32660  0.88690  1.0000 -0.4921656215
O   O9        1.0  0.47900  0.69030  0.59370  1.0000 -0.4921656215
O   O10       1.0  0.47900  0.80970  0.09370  1.0000 -0.4921656215
O   O11       1.0  0.52100  0.30970  0.40630  1.0000 -0.4921656215
O   O12       1.0  0.52100  0.19030  0.90630  1.0000 -0.4921656215
O   O13       1.0  0.85200  0.66850  0.49830  1.0000 -0.5482310914
O   O14       1.0  0.85200  0.83150  0.99830  1.0000 -0.5482310914
O   O15       1.0  0.14800  0.33150  0.50170  1.0000 -0.5482310914
O   O16       1.0  0.14800  0.16850  0.00170  1.0000 -0.5482310914
