# DDEC6 charges by PACMAN v1.1 (https://github.com/mtap-research/PACMAN-charge/)
data_2015[Co][nan]2[ASR]3
_chemical_formula_sum              "Co2 H28 C44 S4 N4 O8"
_cell_length_a       11.8748
_cell_length_b       11.8748
_cell_length_c       11.3293
_cell_angle_alpha    88.0171
_cell_angle_beta     91.9829
_cell_angle_gamma    52.3731

_symmetry_space_group_name_H-M    "P 1"
_symmetry_Int_Tables_number       1

loop_
  _symmetry_equiv_pos_as_xyz
  'x, y, z'

loop_
  _atom_site_type_symbol
  _atom_site_label
  _atom_site_symmetry_multiplicity
  _atom_site_fract_x
  _atom_site_fract_y
  _atom_site_fract_z
  _atom_site_occupancy
  _atom_site_charge
Co  Co1       1.0  0.91875  0.08125  0.78699  1.0000 0.8063236431
Co  Co2       1.0  0.08125  0.91875  0.21301  1.0000 0.8063236431
H   H1        1.0  0.46500  0.92420  0.71840  1.0000 0.1009904499
H   H2        1.0  0.92420  0.46500  0.28160  1.0000 0.1009904499
H   H3        1.0  0.53500  0.07580  0.28160  1.0000 0.1009904499
H   H4        1.0  0.07580  0.53500  0.71840  1.0000 0.1009904499
H   H5        1.0  0.38730  0.31110  0.79040  1.0000 0.1459849433
H   H6        1.0  0.31110  0.38730  0.20960  1.0000 0.1459849433
H   H7        1.0  0.61270  0.68890  0.20960  1.0000 0.1459849433
H   H8        1.0  0.68890  0.61270  0.79040  1.0000 0.1459849433
H   H9        1.0  0.25640  0.04140  0.01580  1.0000 0.1187681325
H   H10       1.0  0.04140  0.25640  0.98420  1.0000 0.1187681325
H   H11       1.0  0.74360  0.95860  0.98420  1.0000 0.1187681325
H   H12       1.0  0.95860  0.74360  0.01580  1.0000 0.1187681325
H   H13       1.0  0.64490  0.91550  0.80880  1.0000 0.1187681325
H   H14       1.0  0.91550  0.64490  0.19120  1.0000 0.1187681325
H   H15       1.0  0.35510  0.08450  0.19120  1.0000 0.1187681325
H   H16       1.0  0.08450  0.35510  0.80880  1.0000 0.1187681325
H   H17       1.0  0.60560  0.24340  0.85870  1.0000 0.1122256771
H   H18       1.0  0.24340  0.60560  0.14130  1.0000 0.1122256771
H   H19       1.0  0.39440  0.75660  0.14130  1.0000 0.1122256771
H   H20       1.0  0.75660  0.39440  0.85870  1.0000 0.1122256771
H   H21       1.0  0.77200  0.06100  0.56860  1.0000 0.1301442452
H   H22       1.0  0.06100  0.77200  0.43140  1.0000 0.1301442452
H   H23       1.0  0.22800  0.93900  0.43140  1.0000 0.1301442452
H   H24       1.0  0.93900  0.22800  0.56860  1.0000 0.1301442452
H   H25       1.0  0.55920  0.12220  0.49310  1.0000 0.1301442452
H   H26       1.0  0.12220  0.55920  0.50690  1.0000 0.1301442452
H   H27       1.0  0.44080  0.87780  0.50690  1.0000 0.1301442452
H   H28       1.0  0.87780  0.44080  0.49310  1.0000 0.1301442452
C   C1        1.0  0.44009  0.01959  0.03143  1.0000 0.0736946773
C   C2        1.0  0.01959  0.44009  0.96857  1.0000 0.0736946773
C   C3        1.0  0.55991  0.98041  0.96857  1.0000 0.0736946773
C   C4        1.0  0.98041  0.55991  0.03143  1.0000 0.0736946773
C   C5        1.0  0.34025  0.98623  0.85846  1.0000 -0.0169226812
C   C6        1.0  0.98623  0.34025  0.14154  1.0000 -0.0169226812
C   C7        1.0  0.65975  0.01377  0.14154  1.0000 -0.0169226812
C   C8        1.0  0.01377  0.65975  0.85846  1.0000 -0.0169226812
C   C9        1.0  0.45956  0.94726  0.79670  1.0000 -0.1273761436
C   C10       1.0  0.94726  0.45956  0.20330  1.0000 -0.1273761436
C   C11       1.0  0.54044  0.05274  0.20330  1.0000 -0.1273761436
C   C12       1.0  0.05274  0.54044  0.79670  1.0000 -0.1273761436
C   C13       1.0  0.46453  0.25961  0.74384  1.0000 -0.1827562138
C   C14       1.0  0.25961  0.46453  0.25616  1.0000 -0.1827562138
C   C15       1.0  0.53547  0.74039  0.25616  1.0000 -0.1827562138
C   C16       1.0  0.74039  0.53547  0.74384  1.0000 -0.1827562138
C   C17       1.0  0.33310  0.01908  0.97429  1.0000 -0.1519840925
C   C18       1.0  0.01908  0.33310  0.02571  1.0000 -0.1519840925
C   C19       1.0  0.66690  0.98092  0.02571  1.0000 -0.1519840925
C   C20       1.0  0.98092  0.66690  0.97429  1.0000 -0.1519840925
C   C21       1.0  0.44865  0.22335  0.63338  1.0000 0.1009904499
C   C22       1.0  0.22335  0.44865  0.36662  1.0000 0.1009904499
C   C23       1.0  0.55135  0.77665  0.36662  1.0000 0.1009904499
C   C24       1.0  0.77665  0.55135  0.63338  1.0000 0.1009904499
C   C25       1.0  0.56651  0.94317  0.85038  1.0000 -0.1519840925
C   C26       1.0  0.94317  0.56651  0.14962  1.0000 -0.1519840925
C   C27       1.0  0.43349  0.05683  0.14962  1.0000 -0.1519840925
C   C28       1.0  0.05683  0.43349  0.85038  1.0000 -0.1519840925
C   C29       1.0  0.59632  0.21852  0.78408  1.0000 0.0808174789
C   C30       1.0  0.21852  0.59632  0.21592  1.0000 0.0808174789
C   C31       1.0  0.40368  0.78148  0.21592  1.0000 0.0808174789
C   C32       1.0  0.78148  0.40368  0.78408  1.0000 0.0808174789
C   C33       1.0  0.22209  0.99501  0.79446  1.0000 0.5524321452
C   C34       1.0  0.99501  0.22209  0.20554  1.0000 0.5524321452
C   C35       1.0  0.77791  0.00499  0.20554  1.0000 0.5524321452
C   C36       1.0  0.00499  0.77791  0.79446  1.0000 0.5524321452
C   C37       1.0  0.69374  0.11154  0.61422  1.0000 0.1009904499
C   C38       1.0  0.11154  0.69374  0.38578  1.0000 0.1009904499
C   C39       1.0  0.30626  0.88846  0.38578  1.0000 0.1009904499
C   C40       1.0  0.88846  0.30626  0.61422  1.0000 0.1009904499
C   C41       1.0  0.56612  0.14812  0.56798  1.0000 -0.1827562138
C   C42       1.0  0.14812  0.56612  0.43202  1.0000 -0.18501762
C   C43       1.0  0.43388  0.85188  0.43202  1.0000 -0.18501762
C   C44       1.0  0.85188  0.43388  0.56798  1.0000 -0.18501762
S   S1        1.0  0.27926  0.26964  0.58971  1.0000 0.024831393
S   S2        1.0  0.26964  0.27926  0.41029  1.0000 0.024831393
S   S3        1.0  0.72074  0.73036  0.41029  1.0000 0.0265329287
S   S4        1.0  0.73036  0.72074  0.58971  1.0000 0.024831393
N   N1        1.0  0.71158  0.14474  0.72169  1.0000 -0.2514124259
N   N2        1.0  0.14474  0.71158  0.27831  1.0000 -0.2514124259
N   N3        1.0  0.28842  0.85526  0.27831  1.0000 -0.2514124259
N   N4        1.0  0.85526  0.28842  0.72169  1.0000 -0.2514124259
O   O1        1.0  0.11895  0.02551  0.85455  1.0000 -0.5604124113
O   O2        1.0  0.02551  0.11895  0.14545  1.0000 -0.5604124113
O   O3        1.0  0.88105  0.97449  0.14545  1.0000 -0.5604124113
O   O4        1.0  0.97449  0.88105  0.85455  1.0000 -0.5604124113
O   O5        1.0  0.23136  0.97382  0.68729  1.0000 -0.5670692965
O   O6        1.0  0.97382  0.23136  0.31271  1.0000 -0.5670692965
O   O7        1.0  0.76864  0.02618  0.31271  1.0000 -0.5670692965
O   O8        1.0  0.02618  0.76864  0.68729  1.0000 -0.5670692965
