# DDEC6 charges by PACMAN v1.1 (https://github.com/mtap-research/PACMAN-charge/)
data_2015[Sc][nan]3[ASR]2
_chemical_formula_sum              "Sc4 H24 C48 O24"
_cell_length_a       19.9182
_cell_length_b       17.5977
_cell_length_c       11.2401
_cell_angle_alpha    84.301
_cell_angle_beta     61.5377
_cell_angle_gamma    34.1613

_symmetry_space_group_name_H-M    "P 1"
_symmetry_Int_Tables_number       1

loop_
  _symmetry_equiv_pos_as_xyz
  'x, y, z'

loop_
  _atom_site_type_symbol
  _atom_site_label
  _atom_site_symmetry_multiplicity
  _atom_site_fract_x
  _atom_site_fract_y
  _atom_site_fract_z
  _atom_site_occupancy
  _atom_site_charge
Sc  Sc1       1.0  0.23912  0.23912  0.76088  1.0000 1.8158689565
Sc  Sc2       1.0  0.76088  0.76088  0.23912  1.0000 1.8158689565
Sc  Sc3       1.0  0.01088  0.01088  0.48912  1.0000 1.8158689565
Sc  Sc4       1.0  0.48912  0.48912  0.01088  1.0000 1.8158689565
H   H1        1.0  0.97470  0.87130  0.71530  1.0000 0.1244774344
H   H2        1.0  0.87130  0.97470  0.43870  1.0000 0.1244774344
H   H3        1.0  0.71530  0.43870  0.97470  1.0000 0.1244774344
H   H4        1.0  0.43870  0.71530  0.87130  1.0000 0.1244774344
H   H5        1.0  0.27530  0.37870  0.53470  1.0000 0.1244774344
H   H6        1.0  0.37870  0.27530  0.81130  1.0000 0.1244774344
H   H7        1.0  0.53470  0.81130  0.27530  1.0000 0.1244774344
H   H8        1.0  0.81130  0.53470  0.37870  1.0000 0.1244774344
H   H9        1.0  0.89910  0.83950  0.91110  1.0000 0.1263541127
H   H10       1.0  0.83950  0.89910  0.35030  1.0000 0.1263541127
H   H11       1.0  0.91110  0.35030  0.89910  1.0000 0.1263541127
H   H12       1.0  0.35030  0.91110  0.83950  1.0000 0.1263541127
H   H13       1.0  0.35090  0.41050  0.33890  1.0000 0.1263541127
H   H14       1.0  0.41050  0.35090  0.89970  1.0000 0.1263541127
H   H15       1.0  0.33890  0.89970  0.35090  1.0000 0.1263541127
H   H16       1.0  0.89970  0.33890  0.41050  1.0000 0.1263541127
H   H17       1.0  0.96890  0.53250  0.41770  1.0000 0.1263541127
H   H18       1.0  0.53250  0.96890  0.08090  1.0000 0.1263541127
H   H19       1.0  0.41770  0.08090  0.96890  1.0000 0.1263541127
H   H20       1.0  0.08090  0.41770  0.53250  1.0000 0.1263541127
H   H21       1.0  0.28110  0.71750  0.83230  1.0000 0.1263541127
H   H22       1.0  0.71750  0.28110  0.16910  1.0000 0.1263541127
H   H23       1.0  0.83230  0.16910  0.28110  1.0000 0.1263541127
H   H24       1.0  0.16910  0.83230  0.71750  1.0000 0.1263541127
C   C1        1.0  0.02437  0.59037  0.86623  1.0000 0.648178888
C   C2        1.0  0.59037  0.02437  0.51903  1.0000 0.648178888
C   C3        1.0  0.86623  0.51903  0.02437  1.0000 0.648178888
C   C4        1.0  0.51903  0.86623  0.59037  1.0000 0.648178888
C   C5        1.0  0.22563  0.65963  0.38377  1.0000 0.648178888
C   C6        1.0  0.65963  0.22563  0.73097  1.0000 0.648178888
C   C7        1.0  0.38377  0.73097  0.22563  1.0000 0.648178888
C   C8        1.0  0.73097  0.38377  0.65963  1.0000 0.648178888
C   C9        1.0  0.07983  0.60523  0.73897  1.0000 -0.0329803478
C   C10       1.0  0.60523  0.07983  0.57597  1.0000 -0.0329803478
C   C11       1.0  0.73897  0.57597  0.07983  1.0000 -0.0329803478
C   C12       1.0  0.57597  0.73897  0.60523  1.0000 -0.0329803478
C   C13       1.0  0.17017  0.64477  0.51103  1.0000 -0.0329803478
C   C14       1.0  0.64477  0.17017  0.67403  1.0000 -0.0329803478
C   C15       1.0  0.51103  0.67403  0.17017  1.0000 -0.0329803478
C   C16       1.0  0.67403  0.51103  0.64477  1.0000 -0.0329803478
C   C17       1.0  0.18330  0.31670  0.18330  1.0000 -0.0329803478
C   C18       1.0  0.31670  0.18330  0.31670  1.0000 -0.0329803478
C   C19       1.0  0.06670  0.93330  0.06670  1.0000 -0.0329803478
C   C20       1.0  0.93330  0.06670  0.93330  1.0000 -0.0329803478
C   C21       1.0  0.11040  0.38960  0.11040  1.0000 0.6408083564
C   C22       1.0  0.38960  0.11040  0.38960  1.0000 0.6408083564
C   C23       1.0  0.13960  0.86040  0.13960  1.0000 0.6408083564
C   C24       1.0  0.86040  0.13960  0.86040  1.0000 0.6408083564
C   C25       1.0  0.03638  0.77118  0.67822  1.0000 -0.10149043
C   C26       1.0  0.77118  0.03638  0.51422  1.0000 -0.10149043
C   C27       1.0  0.67822  0.51422  0.03638  1.0000 -0.10149043
C   C28       1.0  0.51422  0.67822  0.77118  1.0000 -0.10149043
C   C29       1.0  0.21362  0.47882  0.57178  1.0000 -0.10149043
C   C30       1.0  0.47882  0.21362  0.73578  1.0000 -0.10149043
C   C31       1.0  0.57178  0.73578  0.21362  1.0000 -0.10149043
C   C32       1.0  0.73578  0.57178  0.47882  1.0000 -0.10149043
C   C33       1.0  0.98951  0.75331  0.79609  1.0000 -0.1052961752
C   C34       1.0  0.75331  0.98951  0.46109  1.0000 -0.1052961752
C   C35       1.0  0.79609  0.46109  0.98951  1.0000 -0.1052961752
C   C36       1.0  0.46109  0.79609  0.75331  1.0000 -0.1052961752
C   C37       1.0  0.26049  0.49669  0.45391  1.0000 -0.1052961752
C   C38       1.0  0.49669  0.26049  0.78891  1.0000 -0.1052961752
C   C39       1.0  0.45391  0.78891  0.26049  1.0000 -0.1052961752
C   C40       1.0  0.78891  0.45391  0.49669  1.0000 -0.1052961752
C   C41       1.0  0.08173  0.41873  0.35027  1.0000 -0.10149043
C   C42       1.0  0.41873  0.08173  0.14927  1.0000 -0.1052961752
C   C43       1.0  0.35027  0.14927  0.08173  1.0000 -0.10149043
C   C44       1.0  0.14927  0.35027  0.41873  1.0000 -0.1052961752
C   C45       1.0  0.16827  0.83127  0.89973  1.0000 -0.10149043
C   C46       1.0  0.83127  0.16827  0.10073  1.0000 -0.10149043
C   C47       1.0  0.89973  0.10073  0.16827  1.0000 -0.10149043
C   C48       1.0  0.10073  0.89973  0.83127  1.0000 -0.1052961752
O   O1        1.0  0.89850  0.71024  0.01816  1.0000 -0.605938571
O   O2        1.0  0.71024  0.89850  0.37310  1.0000 -0.605938571
O   O3        1.0  0.01816  0.37310  0.89850  1.0000 -0.605938571
O   O4        1.0  0.37310  0.01816  0.71024  1.0000 -0.605938571
O   O5        1.0  0.35150  0.53976  0.23184  1.0000 -0.605938571
O   O6        1.0  0.53976  0.35150  0.87690  1.0000 -0.605938571
O   O7        1.0  0.23184  0.87690  0.35150  1.0000 -0.605938571
O   O8        1.0  0.87690  0.23184  0.53976  1.0000 -0.605938571
O   O9        1.0  0.19145  0.28855  0.97445  1.0000 -0.6239313582
O   O10       1.0  0.28855  0.19145  0.54555  1.0000 -0.6239313582
O   O11       1.0  0.97445  0.54555  0.19145  1.0000 -0.6239313582
O   O12       1.0  0.54555  0.97445  0.28855  1.0000 -0.6239313582
O   O13       1.0  0.05855  0.96145  0.27555  1.0000 -0.6239313582
O   O14       1.0  0.96145  0.05855  0.70445  1.0000 -0.6239313582
O   O15       1.0  0.27555  0.70445  0.05855  1.0000 -0.6239313582
O   O16       1.0  0.70445  0.27555  0.96145  1.0000 -0.6239313582
O   O17       1.0  0.11191  0.45231  0.80809  1.0000 -0.6646585637
O   O18       1.0  0.45231  0.11191  0.62769  1.0000 -0.6646585637
O   O19       1.0  0.80809  0.62769  0.11191  1.0000 -0.6646585637
O   O20       1.0  0.62769  0.80809  0.45231  1.0000 -0.6646585637
O   O21       1.0  0.13809  0.79769  0.44191  1.0000 -0.6646585637
O   O22       1.0  0.79769  0.13809  0.62231  1.0000 -0.6646585637
O   O23       1.0  0.44191  0.62231  0.13809  1.0000 -0.6646585637
O   O24       1.0  0.62231  0.44191  0.79769  1.0000 -0.6646585637
