# DDEC6 charges by PACMAN v1.1 (https://github.com/mtap-research/PACMAN-charge/)
data_2015[Cd][nan]3[ASR]33
_chemical_formula_sum              "Cd12 H96 C144 N24 O32"
_cell_length_a       11.92
_cell_length_b       24.513
_cell_length_c       16.86
_cell_angle_alpha    90
_cell_angle_beta     109.392
_cell_angle_gamma    90

_symmetry_space_group_name_H-M    "P 1"
_symmetry_Int_Tables_number       1

loop_
  _symmetry_equiv_pos_as_xyz
  'x, y, z'

loop_
  _atom_site_type_symbol
  _atom_site_label
  _atom_site_symmetry_multiplicity
  _atom_site_fract_x
  _atom_site_fract_y
  _atom_site_fract_z
  _atom_site_occupancy
  _atom_site_charge
Cd  Cd1       1.0  0.39984  0.86313  0.94748  1.0000 0.8507695563
Cd  Cd2       1.0  0.10016  0.36313  0.05252  1.0000 0.8507695563
Cd  Cd3       1.0  0.60016  0.13687  0.05252  1.0000 0.8507695563
Cd  Cd4       1.0  0.89984  0.63687  0.94748  1.0000 0.8507695563
Cd  Cd5       1.0  0.13367  0.87996  0.99338  1.0000 0.8635250695
Cd  Cd6       1.0  0.36633  0.37996  0.00662  1.0000 0.8635250695
Cd  Cd7       1.0  0.86633  0.12004  0.00662  1.0000 0.8635250695
Cd  Cd8       1.0  0.63367  0.62004  0.99338  1.0000 0.8635250695
Cd  Cd9       1.0  0.70909  0.87449  0.06623  1.0000 0.8668827184
Cd  Cd10      1.0  0.79091  0.37449  0.93377  1.0000 0.8668827184
Cd  Cd11      1.0  0.29091  0.12551  0.93377  1.0000 0.8668827184
Cd  Cd12      1.0  0.20909  0.62551  0.06623  1.0000 0.8668827184
H   H1        1.0  0.44460  0.90540  0.76610  1.0000 0.118397869
H   H2        1.0  0.05540  0.40540  0.23390  1.0000 0.118397869
H   H3        1.0  0.55540  0.09460  0.23390  1.0000 0.118397869
H   H4        1.0  0.94460  0.59460  0.76610  1.0000 0.118397869
H   H5        1.0  0.39290  0.89790  0.62200  1.0000 0.118397869
H   H6        1.0  0.10710  0.39790  0.37800  1.0000 0.118397869
H   H7        1.0  0.60710  0.10210  0.37800  1.0000 0.118397869
H   H8        1.0  0.89290  0.60210  0.62200  1.0000 0.118397869
H   H9        1.0  0.70820  0.83060  0.64860  1.0000 0.110937901
H   H10       1.0  0.79180  0.33060  0.35140  1.0000 0.110937901
H   H11       1.0  0.29180  0.16940  0.35140  1.0000 0.110937901
H   H12       1.0  0.20820  0.66940  0.64860  1.0000 0.110937901
H   H13       1.0  0.75900  0.83670  0.79200  1.0000 0.118397869
H   H14       1.0  0.74100  0.33670  0.20800  1.0000 0.118397869
H   H15       1.0  0.24100  0.16330  0.20800  1.0000 0.118397869
H   H16       1.0  0.25900  0.66330  0.79200  1.0000 0.118397869
H   H17       1.0  0.42950  0.85960  0.49750  1.0000 0.118397869
H   H18       1.0  0.07050  0.35960  0.50250  1.0000 0.118397869
H   H19       1.0  0.57050  0.14040  0.50250  1.0000 0.118397869
H   H20       1.0  0.92950  0.64040  0.49750  1.0000 0.118397869
H   H21       1.0  0.66450  0.86220  0.51280  1.0000 0.118397869
H   H22       1.0  0.83550  0.36220  0.48720  1.0000 0.118397869
H   H23       1.0  0.33550  0.13780  0.48720  1.0000 0.118397869
H   H24       1.0  0.16450  0.63780  0.51280  1.0000 0.118397869
H   H25       1.0  0.38850  0.82770  0.36380  1.0000 0.110937901
H   H26       1.0  0.11150  0.32770  0.63620  1.0000 0.110937901
H   H27       1.0  0.61150  0.17230  0.63620  1.0000 0.110937901
H   H28       1.0  0.88850  0.67230  0.36380  1.0000 0.110937901
H   H29       1.0  0.32930  0.83650  0.22000  1.0000 0.110937901
H   H30       1.0  0.17070  0.33650  0.78000  1.0000 0.110937901
H   H31       1.0  0.67070  0.16350  0.78000  1.0000 0.110937901
H   H32       1.0  0.82930  0.66350  0.22000  1.0000 0.110937901
H   H33       1.0  0.64080  0.90650  0.24110  1.0000 0.118397869
H   H34       1.0  0.85920  0.40650  0.75890  1.0000 0.118397869
H   H35       1.0  0.35920  0.09350  0.75890  1.0000 0.118397869
H   H36       1.0  0.14080  0.59350  0.24110  1.0000 0.118397869
H   H37       1.0  0.69640  0.89980  0.38510  1.0000 0.118397869
H   H38       1.0  0.80360  0.39980  0.61490  1.0000 0.118397869
H   H39       1.0  0.30360  0.10020  0.61490  1.0000 0.118397869
H   H40       1.0  0.19640  0.60020  0.38510  1.0000 0.118397869
H   H41       1.0  0.01620  0.76990  0.82150  1.0000 0.118397869
H   H42       1.0  0.48380  0.26990  0.17850  1.0000 0.118397869
H   H43       1.0  0.98380  0.23010  0.17850  1.0000 0.118397869
H   H44       1.0  0.51620  0.73010  0.82150  1.0000 0.118397869
H   H45       1.0  0.85830  0.73610  0.71060  1.0000 0.118397869
H   H46       1.0  0.64170  0.23610  0.28940  1.0000 0.118397869
H   H47       1.0  0.14170  0.26390  0.28940  1.0000 0.118397869
H   H48       1.0  0.35830  0.76390  0.71060  1.0000 0.118397869
H   H49       1.0  0.99620  0.80410  0.54820  1.0000 0.110937901
H   H50       1.0  0.50380  0.30410  0.45180  1.0000 0.110937901
H   H51       1.0  0.00380  0.19590  0.45180  1.0000 0.110937901
H   H52       1.0  0.49620  0.69590  0.54820  1.0000 0.110937901
H   H53       1.0  0.15880  0.83220  0.65810  1.0000 0.118397869
H   H54       1.0  0.34120  0.33220  0.34190  1.0000 0.118397869
H   H55       1.0  0.84120  0.16780  0.34190  1.0000 0.118397869
H   H56       1.0  0.65880  0.66780  0.65810  1.0000 0.118397869
H   H57       1.0  0.75270  0.72540  0.56300  1.0000 0.110937901
H   H58       1.0  0.74730  0.22540  0.43700  1.0000 0.110937901
H   H59       1.0  0.24730  0.27460  0.43700  1.0000 0.110937901
H   H60       1.0  0.25270  0.77460  0.56300  1.0000 0.110937901
H   H61       1.0  0.84200  0.77280  0.45120  1.0000 0.118397869
H   H62       1.0  0.65800  0.27280  0.54880  1.0000 0.118397869
H   H63       1.0  0.15800  0.22720  0.54880  1.0000 0.118397869
H   H64       1.0  0.34200  0.72720  0.45120  1.0000 0.118397869
H   H65       1.0  0.72720  0.76440  0.30270  1.0000 0.118397869
H   H66       1.0  0.77280  0.26440  0.69730  1.0000 0.118397869
H   H67       1.0  0.27280  0.23560  0.69730  1.0000 0.118397869
H   H68       1.0  0.22720  0.73560  0.30270  1.0000 0.118397869
H   H69       1.0  0.57300  0.72750  0.19440  1.0000 0.118397869
H   H70       1.0  0.92700  0.22750  0.80560  1.0000 0.118397869
H   H71       1.0  0.42700  0.27250  0.80560  1.0000 0.118397869
H   H72       1.0  0.07300  0.77250  0.19440  1.0000 0.118397869
H   H73       1.0  0.61330  0.68460  0.46830  1.0000 0.110937901
H   H74       1.0  0.88670  0.18460  0.53170  1.0000 0.110937901
H   H75       1.0  0.38670  0.31540  0.53170  1.0000 0.110937901
H   H76       1.0  0.11330  0.81540  0.46830  1.0000 0.110937901
H   H77       1.0  0.45240  0.65320  0.36060  1.0000 0.118397869
H   H78       1.0  0.04760  0.15320  0.63940  1.0000 0.118397869
H   H79       1.0  0.54760  0.34680  0.63940  1.0000 0.118397869
H   H80       1.0  0.95240  0.84680  0.36060  1.0000 0.118397869
H   H81       1.0  0.12340  0.02080  0.96050  1.0000 0.110937901
H   H82       1.0  0.37660  0.52080  0.03950  1.0000 0.110937901
H   H83       1.0  0.87660  0.97920  0.03950  1.0000 0.110937901
H   H84       1.0  0.62340  0.47920  0.96050  1.0000 0.110937901
H   H85       1.0  0.41090  0.00490  0.90530  1.0000 0.118397869
H   H86       1.0  0.08910  0.50490  0.09470  1.0000 0.118397869
H   H87       1.0  0.58910  0.99510  0.09470  1.0000 0.118397869
H   H88       1.0  0.91090  0.49510  0.90530  1.0000 0.118397869
H   H89       1.0  0.74900  0.73550  0.07360  1.0000 0.118397869
H   H90       1.0  0.75100  0.23550  0.92640  1.0000 0.118397869
H   H91       1.0  0.25100  0.26450  0.92640  1.0000 0.118397869
H   H92       1.0  0.24900  0.76450  0.07360  1.0000 0.118397869
H   H93       1.0  0.41170  0.71650  0.96220  1.0000 0.118397869
H   H94       1.0  0.08830  0.21650  0.03780  1.0000 0.118397869
H   H95       1.0  0.58830  0.28350  0.03780  1.0000 0.118397869
H   H96       1.0  0.91170  0.78350  0.96220  1.0000 0.118397869
C   C1        1.0  0.64240  0.87899  0.88780  1.0000 0.5675626166
C   C2        1.0  0.85760  0.37899  0.11220  1.0000 0.5675626166
C   C3        1.0  0.35760  0.12101  0.11220  1.0000 0.5675626166
C   C4        1.0  0.14240  0.62101  0.88780  1.0000 0.5675626166
C   C5        1.0  0.60860  0.87302  0.79390  1.0000 -0.0211440979
C   C6        1.0  0.89140  0.37302  0.20610  1.0000 -0.0211440979
C   C7        1.0  0.39140  0.12698  0.20610  1.0000 -0.0211440979
C   C8        1.0  0.10860  0.62698  0.79390  1.0000 -0.0211440979
C   C9        1.0  0.49810  0.89051  0.74260  1.0000 -0.0914693389
C   C10       1.0  0.00190  0.39051  0.25740  1.0000 -0.0914693389
C   C11       1.0  0.50190  0.10949  0.25740  1.0000 -0.0914693389
C   C12       1.0  0.99810  0.60949  0.74260  1.0000 -0.0914693389
C   C13       1.0  0.46730  0.88590  0.65610  1.0000 -0.1481130127
C   C14       1.0  0.03270  0.38590  0.34390  1.0000 -0.1481130127
C   C15       1.0  0.53270  0.11410  0.34390  1.0000 -0.1481130127
C   C16       1.0  0.96730  0.61410  0.65610  1.0000 -0.1481130127
C   C17       1.0  0.54540  0.86369  0.61930  1.0000 0.110937901
C   C18       1.0  0.95460  0.36369  0.38070  1.0000 0.110937901
C   C19       1.0  0.45460  0.13631  0.38070  1.0000 0.110937901
C   C20       1.0  0.04540  0.63631  0.61930  1.0000 0.110937901
C   C21       1.0  0.65460  0.84572  0.67180  1.0000 -0.1409494198
C   C22       1.0  0.84540  0.34572  0.32820  1.0000 -0.1409494198
C   C23       1.0  0.34540  0.15428  0.32820  1.0000 -0.1409494198
C   C24       1.0  0.15460  0.65428  0.67180  1.0000 -0.1409494198
C   C25       1.0  0.68560  0.84977  0.75790  1.0000 -0.0977657449
C   C26       1.0  0.81440  0.34977  0.24210  1.0000 -0.0977657449
C   C27       1.0  0.31440  0.15023  0.24210  1.0000 -0.0977657449
C   C28       1.0  0.18560  0.65023  0.75790  1.0000 -0.0977657449
C   C29       1.0  0.51050  0.86171  0.52740  1.0000 -0.1409494198
C   C30       1.0  0.98950  0.36171  0.47260  1.0000 -0.1409494198
C   C31       1.0  0.48950  0.13829  0.47260  1.0000 -0.1409494198
C   C32       1.0  0.01050  0.63829  0.52740  1.0000 -0.1409494198
C   C33       1.0  0.58330  0.86259  0.48310  1.0000 -0.1409494198
C   C34       1.0  0.91670  0.36259  0.51690  1.0000 -0.1409494198
C   C35       1.0  0.41670  0.13741  0.51690  1.0000 -0.1409494198
C   C36       1.0  0.08330  0.63741  0.48310  1.0000 -0.1409494198
C   C37       1.0  0.54740  0.86419  0.39040  1.0000 0.110937901
C   C38       1.0  0.95260  0.36419  0.60960  1.0000 0.110937901
C   C39       1.0  0.45260  0.13581  0.60960  1.0000 0.110937901
C   C40       1.0  0.04740  0.63581  0.39040  1.0000 0.110937901
C   C41       1.0  0.43890  0.84450  0.33940  1.0000 -0.1409494198
C   C42       1.0  0.06110  0.34450  0.66060  1.0000 -0.1481130127
C   C43       1.0  0.56110  0.15550  0.66060  1.0000 -0.1409494198
C   C44       1.0  0.93890  0.65550  0.33940  1.0000 -0.1409494198
C   C45       1.0  0.40370  0.84919  0.25290  1.0000 -0.0977657449
C   C46       1.0  0.09630  0.34919  0.74710  1.0000 -0.0977657449
C   C47       1.0  0.59630  0.15081  0.74710  1.0000 -0.0977657449
C   C48       1.0  0.90370  0.65081  0.25290  1.0000 -0.0977657449
C   C49       1.0  0.47850  0.87265  0.21500  1.0000 -0.0386969221
C   C50       1.0  0.02150  0.37265  0.78500  1.0000 -0.0386969221
C   C51       1.0  0.52150  0.12735  0.78500  1.0000 -0.0386969221
C   C52       1.0  0.97850  0.62735  0.21500  1.0000 -0.0386969221
C   C53       1.0  0.58880  0.89115  0.26550  1.0000 -0.0825439028
C   C54       1.0  0.91120  0.39115  0.73450  1.0000 -0.0825439028
C   C55       1.0  0.41120  0.10885  0.73450  1.0000 -0.0825439028
C   C56       1.0  0.08880  0.60885  0.26550  1.0000 -0.0825439028
C   C57       1.0  0.62210  0.88700  0.35210  1.0000 -0.1481130127
C   C58       1.0  0.87790  0.38700  0.64790  1.0000 -0.1481130127
C   C59       1.0  0.37790  0.11300  0.64790  1.0000 -0.1481130127
C   C60       1.0  0.12210  0.61300  0.35210  1.0000 -0.1481130127
C   C61       1.0  0.44360  0.87559  0.12165  1.0000 0.5768812068
C   C62       1.0  0.05640  0.37559  0.87835  1.0000 0.5768812068
C   C63       1.0  0.55640  0.12441  0.87835  1.0000 0.5768812068
C   C64       1.0  0.94360  0.62441  0.12165  1.0000 0.5768812068
C   C65       1.0  0.20650  0.82569  0.82170  1.0000 0.5598270662
C   C66       1.0  0.29350  0.32569  0.17830  1.0000 0.5598270662
C   C67       1.0  0.79350  0.17431  0.17830  1.0000 0.5598270662
C   C68       1.0  0.70650  0.67431  0.82170  1.0000 0.5598270662
C   C69       1.0  0.10250  0.80500  0.75090  1.0000 -0.0291465957
C   C70       1.0  0.39750  0.30500  0.24910  1.0000 -0.0291465957
C   C71       1.0  0.89750  0.19500  0.24910  1.0000 -0.0291465957
C   C72       1.0  0.60250  0.69500  0.75090  1.0000 -0.0291465957
C   C73       1.0  0.01310  0.77619  0.76640  1.0000 -0.0977657449
C   C74       1.0  0.48690  0.27619  0.23360  1.0000 -0.0977657449
C   C75       1.0  0.98690  0.22381  0.23360  1.0000 -0.0977657449
C   C76       1.0  0.51310  0.72381  0.76640  1.0000 -0.0977657449
C   C77       1.0  0.91760  0.75631  0.69970  1.0000 -0.1409494198
C   C78       1.0  0.58240  0.25631  0.30030  1.0000 -0.1409494198
C   C79       1.0  0.08240  0.24369  0.30030  1.0000 -0.1409494198
C   C80       1.0  0.41760  0.74369  0.69970  1.0000 -0.1409494198
C   C81       1.0  0.91070  0.76641  0.61740  1.0000 0.118397869
C   C82       1.0  0.58930  0.26641  0.38260  1.0000 0.118397869
C   C83       1.0  0.08930  0.23359  0.38260  1.0000 0.118397869
C   C84       1.0  0.41070  0.73359  0.61740  1.0000 0.118397869
C   C85       1.0  0.00070  0.79607  0.60310  1.0000 -0.1589086771
C   C86       1.0  0.49930  0.29607  0.39690  1.0000 -0.1589086771
C   C87       1.0  0.99930  0.20393  0.39690  1.0000 -0.1589086771
C   C88       1.0  0.50070  0.70393  0.60310  1.0000 -0.1589086771
C   C89       1.0  0.09700  0.81393  0.66900  1.0000 -0.1090639968
C   C90       1.0  0.40300  0.31393  0.33100  1.0000 -0.1090639968
C   C91       1.0  0.90300  0.18607  0.33100  1.0000 -0.1090639968
C   C92       1.0  0.59700  0.68607  0.66900  1.0000 -0.1090639968
C   C93       1.0  0.80870  0.74541  0.54790  1.0000 -0.1481130127
C   C94       1.0  0.69130  0.24541  0.45210  1.0000 -0.1481130127
C   C95       1.0  0.19130  0.25459  0.45210  1.0000 -0.1481130127
C   C96       1.0  0.30870  0.75459  0.54790  1.0000 -0.1481130127
C   C97       1.0  0.78780  0.75179  0.46680  1.0000 -0.1481130127
C   C98       1.0  0.71220  0.25179  0.53320  1.0000 -0.1481130127
C   C99       1.0  0.21220  0.24821  0.53320  1.0000 -0.1481130127
C   C100      1.0  0.28780  0.74821  0.46680  1.0000 -0.1481130127
C   C101      1.0  0.68690  0.72887  0.39810  1.0000 0.118397869
C   C102      1.0  0.81310  0.22887  0.60190  1.0000 0.118397869
C   C103      1.0  0.31310  0.27113  0.60190  1.0000 0.118397869
C   C104      1.0  0.18690  0.77113  0.39810  1.0000 0.118397869
C   C105      1.0  0.67310  0.74123  0.31470  1.0000 -0.1481130127
C   C106      1.0  0.82690  0.24123  0.68530  1.0000 -0.1481130127
C   C107      1.0  0.32690  0.25877  0.68530  1.0000 -0.1481130127
C   C108      1.0  0.17310  0.75877  0.31470  1.0000 -0.1481130127
C   C109      1.0  0.58010  0.71946  0.24970  1.0000 -0.0977657449
C   C110      1.0  0.91990  0.21946  0.75030  1.0000 -0.0977657449
C   C111      1.0  0.41990  0.28054  0.75030  1.0000 -0.0977657449
C   C112      1.0  0.08010  0.78054  0.24970  1.0000 -0.0977657449
C   C113      1.0  0.60440  0.69443  0.41320  1.0000 -0.1589086771
C   C114      1.0  0.89560  0.19443  0.58680  1.0000 -0.1589086771
C   C115      1.0  0.39560  0.30557  0.58680  1.0000 -0.1589086771
C   C116      1.0  0.10440  0.80557  0.41320  1.0000 -0.1589086771
C   C117      1.0  0.39660  0.66173  0.19640  1.0000 0.5422521003
C   C118      1.0  0.10340  0.16173  0.80360  1.0000 0.5422521003
C   C119      1.0  0.60340  0.33827  0.80360  1.0000 0.5422521003
C   C120      1.0  0.89660  0.83827  0.19640  1.0000 0.5422521003
C   C121      1.0  0.49760  0.68586  0.26620  1.0000 -0.0211440979
C   C122      1.0  0.00240  0.18586  0.73380  1.0000 -0.0211440979
C   C123      1.0  0.50240  0.31414  0.73380  1.0000 -0.0211440979
C   C124      1.0  0.99760  0.81414  0.26620  1.0000 -0.0211440979
C   C125      1.0  0.50930  0.67449  0.34860  1.0000 -0.1090639968
C   C126      1.0  0.99070  0.17449  0.65140  1.0000 -0.1090639968
C   C127      1.0  0.49070  0.32551  0.65140  1.0000 -0.1090639968
C   C128      1.0  0.00930  0.82551  0.34860  1.0000 -0.1090639968
C   C129      1.0  0.18850  0.00570  0.94970  1.0000 0.1399815299
C   C130      1.0  0.31150  0.50570  0.05030  1.0000 0.1399815299
C   C131      1.0  0.81150  0.99430  0.05030  1.0000 0.1399815299
C   C132      1.0  0.68850  0.49430  0.94970  1.0000 0.1399815299
C   C133      1.0  0.34390  0.99697  0.91980  1.0000 0.155130855
C   C134      1.0  0.15610  0.49697  0.08020  1.0000 0.155130855
C   C135      1.0  0.65610  0.00303  0.08020  1.0000 0.155130855
C   C136      1.0  0.84390  0.50303  0.91980  1.0000 0.155130855
C   C137      1.0  0.66850  0.74262  0.04750  1.0000 0.1512039632
C   C138      1.0  0.83150  0.24262  0.95250  1.0000 0.1512039632
C   C139      1.0  0.33150  0.25738  0.95250  1.0000 0.1512039632
C   C140      1.0  0.16850  0.75738  0.04750  1.0000 0.1512039632
C   C141      1.0  0.48600  0.73242  0.98710  1.0000 0.1512039632
C   C142      1.0  0.01400  0.23242  0.01290  1.0000 0.1512039632
C   C143      1.0  0.51400  0.26758  0.01290  1.0000 0.1512039632
C   C144      1.0  0.98600  0.76758  0.98710  1.0000 0.1512039632
N   N1        1.0  0.31430  0.94766  0.93445  1.0000 -0.2049525611
N   N2        1.0  0.18570  0.44766  0.06555  1.0000 -0.2049525611
N   N3        1.0  0.68570  0.05234  0.06555  1.0000 -0.2049525611
N   N4        1.0  0.81430  0.55234  0.93445  1.0000 -0.2049525611
N   N5        1.0  0.21200  0.95300  0.95445  1.0000 -0.2282863826
N   N6        1.0  0.28800  0.45300  0.04555  1.0000 -0.2282863826
N   N7        1.0  0.78800  0.04700  0.04555  1.0000 -0.2282863826
N   N8        1.0  0.71200  0.54700  0.95445  1.0000 -0.2282863826
N   N9        1.0  0.26750  0.03507  0.92797  1.0000 -0.3262959056
N   N10       1.0  0.23250  0.53507  0.07203  1.0000 -0.3262959056
N   N11       1.0  0.73250  0.96493  0.07203  1.0000 -0.3262959056
N   N12       1.0  0.76750  0.46493  0.92797  1.0000 -0.3262959056
N   N13       1.0  0.62390  0.79178  0.03504  1.0000 -0.2136289001
N   N14       1.0  0.87610  0.29178  0.96496  1.0000 -0.2136289001
N   N15       1.0  0.37610  0.20822  0.96496  1.0000 -0.2136289001
N   N16       1.0  0.12390  0.70822  0.03504  1.0000 -0.2136289001
N   N17       1.0  0.50290  0.78505  0.99475  1.0000 -0.2136289001
N   N18       1.0  0.99710  0.28505  0.00525  1.0000 -0.2136289001
N   N19       1.0  0.49710  0.21495  0.00525  1.0000 -0.2136289001
N   N20       1.0  0.00290  0.71495  0.99475  1.0000 -0.2136289001
N   N21       1.0  0.58690  0.70350  0.01902  1.0000 -0.3377111115
N   N22       1.0  0.91310  0.20350  0.98098  1.0000 -0.3377111115
N   N23       1.0  0.41310  0.29650  0.98098  1.0000 -0.3377111115
N   N24       1.0  0.08690  0.79650  0.01902  1.0000 -0.3377111115
O   O1        1.0  0.74750  0.86893  0.93351  1.0000 -0.5557967506
O   O2        1.0  0.75250  0.36893  0.06649  1.0000 -0.5557967506
O   O3        1.0  0.25250  0.13107  0.06649  1.0000 -0.5557967506
O   O4        1.0  0.24750  0.63107  0.93351  1.0000 -0.5557967506
O   O5        1.0  0.56446  0.89404  0.91870  1.0000 -0.5786052875
O   O6        1.0  0.93554  0.39404  0.08130  1.0000 -0.5786052875
O   O7        1.0  0.43554  0.10596  0.08130  1.0000 -0.5786052875
O   O8        1.0  0.06446  0.60596  0.91870  1.0000 -0.5786052875
O   O9        1.0  0.30450  0.64831  0.21012  1.0000 -0.5486211561
O   O10       1.0  0.19550  0.14831  0.78988  1.0000 -0.5486211561
O   O11       1.0  0.69550  0.35169  0.78988  1.0000 -0.5486211561
O   O12       1.0  0.80450  0.85169  0.21012  1.0000 -0.5486211561
O   O13       1.0  0.40770  0.65601  0.12505  1.0000 -0.5557967506
O   O14       1.0  0.09230  0.15601  0.87495  1.0000 -0.5557967506
O   O15       1.0  0.59230  0.34399  0.87495  1.0000 -0.5557967506
O   O16       1.0  0.90770  0.84399  0.12505  1.0000 -0.5557967506
O   O17       1.0  0.51794  0.89300  0.08885  1.0000 -0.5693516366
O   O18       1.0  0.98206  0.39300  0.91115  1.0000 -0.5693516366
O   O19       1.0  0.48206  0.10700  0.91115  1.0000 -0.5693516366
O   O20       1.0  0.01794  0.60700  0.08885  1.0000 -0.5693516366
O   O21       1.0  0.34138  0.85891  0.07751  1.0000 -0.5786052875
O   O22       1.0  0.15862  0.35891  0.92249  1.0000 -0.5786052875
O   O23       1.0  0.65862  0.14109  0.92249  1.0000 -0.5786052875
O   O24       1.0  0.84138  0.64109  0.07751  1.0000 -0.5786052875
O   O25       1.0  0.19930  0.82842  0.89450  1.0000 -0.5693516366
O   O26       1.0  0.30070  0.32842  0.10550  1.0000 -0.5693516366
O   O27       1.0  0.80070  0.17158  0.10550  1.0000 -0.5693516366
O   O28       1.0  0.69930  0.67158  0.89450  1.0000 -0.5693516366
O   O29       1.0  0.29910  0.83915  0.80721  1.0000 -0.5343326561
O   O30       1.0  0.20090  0.33915  0.19279  1.0000 -0.5343326561
O   O31       1.0  0.70090  0.16085  0.19279  1.0000 -0.5343326561
O   O32       1.0  0.79910  0.66085  0.80721  1.0000 -0.5343326561
