# DDEC6 charges by PACMAN v1.1 (https://github.com/mtap-research/PACMAN-charge/)
data_2015[U][srs]3[ASR]1
_chemical_formula_sum              "U12 H84 C72 O72"
_cell_length_a       19.0913
_cell_length_b       19.0913
_cell_length_c       11.7929
_cell_angle_alpha    90
_cell_angle_beta     90
_cell_angle_gamma    120

_symmetry_space_group_name_H-M    "P 1"
_symmetry_Int_Tables_number       1

loop_
  _symmetry_equiv_pos_as_xyz
  'x, y, z'

loop_
  _atom_site_type_symbol
  _atom_site_label
  _atom_site_symmetry_multiplicity
  _atom_site_fract_x
  _atom_site_fract_y
  _atom_site_fract_z
  _atom_site_occupancy
  _atom_site_charge
U   U1        1.0  0.51180  0.66758  0.85105  1.0000 1.6597621195
U   U2        1.0  0.33242  0.84422  0.51772  1.0000 1.6597621195
U   U3        1.0  0.15578  0.48820  0.18438  1.0000 1.6597621195
U   U4        1.0  0.67882  0.50607  0.18216  1.0000 1.6422144764
U   U5        1.0  0.49393  0.17275  0.84883  1.0000 1.650060057
U   U6        1.0  0.82725  0.32118  0.51549  1.0000 1.650060057
U   U7        1.0  0.83508  0.82871  0.46676  1.0000 1.5892532461
U   U8        1.0  0.17129  0.00637  0.13343  1.0000 1.5892532461
U   U9        1.0  0.99363  0.16492  0.80009  1.0000 1.5813490146
U   U10       1.0  0.66754  0.98966  0.17476  1.0000 1.6597621195
U   U11       1.0  0.01034  0.67788  0.84143  1.0000 1.6597621195
U   U12       1.0  0.32212  0.33246  0.50809  1.0000 1.6422144764
H   H1        1.0  0.37040  0.75170  0.14250  1.0000 0.1179144662
H   H2        1.0  0.24830  0.61870  0.80917  1.0000 0.1179144662
H   H3        1.0  0.38130  0.62960  0.47583  1.0000 0.1179144662
H   H4        1.0  0.34280  0.67950  0.22760  1.0000 0.1101673723
H   H5        1.0  0.32050  0.66330  0.89427  1.0000 0.1101673723
H   H6        1.0  0.33670  0.65720  0.56093  1.0000 0.1101673723
H   H7        1.0  0.47440  0.73070  0.28840  1.0000 0.1387190464
H   H8        1.0  0.26930  0.74370  0.95507  1.0000 0.1387190464
H   H9        1.0  0.25630  0.52560  0.62173  1.0000 0.1387190464
H   H10       1.0  0.46660  0.71170  0.15900  1.0000 0.1101673723
H   H11       1.0  0.28830  0.75490  0.82567  1.0000 0.1179144662
H   H12       1.0  0.24510  0.53340  0.49233  1.0000 0.1101673723
H   H13       1.0  0.37850  0.46360  0.13550  1.0000 0.1387190464
H   H14       1.0  0.53640  0.91490  0.80217  1.0000 0.1387190464
H   H15       1.0  0.08510  0.62150  0.46883  1.0000 0.1387190464
H   H16       1.0  0.37640  0.53790  0.18590  1.0000 0.1101673723
H   H17       1.0  0.46210  0.83850  0.85257  1.0000 0.1101673723
H   H18       1.0  0.16150  0.62360  0.51923  1.0000 0.1101673723
H   H19       1.0  0.49180  0.57770  0.29060  1.0000 0.1179144662
H   H20       1.0  0.42230  0.91410  0.95727  1.0000 0.1179144662
H   H21       1.0  0.08590  0.50820  0.62393  1.0000 0.1179144662
H   H22       1.0  0.43920  0.48440  0.30920  1.0000 0.1101673723
H   H23       1.0  0.51560  0.95480  0.97587  1.0000 0.1101673723
H   H24       1.0  0.04520  0.56080  0.64253  1.0000 0.1101673723
H   H25       1.0  0.74610  0.26260  0.13960  1.0000 0.1387190464
H   H26       1.0  0.73740  0.48350  0.80627  1.0000 0.1387190464
H   H27       1.0  0.51650  0.25390  0.47293  1.0000 0.1387190464
H   H28       1.0  0.71550  0.32180  0.17280  1.0000 0.1101673723
H   H29       1.0  0.67820  0.39370  0.83947  1.0000 0.1101673723
H   H30       1.0  0.60630  0.28450  0.50613  1.0000 0.1101673723
H   H31       1.0  0.59330  0.20080  0.24840  1.0000 0.1270243146
H   H32       1.0  0.79920  0.39250  0.91507  1.0000 0.1270243146
H   H33       1.0  0.60750  0.40670  0.58173  1.0000 0.1270243146
H   H34       1.0  0.60100  0.20550  0.11420  1.0000 0.1101673723
H   H35       1.0  0.79450  0.39550  0.78087  1.0000 0.1101673723
H   H36       1.0  0.60450  0.39900  0.44753  1.0000 0.1101673723
H   H37       1.0  0.91540  0.60710  0.38610  1.0000 0.1387190464
H   H38       1.0  0.39290  0.30830  0.05277  1.0000 0.1387190464
H   H39       1.0  0.69170  0.08460  0.71943  1.0000 0.1387190464
H   H40       1.0  0.86760  0.52100  0.44380  1.0000 0.1270243146
H   H41       1.0  0.47900  0.34660  0.11047  1.0000 0.1270243146
H   H42       1.0  0.65340  0.13240  0.77713  1.0000 0.1270243146
H   H43       1.0  0.88670  0.61830  0.57920  1.0000 0.1179144662
H   H44       1.0  0.38170  0.26840  0.24587  1.0000 0.1179144662
H   H45       1.0  0.73160  0.11330  0.91253  1.0000 0.1179144662
H   H46       1.0  0.79400  0.56570  0.55260  1.0000 0.1387190464
H   H47       1.0  0.43430  0.22830  0.21927  1.0000 0.1387190464
H   H48       1.0  0.77170  0.20600  0.88593  1.0000 0.1387190464
H   H49       1.0  0.87390  0.91060  0.09930  1.0000 0.1270243146
H   H50       1.0  0.08940  0.96330  0.76597  1.0000 0.1270243146
H   H51       1.0  0.03670  0.12610  0.43263  1.0000 0.1270243146
H   H52       1.0  0.96550  0.95990  0.12960  1.0000 0.1048689478
H   H53       1.0  0.04010  0.00560  0.79627  1.0000 0.1048689478
H   H54       1.0  0.99440  0.03450  0.46293  1.0000 0.1048689478
H   H55       1.0  0.94600  0.07090  0.19410  1.0000 0.1387190464
H   H56       1.0  0.92910  0.87510  0.86077  1.0000 0.1387190464
H   H57       1.0  0.12490  0.05400  0.52743  1.0000 0.1387190464
H   H58       1.0  0.92880  0.05350  0.06360  1.0000 0.1179144662
H   H59       1.0  0.94650  0.87530  0.73027  1.0000 0.1179144662
H   H60       1.0  0.12470  0.07120  0.39693  1.0000 0.1179144662
H   H61       1.0  0.71190  0.91860  0.70970  1.0000 0.1270243146
H   H62       1.0  0.08140  0.79330  0.37637  1.0000 0.1270243146
H   H63       1.0  0.20670  0.28810  0.04303  1.0000 0.1270243146
H   H64       1.0  0.80200  0.97020  0.74530  1.0000 0.1101673723
H   H65       1.0  0.02980  0.83180  0.41197  1.0000 0.1101673723
H   H66       1.0  0.16820  0.19800  0.07863  1.0000 0.1101673723
H   H67       1.0  0.77420  0.86350  0.88140  1.0000 0.1387190464
H   H68       1.0  0.13650  0.91070  0.54807  1.0000 0.1387190464
H   H69       1.0  0.08930  0.22580  0.21473  1.0000 0.1387190464
H   H70       1.0  0.73750  0.91950  0.90830  1.0000 0.1048689478
H   H71       1.0  0.08050  0.81800  0.57497  1.0000 0.1048689478
H   H72       1.0  0.18200  0.26250  0.24163  1.0000 0.1048689478
H   H73       1.0  0.48080  0.88670  0.20710  1.0000 0.3324234404
H   H74       1.0  0.11330  0.59410  0.87377  1.0000 0.3324234404
H   H75       1.0  0.40590  0.51920  0.54043  1.0000 0.3324234404
H   H76       1.0  0.55710  0.62030  0.05690  1.0000 0.3221155398
H   H77       1.0  0.37970  0.93680  0.72357  1.0000 0.3221155398
H   H78       1.0  0.06320  0.44290  0.39023  1.0000 0.3221155398
H   H79       1.0  0.83660  0.69410  0.33710  1.0000 0.3128524614
H   H80       1.0  0.30590  0.14250  0.00377  1.0000 0.3128524614
H   H81       1.0  0.85750  0.16340  0.67043  1.0000 0.3128524614
H   H82       1.0  0.80850  0.46840  0.25320  1.0000 0.3654156022
H   H83       1.0  0.53160  0.34010  0.91987  1.0000 0.3654156022
H   H84       1.0  0.65990  0.19150  0.58653  1.0000 0.3647513383
C   C1        1.0  0.36960  0.78470  0.30560  1.0000 0.5096382045
C   C2        1.0  0.21530  0.58490  0.97227  1.0000 0.5048969977
C   C3        1.0  0.41510  0.63040  0.63893  1.0000 0.5048969977
C   C4        1.0  0.38140  0.73640  0.21600  1.0000 -0.3405844427
C   C5        1.0  0.26360  0.64500  0.88267  1.0000 -0.3405844427
C   C6        1.0  0.35500  0.61860  0.54933  1.0000 -0.3405844427
C   C7        1.0  0.46570  0.74830  0.21520  1.0000 -0.3687359002
C   C8        1.0  0.25170  0.71740  0.88187  1.0000 -0.3687359002
C   C9        1.0  0.28260  0.53430  0.54853  1.0000 -0.3687359002
C   C10       1.0  0.53560  0.82880  0.19300  1.0000 0.5096382045
C   C11       1.0  0.17120  0.70680  0.85967  1.0000 0.5096382045
C   C12       1.0  0.29320  0.46440  0.52633  1.0000 0.5096382045
C   C13       1.0  0.44230  0.56270  0.05040  1.0000 0.3221155398
C   C14       1.0  0.43730  0.87960  0.71707  1.0000 0.3324234404
C   C15       1.0  0.12040  0.55770  0.38373  1.0000 0.3221155398
C   C16       1.0  0.41210  0.52040  0.15440  1.0000 -0.3590385821
C   C17       1.0  0.47960  0.89170  0.82107  1.0000 -0.3590385821
C   C18       1.0  0.10830  0.58790  0.48773  1.0000 -0.3590385821
C   C19       1.0  0.47090  0.52570  0.25360  1.0000 -0.3111235605
C   C20       1.0  0.47430  0.94520  0.92027  1.0000 -0.3172100044
C   C21       1.0  0.05480  0.52910  0.58693  1.0000 -0.3172100044
C   C22       1.0  0.54160  0.51590  0.22020  1.0000 0.5518748157
C   C23       1.0  0.48410  0.02570  0.88687  1.0000 0.5518748157
C   C24       1.0  0.97430  0.45840  0.55353  1.0000 0.5518748157
C   C25       1.0  0.75500  0.28630  0.30590  1.0000 0.5612326109
C   C26       1.0  0.71370  0.46870  0.97257  1.0000 0.5612326109
C   C27       1.0  0.53130  0.24500  0.63923  1.0000 0.5612326109
C   C28       1.0  0.71410  0.27220  0.19480  1.0000 -0.3520779567
C   C29       1.0  0.72780  0.44190  0.86147  1.0000 -0.3520779567
C   C30       1.0  0.55810  0.28590  0.52813  1.0000 -0.3520779567
C   C31       1.0  0.62610  0.20280  0.18440  1.0000 -0.3172100044
C   C32       1.0  0.79720  0.42330  0.85107  1.0000 -0.3172100044
C   C33       1.0  0.57670  0.37390  0.51773  1.0000 -0.3172100044
C   C34       1.0  0.64340  0.13300  0.18520  1.0000 0.5902043276
C   C35       1.0  0.86700  0.51040  0.85187  1.0000 0.5902043276
C   C36       1.0  0.48960  0.35660  0.51853  1.0000 0.5902043276
C   C37       1.0  0.79600  0.54650  0.34490  1.0000 0.4240399294
C   C38       1.0  0.45350  0.24950  0.01157  1.0000 0.4264784448
C   C39       1.0  0.75050  0.20400  0.67823  1.0000 0.4264784448
C   C40       1.0  0.86470  0.56840  0.42150  1.0000 -0.3813904232
C   C41       1.0  0.43160  0.29630  0.08817  1.0000 -0.3813904232
C   C42       1.0  0.70370  0.13530  0.75483  1.0000 -0.3813904232
C   C43       1.0  0.84600  0.60500  0.52110  1.0000 -0.3111235605
C   C44       1.0  0.39500  0.24100  0.18777  1.0000 -0.3172100044
C   C45       1.0  0.75900  0.15400  0.85443  1.0000 -0.3111235605
C   C46       1.0  0.84370  0.68420  0.48730  1.0000 0.5612326109
C   C47       1.0  0.31580  0.15950  0.15397  1.0000 0.5612326109
C   C48       1.0  0.84050  0.15630  0.82063  1.0000 0.5612326109
C   C49       1.0  0.89460  0.90540  0.26860  1.0000 0.5612326109
C   C50       1.0  0.09460  0.98920  0.93527  1.0000 0.5653294914
C   C51       1.0  0.01080  0.10540  0.60193  1.0000 0.5612326109
C   C52       1.0  0.91230  0.94890  0.15320  1.0000 -0.2761241006
C   C53       1.0  0.05110  0.96340  0.81987  1.0000 -0.2761241006
C   C54       1.0  0.03660  0.08770  0.48653  1.0000 -0.2761241006
C   C55       1.0  0.91050  0.03140  0.13890  1.0000 -0.3520779567
C   C56       1.0  0.96860  0.87910  0.80557  1.0000 -0.3520779567
C   C57       1.0  0.12090  0.08950  0.47223  1.0000 -0.3520779567
C   C58       1.0  0.82850  0.01360  0.15600  1.0000 0.5902043276
C   C59       1.0  0.98640  0.81490  0.82267  1.0000 0.5902043276
C   C60       1.0  0.18510  0.17150  0.48933  1.0000 0.5902043276
C   C61       1.0  0.78100  0.87930  0.64520  1.0000 0.5612326109
C   C62       1.0  0.12070  0.90170  0.31187  1.0000 0.5612326109
C   C63       1.0  0.09830  0.21900  0.97853  1.0000 0.5612326109
C   C64       1.0  0.75790  0.91510  0.73700  1.0000 -0.3405844427
C   C65       1.0  0.08490  0.84280  0.40367  1.0000 -0.3405844427
C   C66       1.0  0.15720  0.24210  0.07033  1.0000 -0.3405844427
C   C67       1.0  0.73640  0.88000  0.85560  1.0000 -0.3111235605
C   C68       1.0  0.12000  0.85640  0.52227  1.0000 -0.3111235605
C   C69       1.0  0.14360  0.26360  0.18893  1.0000 -0.3111235605
C   C70       1.0  0.65290  0.80850  0.84690  1.0000 0.5612326109
C   C71       1.0  0.19150  0.84440  0.51357  1.0000 0.5518748157
C   C72       1.0  0.15560  0.34710  0.18023  1.0000 0.5518748157
O   O1        1.0  0.41010  0.81430  0.39040  1.0000 -0.4776850449
O   O2        1.0  0.18570  0.59580  0.05707  1.0000 -0.4776850449
O   O3        1.0  0.40420  0.58990  0.72373  1.0000 -0.4776850449
O   O4        1.0  0.30660  0.79860  0.31980  1.0000 -0.5669762738
O   O5        1.0  0.20140  0.50800  0.98647  1.0000 -0.5669762738
O   O6        1.0  0.49200  0.69340  0.65313  1.0000 -0.561910647
O   O7        1.0  0.60830  0.84530  0.20260  1.0000 -0.561910647
O   O8        1.0  0.15470  0.76300  0.86927  1.0000 -0.561910647
O   O9        1.0  0.23700  0.39170  0.53593  1.0000 -0.561910647
O   O10       1.0  0.51720  0.88070  0.15590  1.0000 -0.5201381998
O   O11       1.0  0.11930  0.63650  0.82257  1.0000 -0.5201381998
O   O12       1.0  0.36350  0.48280  0.48923  1.0000 -0.5201381998
O   O13       1.0  0.41160  0.55530  0.96100  1.0000 -0.439584097
O   O14       1.0  0.44470  0.85630  0.62767  1.0000 -0.439584097
O   O15       1.0  0.14370  0.58840  0.29433  1.0000 -0.439584097
O   O16       1.0  0.51210  0.62910  0.04180  1.0000 -0.4623852776
O   O17       1.0  0.37090  0.88300  0.70847  1.0000 -0.4623852776
O   O18       1.0  0.11700  0.48790  0.37513  1.0000 -0.4623852776
O   O19       1.0  0.55090  0.49430  0.11590  1.0000 -0.6624473638
O   O20       1.0  0.50570  0.05660  0.78257  1.0000 -0.6624473638
O   O21       1.0  0.94340  0.44910  0.44923  1.0000 -0.6652093537
O   O22       1.0  0.59010  0.53340  0.29900  1.0000 -0.5406908059
O   O23       1.0  0.46660  0.05670  0.96567  1.0000 -0.5470154292
O   O24       1.0  0.94330  0.40990  0.63233  1.0000 -0.5470154292
O   O25       1.0  0.81840  0.35190  0.31210  1.0000 -0.5801212298
O   O26       1.0  0.64810  0.46650  0.97877  1.0000 -0.5801212298
O   O27       1.0  0.53350  0.18160  0.64543  1.0000 -0.5801212298
O   O28       1.0  0.71890  0.23900  0.39610  1.0000 -0.6500388887
O   O29       1.0  0.76100  0.47990  0.06277  1.0000 -0.6500388887
O   O30       1.0  0.52010  0.28110  0.72943  1.0000 -0.6500388887
O   O31       1.0  0.70780  0.13500  0.17230  1.0000 -0.5074483958
O   O32       1.0  0.86500  0.57280  0.83897  1.0000 -0.5074483958
O   O33       1.0  0.42720  0.29220  0.50563  1.0000 -0.5074483958
O   O34       1.0  0.58480  0.06170  0.16600  1.0000 -0.5980418689
O   O35       1.0  0.93830  0.52310  0.83267  1.0000 -0.5980418689
O   O36       1.0  0.47690  0.41520  0.49933  1.0000 -0.5936875946
O   O37       1.0  0.73540  0.54660  0.36990  1.0000 -0.5201381998
O   O38       1.0  0.45340  0.18880  0.03657  1.0000 -0.5201381998
O   O39       1.0  0.81120  0.26460  0.70323  1.0000 -0.5201381998
O   O40       1.0  0.80810  0.51900  0.25010  1.0000 -0.5406908059
O   O41       1.0  0.48100  0.28910  0.91677  1.0000 -0.5406908059
O   O42       1.0  0.71090  0.19190  0.58343  1.0000 -0.5406908059
O   O43       1.0  0.81510  0.70270  0.56900  1.0000 -0.5201381998
O   O44       1.0  0.29730  0.11240  0.23567  1.0000 -0.5201381998
O   O45       1.0  0.88760  0.18490  0.90233  1.0000 -0.5201381998
O   O46       1.0  0.86770  0.72360  0.40310  1.0000 -0.4475936897
O   O47       1.0  0.27640  0.14410  0.06977  1.0000 -0.4475936897
O   O48       1.0  0.85590  0.13230  0.73643  1.0000 -0.4475936897
O   O49       1.0  0.87390  0.83580  0.27090  1.0000 -0.5406908059
O   O50       1.0  0.16420  0.03810  0.93757  1.0000 -0.5406908059
O   O51       1.0  0.96190  0.12610  0.60423  1.0000 -0.5406908059
O   O52       1.0  0.88160  0.94300  0.35310  1.0000 -0.5980418689
O   O53       1.0  0.05700  0.93860  0.01977  1.0000 -0.5980418689
O   O54       1.0  0.06140  0.11840  0.68643  1.0000 -0.5980418689
O   O55       1.0  0.76560  0.94620  0.18190  1.0000 -0.5669762738
O   O56       1.0  0.05380  0.81940  0.84857  1.0000 -0.5669762738
O   O57       1.0  0.18060  0.23440  0.51523  1.0000 -0.561910647
O   O58       1.0  0.81610  0.07300  0.15490  1.0000 -0.561910647
O   O59       1.0  0.92700  0.74310  0.82157  1.0000 -0.5669762738
O   O60       1.0  0.25690  0.18390  0.48823  1.0000 -0.561910647
O   O61       1.0  0.78990  0.91610  0.55800  1.0000 -0.5201381998
O   O62       1.0  0.08390  0.87380  0.22467  1.0000 -0.5201381998
O   O63       1.0  0.12620  0.21010  0.89133  1.0000 -0.5201381998
O   O64       1.0  0.79390  0.82020  0.67230  1.0000 -0.5801212298
O   O65       1.0  0.17980  0.97370  0.33897  1.0000 -0.5801212298
O   O66       1.0  0.02630  0.20610  0.00563  1.0000 -0.5801212298
O   O67       1.0  0.61640  0.78970  0.76270  1.0000 -0.4722857184
O   O68       1.0  0.21030  0.82670  0.42937  1.0000 -0.4722857184
O   O69       1.0  0.17330  0.38360  0.09603  1.0000 -0.4722857184
O   O70       1.0  0.64490  0.76340  0.93570  1.0000 -0.6500388887
O   O71       1.0  0.23660  0.88150  0.60237  1.0000 -0.6500388887
O   O72       1.0  0.11850  0.35510  0.26903  1.0000 -0.6500388887
