# DDEC6 charges by PACMAN v1.1 (https://github.com/mtap-research/PACMAN-charge/)
data_2015[Mg][nan]3[ASR]11
_chemical_formula_sum              "Mg6 H120 C216 O48"
_cell_length_a       23.6848
_cell_length_b       23.6848
_cell_length_c       23.6848
_cell_angle_alpha    109.471
_cell_angle_beta     109.471
_cell_angle_gamma    109.471

_symmetry_space_group_name_H-M    "P 1"
_symmetry_Int_Tables_number       1

loop_
  _symmetry_equiv_pos_as_xyz
  'x, y, z'

loop_
  _atom_site_type_symbol
  _atom_site_label
  _atom_site_symmetry_multiplicity
  _atom_site_fract_x
  _atom_site_fract_y
  _atom_site_fract_z
  _atom_site_occupancy
  _atom_site_charge
Mg  Mg1       1.0  0.50000  0.67218  0.17218  1.0000 1.4005140197
Mg  Mg2       1.0  0.50000  0.32782  0.82782  1.0000 1.4005140197
Mg  Mg3       1.0  0.17218  0.50000  0.67218  1.0000 1.4005140197
Mg  Mg4       1.0  0.82782  0.50000  0.32782  1.0000 1.4005140197
Mg  Mg5       1.0  0.67218  0.17218  0.50000  1.0000 1.4005140197
Mg  Mg6       1.0  0.32782  0.82782  0.50000  1.0000 1.4005140197
H   H1        1.0  0.49230  0.45070  0.21820  1.0000 0.1293952332
H   H2        1.0  0.23250  0.27410  0.78180  1.0000 0.1293952332
H   H3        1.0  0.50770  0.72590  0.95840  1.0000 0.1293952332
H   H4        1.0  0.76750  0.54930  0.04160  1.0000 0.1293952332
H   H5        1.0  0.21820  0.49230  0.45070  1.0000 0.1293952332
H   H6        1.0  0.04160  0.76750  0.54930  1.0000 0.1293952332
H   H7        1.0  0.78180  0.23250  0.27410  1.0000 0.1293952332
H   H8        1.0  0.95840  0.50770  0.72590  1.0000 0.1293952332
H   H9        1.0  0.45070  0.21820  0.49230  1.0000 0.1293952332
H   H10       1.0  0.54930  0.04160  0.76750  1.0000 0.1293952332
H   H11       1.0  0.27410  0.78180  0.23250  1.0000 0.1293952332
H   H12       1.0  0.72590  0.95840  0.50770  1.0000 0.1293952332
H   H13       1.0  0.50770  0.54930  0.78180  1.0000 0.1293952332
H   H14       1.0  0.76750  0.72590  0.21820  1.0000 0.1293952332
H   H15       1.0  0.49230  0.27410  0.04160  1.0000 0.1293952332
H   H16       1.0  0.23250  0.45070  0.95840  1.0000 0.1293952332
H   H17       1.0  0.78180  0.50770  0.54930  1.0000 0.1293952332
H   H18       1.0  0.95840  0.23250  0.45070  1.0000 0.1293952332
H   H19       1.0  0.21820  0.76750  0.72590  1.0000 0.1293952332
H   H20       1.0  0.04160  0.49230  0.27410  1.0000 0.1293952332
H   H21       1.0  0.54930  0.78180  0.50770  1.0000 0.1293952332
H   H22       1.0  0.45070  0.95840  0.23250  1.0000 0.1293952332
H   H23       1.0  0.72590  0.21820  0.76750  1.0000 0.1293952332
H   H24       1.0  0.27410  0.04160  0.49230  1.0000 0.1293952332
H   H25       1.0  0.45010  0.39900  0.27210  1.0000 0.1192773665
H   H26       1.0  0.12690  0.17800  0.72790  1.0000 0.1192773665
H   H27       1.0  0.54990  0.82200  0.94890  1.0000 0.1192773665
H   H28       1.0  0.87310  0.60100  0.05110  1.0000 0.1192773665
H   H29       1.0  0.27210  0.45010  0.39900  1.0000 0.1192773665
H   H30       1.0  0.05110  0.87310  0.60100  1.0000 0.1192773665
H   H31       1.0  0.72790  0.12690  0.17800  1.0000 0.1192773665
H   H32       1.0  0.94890  0.54990  0.82200  1.0000 0.1192773665
H   H33       1.0  0.39900  0.27210  0.45010  1.0000 0.1192773665
H   H34       1.0  0.60100  0.05110  0.87310  1.0000 0.1192773665
H   H35       1.0  0.17800  0.72790  0.12690  1.0000 0.1192773665
H   H36       1.0  0.82200  0.94890  0.54990  1.0000 0.1192773665
H   H37       1.0  0.54990  0.60100  0.72790  1.0000 0.1192773665
H   H38       1.0  0.87310  0.82200  0.27210  1.0000 0.1192773665
H   H39       1.0  0.45010  0.17800  0.05110  1.0000 0.1192773665
H   H40       1.0  0.12690  0.39900  0.94890  1.0000 0.1192773665
H   H41       1.0  0.72790  0.54990  0.60100  1.0000 0.1192773665
H   H42       1.0  0.94890  0.12690  0.39900  1.0000 0.1192773665
H   H43       1.0  0.27210  0.87310  0.82200  1.0000 0.1192773665
H   H44       1.0  0.05110  0.45010  0.17800  1.0000 0.1192773665
H   H45       1.0  0.60100  0.72790  0.54990  1.0000 0.1192773665
H   H46       1.0  0.39900  0.94890  0.12690  1.0000 0.1192773665
H   H47       1.0  0.82200  0.27210  0.87310  1.0000 0.1192773665
H   H48       1.0  0.17800  0.05110  0.45010  1.0000 0.1192773665
H   H49       1.0  0.45420  0.56720  0.38640  1.0000 0.1192773665
H   H50       1.0  0.18080  0.06780  0.61360  1.0000 0.1192773665
H   H51       1.0  0.54580  0.93220  0.11300  1.0000 0.1192773665
H   H52       1.0  0.81920  0.43280  0.88700  1.0000 0.1192773665
H   H53       1.0  0.38640  0.45420  0.56720  1.0000 0.1192773665
H   H54       1.0  0.88700  0.81920  0.43280  1.0000 0.1192773665
H   H55       1.0  0.61360  0.18080  0.06780  1.0000 0.1192773665
H   H56       1.0  0.11300  0.54580  0.93220  1.0000 0.1192773665
H   H57       1.0  0.56720  0.38640  0.45420  1.0000 0.1192773665
H   H58       1.0  0.43280  0.88700  0.81920  1.0000 0.1192773665
H   H59       1.0  0.06780  0.61360  0.18080  1.0000 0.1192773665
H   H60       1.0  0.93220  0.11300  0.54580  1.0000 0.1192773665
H   H61       1.0  0.54580  0.43280  0.61360  1.0000 0.1192773665
H   H62       1.0  0.81920  0.93220  0.38640  1.0000 0.1192773665
H   H63       1.0  0.45420  0.06780  0.88700  1.0000 0.1192773665
H   H64       1.0  0.18080  0.56720  0.11300  1.0000 0.1192773665
H   H65       1.0  0.61360  0.54580  0.43280  1.0000 0.1192773665
H   H66       1.0  0.11300  0.18080  0.56720  1.0000 0.1192773665
H   H67       1.0  0.38640  0.81920  0.93220  1.0000 0.1192773665
H   H68       1.0  0.88700  0.45420  0.06780  1.0000 0.1192773665
H   H69       1.0  0.43280  0.61360  0.54580  1.0000 0.1192773665
H   H70       1.0  0.56720  0.11300  0.18080  1.0000 0.1192773665
H   H71       1.0  0.93220  0.38640  0.81920  1.0000 0.1192773665
H   H72       1.0  0.06780  0.88700  0.45420  1.0000 0.1192773665
H   H73       1.0  0.47650  0.61330  0.31980  1.0000 0.1293952332
H   H74       1.0  0.29350  0.15670  0.68020  1.0000 0.1293952332
H   H75       1.0  0.52350  0.84330  0.13680  1.0000 0.1293952332
H   H76       1.0  0.70650  0.38670  0.86320  1.0000 0.1293952332
H   H77       1.0  0.31980  0.47650  0.61330  1.0000 0.1293952332
H   H78       1.0  0.86320  0.70650  0.38670  1.0000 0.1293952332
H   H79       1.0  0.68020  0.29350  0.15670  1.0000 0.1293952332
H   H80       1.0  0.13680  0.52350  0.84330  1.0000 0.1293952332
H   H81       1.0  0.61330  0.31980  0.47650  1.0000 0.1293952332
H   H82       1.0  0.38670  0.86320  0.70650  1.0000 0.1293952332
H   H83       1.0  0.15670  0.68020  0.29350  1.0000 0.1293952332
H   H84       1.0  0.84330  0.13680  0.52350  1.0000 0.1293952332
H   H85       1.0  0.52350  0.38670  0.68020  1.0000 0.1293952332
H   H86       1.0  0.70650  0.84330  0.31980  1.0000 0.1293952332
H   H87       1.0  0.47650  0.15670  0.86320  1.0000 0.1293952332
H   H88       1.0  0.29350  0.61330  0.13680  1.0000 0.1293952332
H   H89       1.0  0.68020  0.52350  0.38670  1.0000 0.1293952332
H   H90       1.0  0.13680  0.29350  0.61330  1.0000 0.1293952332
H   H91       1.0  0.31980  0.70650  0.84330  1.0000 0.1293952332
H   H92       1.0  0.86320  0.47650  0.15670  1.0000 0.1293952332
H   H93       1.0  0.38670  0.68020  0.52350  1.0000 0.1293952332
H   H94       1.0  0.61330  0.13680  0.29350  1.0000 0.1293952332
H   H95       1.0  0.84330  0.31980  0.70650  1.0000 0.1293952332
H   H96       1.0  0.15670  0.86320  0.47650  1.0000 0.1293952332
H   H97       1.0  0.49180  0.39910  0.37930  1.0000 0.1192773665
H   H98       1.0  0.01980  0.11250  0.62070  1.0000 0.1192773665
H   H99       1.0  0.50820  0.88750  0.90730  1.0000 0.1192773665
H   H100      1.0  0.98020  0.60090  0.09270  1.0000 0.1192773665
H   H101      1.0  0.37930  0.49180  0.39910  1.0000 0.1192773665
H   H102      1.0  0.09270  0.98020  0.60090  1.0000 0.1192773665
H   H103      1.0  0.62070  0.01980  0.11250  1.0000 0.1192773665
H   H104      1.0  0.90730  0.50820  0.88750  1.0000 0.1192773665
H   H105      1.0  0.39910  0.37930  0.49180  1.0000 0.1192773665
H   H106      1.0  0.60090  0.09270  0.98020  1.0000 0.1192773665
H   H107      1.0  0.11250  0.62070  0.01980  1.0000 0.1192773665
H   H108      1.0  0.88750  0.90730  0.50820  1.0000 0.1192773665
H   H109      1.0  0.50820  0.60090  0.62070  1.0000 0.1192773665
H   H110      1.0  0.98020  0.88750  0.37930  1.0000 0.1192773665
H   H111      1.0  0.49180  0.11250  0.09270  1.0000 0.1192773665
H   H112      1.0  0.01980  0.39910  0.90730  1.0000 0.1192773665
H   H113      1.0  0.62070  0.50820  0.60090  1.0000 0.1192773665
H   H114      1.0  0.90730  0.01980  0.39910  1.0000 0.1192773665
H   H115      1.0  0.37930  0.98020  0.88750  1.0000 0.1192773665
H   H116      1.0  0.09270  0.49180  0.11250  1.0000 0.1192773665
H   H117      1.0  0.60090  0.62070  0.50820  1.0000 0.1192773665
H   H118      1.0  0.39910  0.90730  0.01980  1.0000 0.1192773665
H   H119      1.0  0.88750  0.37930  0.98020  1.0000 0.1192773665
H   H120      1.0  0.11250  0.09270  0.49180  1.0000 0.1192773665
C   C1        1.0  0.49760  0.56240  0.21406  1.0000 0.5659846844
C   C2        1.0  0.34834  0.28354  0.78594  1.0000 0.5659846844
C   C3        1.0  0.50240  0.71646  0.06480  1.0000 0.5659846844
C   C4        1.0  0.65166  0.43760  0.93520  1.0000 0.5659846844
C   C5        1.0  0.21406  0.49760  0.56240  1.0000 0.5659846844
C   C6        1.0  0.93520  0.65166  0.43760  1.0000 0.5659846844
C   C7        1.0  0.78594  0.34834  0.28354  1.0000 0.5659846844
C   C8        1.0  0.06480  0.50240  0.71646  1.0000 0.5659846844
C   C9        1.0  0.56240  0.21406  0.49760  1.0000 0.5659846844
C   C10       1.0  0.43760  0.93520  0.65166  1.0000 0.5659846844
C   C11       1.0  0.28354  0.78594  0.34834  1.0000 0.5659846844
C   C12       1.0  0.71646  0.06480  0.50240  1.0000 0.5659846844
C   C13       1.0  0.50240  0.43760  0.78594  1.0000 0.5659846844
C   C14       1.0  0.65166  0.71646  0.21406  1.0000 0.5659846844
C   C15       1.0  0.49760  0.28354  0.93520  1.0000 0.5659846844
C   C16       1.0  0.34834  0.56240  0.06480  1.0000 0.5659846844
C   C17       1.0  0.78594  0.50240  0.43760  1.0000 0.5659846844
C   C18       1.0  0.06480  0.34834  0.56240  1.0000 0.5659846844
C   C19       1.0  0.21406  0.65166  0.71646  1.0000 0.5659846844
C   C20       1.0  0.93520  0.49760  0.28354  1.0000 0.5659846844
C   C21       1.0  0.43760  0.78594  0.50240  1.0000 0.5659846844
C   C22       1.0  0.56240  0.06480  0.34834  1.0000 0.5659846844
C   C23       1.0  0.71646  0.21406  0.65166  1.0000 0.5659846844
C   C24       1.0  0.28354  0.93520  0.49760  1.0000 0.5659846844
C   C25       1.0  0.48025  0.53380  0.25701  1.0000 -0.0127407408
C   C26       1.0  0.27679  0.22324  0.74299  1.0000 -0.0127407408
C   C27       1.0  0.51975  0.77676  0.05355  1.0000 -0.0127407408
C   C28       1.0  0.72321  0.46620  0.94645  1.0000 -0.0127407408
C   C29       1.0  0.25701  0.48025  0.53380  1.0000 -0.0127407408
C   C30       1.0  0.94645  0.72321  0.46620  1.0000 -0.0127407408
C   C31       1.0  0.74299  0.27679  0.22324  1.0000 -0.0127407408
C   C32       1.0  0.05355  0.51975  0.77676  1.0000 -0.0127407408
C   C33       1.0  0.53380  0.25701  0.48025  1.0000 -0.0127407408
C   C34       1.0  0.46620  0.94645  0.72321  1.0000 -0.0127407408
C   C35       1.0  0.22324  0.74299  0.27679  1.0000 -0.0127407408
C   C36       1.0  0.77676  0.05355  0.51975  1.0000 -0.0127407408
C   C37       1.0  0.51975  0.46620  0.74299  1.0000 -0.0127407408
C   C38       1.0  0.72321  0.77676  0.25701  1.0000 -0.0127407408
C   C39       1.0  0.48025  0.22324  0.94645  1.0000 -0.0127407408
C   C40       1.0  0.27679  0.53380  0.05355  1.0000 -0.0127407408
C   C41       1.0  0.74299  0.51975  0.46620  1.0000 -0.0127407408
C   C42       1.0  0.05355  0.27679  0.53380  1.0000 -0.0127407408
C   C43       1.0  0.25701  0.72321  0.77676  1.0000 -0.0127407408
C   C44       1.0  0.94645  0.48025  0.22324  1.0000 -0.0127407408
C   C45       1.0  0.46620  0.74299  0.51975  1.0000 -0.0127407408
C   C46       1.0  0.53380  0.05355  0.27679  1.0000 -0.0127407408
C   C47       1.0  0.77676  0.25701  0.72321  1.0000 -0.0127407408
C   C48       1.0  0.22324  0.94645  0.48025  1.0000 -0.0127407408
C   C49       1.0  0.47953  0.47211  0.24832  1.0000 -0.085634524
C   C50       1.0  0.22379  0.23121  0.75168  1.0000 -0.0829588324
C   C51       1.0  0.52047  0.76879  0.99258  1.0000 -0.0829588324
C   C52       1.0  0.77621  0.52789  0.00742  1.0000 -0.085634524
C   C53       1.0  0.24832  0.47953  0.47211  1.0000 -0.085634524
C   C54       1.0  0.00742  0.77621  0.52789  1.0000 -0.085634524
C   C55       1.0  0.75168  0.22379  0.23121  1.0000 -0.085634524
C   C56       1.0  0.99258  0.52047  0.76879  1.0000 -0.0829588324
C   C57       1.0  0.47211  0.24832  0.47953  1.0000 -0.085634524
C   C58       1.0  0.52789  0.00742  0.77621  1.0000 -0.085634524
C   C59       1.0  0.23121  0.75168  0.22379  1.0000 -0.085634524
C   C60       1.0  0.76879  0.99258  0.52047  1.0000 -0.085634524
C   C61       1.0  0.52047  0.52789  0.75168  1.0000 -0.0829588324
C   C62       1.0  0.77621  0.76879  0.24832  1.0000 -0.085634524
C   C63       1.0  0.47953  0.23121  0.00742  1.0000 -0.085634524
C   C64       1.0  0.22379  0.47211  0.99258  1.0000 -0.085634524
C   C65       1.0  0.75168  0.52047  0.52789  1.0000 -0.085634524
C   C66       1.0  0.99258  0.22379  0.47211  1.0000 -0.085634524
C   C67       1.0  0.24832  0.77621  0.76879  1.0000 -0.0829588324
C   C68       1.0  0.00742  0.47953  0.23121  1.0000 -0.085634524
C   C69       1.0  0.52789  0.75168  0.52047  1.0000 -0.0829588324
C   C70       1.0  0.47211  0.99258  0.22379  1.0000 -0.085634524
C   C71       1.0  0.76879  0.24832  0.77621  1.0000 -0.085634524
C   C72       1.0  0.23121  0.00742  0.47953  1.0000 -0.085634524
C   C73       1.0  0.45987  0.44418  0.28461  1.0000 -0.148803293
C   C74       1.0  0.15957  0.17526  0.71539  1.0000 -0.148803293
C   C75       1.0  0.54013  0.82474  0.98431  1.0000 -0.148803293
C   C76       1.0  0.84043  0.55582  0.01569  1.0000 -0.148803293
C   C77       1.0  0.28461  0.45987  0.44418  1.0000 -0.148803293
C   C78       1.0  0.01569  0.84043  0.55582  1.0000 -0.148803293
C   C79       1.0  0.71539  0.15957  0.17526  1.0000 -0.148803293
C   C80       1.0  0.98431  0.54013  0.82474  1.0000 -0.148803293
C   C81       1.0  0.44418  0.28461  0.45987  1.0000 -0.148803293
C   C82       1.0  0.55582  0.01569  0.84043  1.0000 -0.148803293
C   C83       1.0  0.17526  0.71539  0.15957  1.0000 -0.148803293
C   C84       1.0  0.82474  0.98431  0.54013  1.0000 -0.148803293
C   C85       1.0  0.54013  0.55582  0.71539  1.0000 -0.148803293
C   C86       1.0  0.84043  0.82474  0.28461  1.0000 -0.148803293
C   C87       1.0  0.45987  0.17526  0.01569  1.0000 -0.148803293
C   C88       1.0  0.15957  0.44418  0.98431  1.0000 -0.148803293
C   C89       1.0  0.71539  0.54013  0.55582  1.0000 -0.148803293
C   C90       1.0  0.98431  0.15957  0.44418  1.0000 -0.148803293
C   C91       1.0  0.28461  0.84043  0.82474  1.0000 -0.148803293
C   C92       1.0  0.01569  0.45987  0.17526  1.0000 -0.148803293
C   C93       1.0  0.55582  0.71539  0.54013  1.0000 -0.148803293
C   C94       1.0  0.44418  0.98431  0.15957  1.0000 -0.148803293
C   C95       1.0  0.82474  0.28461  0.84043  1.0000 -0.148803293
C   C96       1.0  0.17526  0.01569  0.45987  1.0000 -0.148803293
C   C97       1.0  0.45377  0.48078  0.34021  1.0000 0.0603758746
C   C98       1.0  0.14057  0.11356  0.65979  1.0000 0.0603758746
C   C99       1.0  0.54623  0.88644  0.02701  1.0000 0.0603758746
C   C100      1.0  0.85943  0.51922  0.97299  1.0000 0.0603758746
C   C101      1.0  0.34021  0.45377  0.48078  1.0000 0.0603758746
C   C102      1.0  0.97299  0.85943  0.51922  1.0000 0.0603758746
C   C103      1.0  0.65979  0.14057  0.11356  1.0000 0.0603758746
C   C104      1.0  0.02701  0.54623  0.88644  1.0000 0.0603758746
C   C105      1.0  0.48078  0.34021  0.45377  1.0000 0.0603758746
C   C106      1.0  0.51922  0.97299  0.85943  1.0000 0.0603758746
C   C107      1.0  0.11356  0.65979  0.14057  1.0000 0.0603758746
C   C108      1.0  0.88644  0.02701  0.54623  1.0000 0.0603758746
C   C109      1.0  0.54623  0.51922  0.65979  1.0000 0.0603758746
C   C110      1.0  0.85943  0.88644  0.34021  1.0000 0.0603758746
C   C111      1.0  0.45377  0.11356  0.97299  1.0000 0.0603758746
C   C112      1.0  0.14057  0.48078  0.02701  1.0000 0.0603758746
C   C113      1.0  0.65979  0.54623  0.51922  1.0000 0.0603758746
C   C114      1.0  0.02701  0.14057  0.48078  1.0000 0.0603758746
C   C115      1.0  0.34021  0.85943  0.88644  1.0000 0.0603758746
C   C116      1.0  0.97299  0.45377  0.11356  1.0000 0.0603758746
C   C117      1.0  0.51922  0.65979  0.54623  1.0000 0.0603758746
C   C118      1.0  0.48078  0.02701  0.14057  1.0000 0.0603758746
C   C119      1.0  0.88644  0.34021  0.85943  1.0000 0.0603758746
C   C120      1.0  0.11356  0.97299  0.45377  1.0000 0.0603758746
C   C121      1.0  0.45941  0.54235  0.35066  1.0000 -0.1615014827
C   C122      1.0  0.19169  0.10875  0.64934  1.0000 -0.1615014827
C   C123      1.0  0.54059  0.89125  0.08294  1.0000 -0.1615014827
C   C124      1.0  0.80831  0.45765  0.91706  1.0000 -0.1615014827
C   C125      1.0  0.35066  0.45941  0.54235  1.0000 -0.1615014827
C   C126      1.0  0.91706  0.80831  0.45765  1.0000 -0.1615014827
C   C127      1.0  0.64934  0.19169  0.10875  1.0000 -0.1615014827
C   C128      1.0  0.08294  0.54059  0.89125  1.0000 -0.1615014827
C   C129      1.0  0.54235  0.35066  0.45941  1.0000 -0.1615014827
C   C130      1.0  0.45765  0.91706  0.80831  1.0000 -0.1615014827
C   C131      1.0  0.10875  0.64934  0.19169  1.0000 -0.1615014827
C   C132      1.0  0.89125  0.08294  0.54059  1.0000 -0.1615014827
C   C133      1.0  0.54059  0.45765  0.64934  1.0000 -0.1615014827
C   C134      1.0  0.80831  0.89125  0.35066  1.0000 -0.1615014827
C   C135      1.0  0.45941  0.10875  0.91706  1.0000 -0.1615014827
C   C136      1.0  0.19169  0.54235  0.08294  1.0000 -0.1615014827
C   C137      1.0  0.64934  0.54059  0.45765  1.0000 -0.1615014827
C   C138      1.0  0.08294  0.19169  0.54235  1.0000 -0.1615014827
C   C139      1.0  0.35066  0.80831  0.89125  1.0000 -0.1615014827
C   C140      1.0  0.91706  0.45941  0.10875  1.0000 -0.1615014827
C   C141      1.0  0.45765  0.64934  0.54059  1.0000 -0.1615014827
C   C142      1.0  0.54235  0.08294  0.19169  1.0000 -0.1615014827
C   C143      1.0  0.89125  0.35066  0.80831  1.0000 -0.1615014827
C   C144      1.0  0.10875  0.91706  0.45941  1.0000 -0.1615014827
C   C145      1.0  0.47270  0.57039  0.31073  1.0000 -0.0829588324
C   C146      1.0  0.25966  0.16197  0.68927  1.0000 -0.0829588324
C   C147      1.0  0.52730  0.83803  0.09769  1.0000 -0.0829588324
C   C148      1.0  0.74034  0.42961  0.90231  1.0000 -0.0829588324
C   C149      1.0  0.31073  0.47270  0.57039  1.0000 -0.0829588324
C   C150      1.0  0.90231  0.74034  0.42961  1.0000 -0.0829588324
C   C151      1.0  0.68927  0.25966  0.16197  1.0000 -0.0829588324
C   C152      1.0  0.09769  0.52730  0.83803  1.0000 -0.0829588324
C   C153      1.0  0.57039  0.31073  0.47270  1.0000 -0.0829588324
C   C154      1.0  0.42961  0.90231  0.74034  1.0000 -0.0829588324
C   C155      1.0  0.16197  0.68927  0.25966  1.0000 -0.0829588324
C   C156      1.0  0.83803  0.09769  0.52730  1.0000 -0.0829588324
C   C157      1.0  0.52730  0.42961  0.68927  1.0000 -0.0829588324
C   C158      1.0  0.74034  0.83803  0.31073  1.0000 -0.0829588324
C   C159      1.0  0.47270  0.16197  0.90231  1.0000 -0.0829588324
C   C160      1.0  0.25966  0.57039  0.09769  1.0000 -0.0829588324
C   C161      1.0  0.68927  0.52730  0.42961  1.0000 -0.0829588324
C   C162      1.0  0.09769  0.25966  0.57039  1.0000 -0.0829588324
C   C163      1.0  0.31073  0.74034  0.83803  1.0000 -0.0829588324
C   C164      1.0  0.90231  0.47270  0.16197  1.0000 -0.0829588324
C   C165      1.0  0.42961  0.68927  0.52730  1.0000 -0.0829588324
C   C166      1.0  0.57039  0.09769  0.25966  1.0000 -0.0829588324
C   C167      1.0  0.83803  0.31073  0.74034  1.0000 -0.0829588324
C   C168      1.0  0.16197  0.90231  0.47270  1.0000 -0.0829588324
C   C169      1.0  0.43816  0.44969  0.38209  1.0000 0.090543308
C   C170      1.0  0.06760  0.05607  0.61791  1.0000 0.090543308
C   C171      1.0  0.56184  0.94393  0.01153  1.0000 0.090543308
C   C172      1.0  0.93240  0.55031  0.98847  1.0000 0.090543308
C   C173      1.0  0.38209  0.43816  0.44969  1.0000 0.090543308
C   C174      1.0  0.98847  0.93240  0.55031  1.0000 0.090543308
C   C175      1.0  0.61791  0.06760  0.05607  1.0000 0.090543308
C   C176      1.0  0.01153  0.56184  0.94393  1.0000 0.090543308
C   C177      1.0  0.44969  0.38209  0.43816  1.0000 0.090543308
C   C178      1.0  0.55031  0.98847  0.93240  1.0000 0.090543308
C   C179      1.0  0.05607  0.61791  0.06760  1.0000 0.090543308
C   C180      1.0  0.94393  0.01153  0.56184  1.0000 0.090543308
C   C181      1.0  0.56184  0.55031  0.61791  1.0000 0.090543308
C   C182      1.0  0.93240  0.94393  0.38209  1.0000 0.090543308
C   C183      1.0  0.43816  0.05607  0.98847  1.0000 0.090543308
C   C184      1.0  0.06760  0.44969  0.01153  1.0000 0.090543308
C   C185      1.0  0.61791  0.56184  0.55031  1.0000 0.090543308
C   C186      1.0  0.01153  0.06760  0.44969  1.0000 0.090543308
C   C187      1.0  0.38209  0.93240  0.94393  1.0000 0.090543308
C   C188      1.0  0.98847  0.43816  0.05607  1.0000 0.090543308
C   C189      1.0  0.55031  0.61791  0.56184  1.0000 0.090543308
C   C190      1.0  0.44969  0.01153  0.06760  1.0000 0.090543308
C   C191      1.0  0.94393  0.38209  0.93240  1.0000 0.090543308
C   C192      1.0  0.05607  0.98847  0.43816  1.0000 0.090543308
C   C193      1.0  0.46438  0.40885  0.39683  1.0000 -0.1975835251
C   C194      1.0  0.01202  0.06755  0.60317  1.0000 -0.1975835251
C   C195      1.0  0.53562  0.93245  0.94447  1.0000 -0.1975835251
C   C196      1.0  0.98798  0.59115  0.05553  1.0000 -0.1975835251
C   C197      1.0  0.39683  0.46438  0.40885  1.0000 -0.1975835251
C   C198      1.0  0.05553  0.98798  0.59115  1.0000 -0.1975835251
C   C199      1.0  0.60317  0.01202  0.06755  1.0000 -0.1975835251
C   C200      1.0  0.94447  0.53562  0.93245  1.0000 -0.1975835251
C   C201      1.0  0.40885  0.39683  0.46438  1.0000 -0.1975835251
C   C202      1.0  0.59115  0.05553  0.98798  1.0000 -0.1975835251
C   C203      1.0  0.06755  0.60317  0.01202  1.0000 -0.1975835251
C   C204      1.0  0.93245  0.94447  0.53562  1.0000 -0.1975835251
C   C205      1.0  0.53562  0.59115  0.60317  1.0000 -0.1975835251
C   C206      1.0  0.98798  0.93245  0.39683  1.0000 -0.1975835251
C   C207      1.0  0.46438  0.06755  0.05553  1.0000 -0.1975835251
C   C208      1.0  0.01202  0.40885  0.94447  1.0000 -0.1975835251
C   C209      1.0  0.60317  0.53562  0.59115  1.0000 -0.1975835251
C   C210      1.0  0.94447  0.01202  0.40885  1.0000 -0.1975835251
C   C211      1.0  0.39683  0.98798  0.93245  1.0000 -0.1975835251
C   C212      1.0  0.05553  0.46438  0.06755  1.0000 -0.1975835251
C   C213      1.0  0.59115  0.60317  0.53562  1.0000 -0.1975835251
C   C214      1.0  0.40885  0.94447  0.01202  1.0000 -0.1975835251
C   C215      1.0  0.93245  0.39683  0.98798  1.0000 -0.1975835251
C   C216      1.0  0.06755  0.05553  0.46438  1.0000 -0.1975835251
O   O1        1.0  0.49872  0.61800  0.22424  1.0000 -0.5922936191
O   O2        1.0  0.39376  0.27448  0.77576  1.0000 -0.5922936191
O   O3        1.0  0.50128  0.72552  0.11928  1.0000 -0.5950324007
O   O4        1.0  0.60624  0.38200  0.88072  1.0000 -0.5922936191
O   O5        1.0  0.22424  0.49872  0.61800  1.0000 -0.5922936191
O   O6        1.0  0.88072  0.60624  0.38200  1.0000 -0.5922936191
O   O7        1.0  0.77576  0.39376  0.27448  1.0000 -0.5922936191
O   O8        1.0  0.11928  0.50128  0.72552  1.0000 -0.5922936191
O   O9        1.0  0.61800  0.22424  0.49872  1.0000 -0.5922936191
O   O10       1.0  0.38200  0.88072  0.60624  1.0000 -0.5922936191
O   O11       1.0  0.27448  0.77576  0.39376  1.0000 -0.5922936191
O   O12       1.0  0.72552  0.11928  0.50128  1.0000 -0.5922936191
O   O13       1.0  0.50128  0.38200  0.77576  1.0000 -0.5922936191
O   O14       1.0  0.60624  0.72552  0.22424  1.0000 -0.5922936191
O   O15       1.0  0.49872  0.27448  0.88072  1.0000 -0.5922936191
O   O16       1.0  0.39376  0.61800  0.11928  1.0000 -0.5922936191
O   O17       1.0  0.77576  0.50128  0.38200  1.0000 -0.5922936191
O   O18       1.0  0.11928  0.39376  0.61800  1.0000 -0.5922936191
O   O19       1.0  0.22424  0.60624  0.72552  1.0000 -0.5922936191
O   O20       1.0  0.88072  0.49872  0.27448  1.0000 -0.5922936191
O   O21       1.0  0.38200  0.77576  0.50128  1.0000 -0.5922936191
O   O22       1.0  0.61800  0.11928  0.39376  1.0000 -0.5922936191
O   O23       1.0  0.72552  0.22424  0.60624  1.0000 -0.5922936191
O   O24       1.0  0.27448  0.88072  0.49872  1.0000 -0.5922936191
O   O25       1.0  0.51166  0.53394  0.17090  1.0000 -0.4025205519
O   O26       1.0  0.36304  0.34076  0.82910  1.0000 -0.4025205519
O   O27       1.0  0.48834  0.65924  0.02228  1.0000 -0.406676776
O   O28       1.0  0.63696  0.46606  0.97772  1.0000 -0.4025205519
O   O29       1.0  0.17090  0.51166  0.53394  1.0000 -0.4025205519
O   O30       1.0  0.97772  0.63696  0.46606  1.0000 -0.4025205519
O   O31       1.0  0.82910  0.36304  0.34076  1.0000 -0.4025205519
O   O32       1.0  0.02228  0.48834  0.65924  1.0000 -0.4025205519
O   O33       1.0  0.53394  0.17090  0.51166  1.0000 -0.4025205519
O   O34       1.0  0.46606  0.97772  0.63696  1.0000 -0.4025205519
O   O35       1.0  0.34076  0.82910  0.36304  1.0000 -0.4025205519
O   O36       1.0  0.65924  0.02228  0.48834  1.0000 -0.4025205519
O   O37       1.0  0.48834  0.46606  0.82910  1.0000 -0.4025205519
O   O38       1.0  0.63696  0.65924  0.17090  1.0000 -0.4025205519
O   O39       1.0  0.51166  0.34076  0.97772  1.0000 -0.4025205519
O   O40       1.0  0.36304  0.53394  0.02228  1.0000 -0.4025205519
O   O41       1.0  0.82910  0.48834  0.46606  1.0000 -0.4025205519
O   O42       1.0  0.02228  0.36304  0.53394  1.0000 -0.4025205519
O   O43       1.0  0.17090  0.63696  0.65924  1.0000 -0.4025205519
O   O44       1.0  0.97772  0.51166  0.34076  1.0000 -0.4025205519
O   O45       1.0  0.46606  0.82910  0.48834  1.0000 -0.4025205519
O   O46       1.0  0.53394  0.02228  0.36304  1.0000 -0.4025205519
O   O47       1.0  0.65924  0.17090  0.63696  1.0000 -0.4025205519
O   O48       1.0  0.34076  0.97772  0.51166  1.0000 -0.4025205519
