# DDEC6 charges by PACMAN v1.1 (https://github.com/mtap-research/PACMAN-charge/)
data_2015[AgYb][nan]3[ASR]1
_chemical_formula_sum              "Yb4 Ag4 H32 C56 N8 O32"
_cell_length_a       11.9991
_cell_length_b       11.9991
_cell_length_c       16.508
_cell_angle_alpha    83.8027
_cell_angle_beta     96.1973
_cell_angle_gamma    133.994

_symmetry_space_group_name_H-M    "P 1"
_symmetry_Int_Tables_number       1

loop_
  _symmetry_equiv_pos_as_xyz
  'x, y, z'

loop_
  _atom_site_type_symbol
  _atom_site_label
  _atom_site_symmetry_multiplicity
  _atom_site_fract_x
  _atom_site_fract_y
  _atom_site_fract_z
  _atom_site_occupancy
  _atom_site_charge
Yb  Yb1       1.0  0.19740  0.20680  0.56590  1.0000 2.0613497152
Yb  Yb2       1.0  0.20680  0.19740  0.93410  1.0000 2.0613497152
Yb  Yb3       1.0  0.80260  0.79320  0.43410  1.0000 2.0613497152
Yb  Yb4       1.0  0.79320  0.80260  0.06590  1.0000 2.0613497152
Ag  Ag1       1.0  0.78425  0.46621  0.57925  1.0000 0.3420625208
Ag  Ag2       1.0  0.46621  0.78425  0.92075  1.0000 0.3420625208
Ag  Ag3       1.0  0.21575  0.53379  0.42075  1.0000 0.3420625208
Ag  Ag4       1.0  0.53379  0.21575  0.07925  1.0000 0.3420625208
H   H1        1.0  0.46670  0.36830  0.33190  1.0000 0.1492244667
H   H2        1.0  0.36830  0.46670  0.16810  1.0000 0.1492244667
H   H3        1.0  0.53330  0.63170  0.66810  1.0000 0.1492244667
H   H4        1.0  0.63170  0.53330  0.83190  1.0000 0.1492244667
H   H5        1.0  0.08270  0.66730  0.46080  1.0000 0.1137838467
H   H6        1.0  0.66730  0.08270  0.03920  1.0000 0.1137838467
H   H7        1.0  0.91730  0.33270  0.53920  1.0000 0.1137838467
H   H8        1.0  0.33270  0.91730  0.96080  1.0000 0.1137838467
H   H9        1.0  0.43620  0.74160  0.56130  1.0000 0.1224579393
H   H10       1.0  0.74160  0.43620  0.93870  1.0000 0.1224579393
H   H11       1.0  0.56380  0.25840  0.43870  1.0000 0.1224579393
H   H12       1.0  0.25840  0.56380  0.06130  1.0000 0.1224579393
H   H13       1.0  0.51070  0.94210  0.63330  1.0000 0.1224579393
H   H14       1.0  0.94210  0.51070  0.86670  1.0000 0.1224579393
H   H15       1.0  0.48930  0.05790  0.36670  1.0000 0.1224579393
H   H16       1.0  0.05790  0.48930  0.13330  1.0000 0.1224579393
H   H17       1.0  0.37330  0.01050  0.61420  1.0000 0.1492244667
H   H18       1.0  0.01050  0.37330  0.88580  1.0000 0.1492244667
H   H19       1.0  0.62670  0.98950  0.38580  1.0000 0.1492244667
H   H20       1.0  0.98950  0.62670  0.11420  1.0000 0.1492244667
H   H21       1.0  0.25690  0.95670  0.18370  1.0000 0.104625444
H   H22       1.0  0.95670  0.25690  0.31630  1.0000 0.104625444
H   H23       1.0  0.74310  0.04330  0.81630  1.0000 0.104625444
H   H24       1.0  0.04330  0.74310  0.68370  1.0000 0.104625444
H   H25       1.0  0.58980  0.39400  0.22500  1.0000 0.1224579393
H   H26       1.0  0.39400  0.58980  0.27500  1.0000 0.1224579393
H   H27       1.0  0.41020  0.60600  0.77500  1.0000 0.1224579393
H   H28       1.0  0.60600  0.41020  0.72500  1.0000 0.1224579393
H   H29       1.0  0.11110  0.92370  0.27970  1.0000 0.1492244667
H   H30       1.0  0.92370  0.11110  0.22030  1.0000 0.1492244667
H   H31       1.0  0.88890  0.07630  0.72030  1.0000 0.1492244667
H   H32       1.0  0.07630  0.88890  0.77970  1.0000 0.1492244667
C   C1        1.0  0.20900  0.84240  0.53610  1.0000 -0.0856501152
C   C2        1.0  0.84240  0.20900  0.96390  1.0000 -0.0856501152
C   C3        1.0  0.79100  0.15760  0.46390  1.0000 -0.0856501152
C   C4        1.0  0.15760  0.79100  0.03610  1.0000 -0.0856501152
C   C5        1.0  0.26830  0.13970  0.31630  1.0000 0.0209414783
C   C6        1.0  0.13970  0.26830  0.18370  1.0000 0.0209414783
C   C7        1.0  0.73170  0.86030  0.68370  1.0000 0.0209414783
C   C8        1.0  0.86030  0.73170  0.81630  1.0000 0.0209414783
C   C9        1.0  0.17020  0.11780  0.37880  1.0000 0.6321374281
C   C10       1.0  0.11780  0.17020  0.12120  1.0000 0.6321374281
C   C11       1.0  0.82980  0.88220  0.62120  1.0000 0.6321374281
C   C12       1.0  0.88220  0.82980  0.87880  1.0000 0.6321374281
C   C13       1.0  0.41900  0.28420  0.30030  1.0000 -0.1595553578
C   C14       1.0  0.28420  0.41900  0.19970  1.0000 -0.1595553578
C   C15       1.0  0.58100  0.71580  0.69970  1.0000 -0.1595553578
C   C16       1.0  0.71580  0.58100  0.80030  1.0000 -0.1595553578
C   C17       1.0  0.11300  0.87960  0.52380  1.0000 0.6321374281
C   C18       1.0  0.87960  0.11300  0.97620  1.0000 0.6321374281
C   C19       1.0  0.88700  0.12040  0.47620  1.0000 0.6321374281
C   C20       1.0  0.12040  0.88700  0.02380  1.0000 0.6321374281
C   C21       1.0  0.17220  0.72540  0.49460  1.0000 0.0209414783
C   C22       1.0  0.72540  0.17220  0.00540  1.0000 0.0209414783
C   C23       1.0  0.82780  0.27460  0.50540  1.0000 0.0209414783
C   C24       1.0  0.27460  0.82780  0.99460  1.0000 0.0209414783
C   C25       1.0  0.37930  0.76850  0.55330  1.0000 0.0799482941
C   C26       1.0  0.76850  0.37930  0.94670  1.0000 0.0799482941
C   C27       1.0  0.62070  0.23150  0.44670  1.0000 0.0799482941
C   C28       1.0  0.23150  0.62070  0.05330  1.0000 0.0799482941
C   C29       1.0  0.42420  0.88920  0.59730  1.0000 -0.138626148
C   C30       1.0  0.88920  0.42420  0.90270  1.0000 -0.138626148
C   C31       1.0  0.57580  0.11080  0.40270  1.0000 -0.138626148
C   C32       1.0  0.11080  0.57580  0.09730  1.0000 -0.138626148
C   C33       1.0  0.34190  0.92770  0.58730  1.0000 -0.0483144781
C   C34       1.0  0.92770  0.34190  0.91270  1.0000 -0.0483144781
C   C35       1.0  0.65810  0.07230  0.41270  1.0000 -0.0483144781
C   C36       1.0  0.07230  0.65810  0.08730  1.0000 -0.0483144781
C   C37       1.0  0.29650  0.04210  0.21150  1.0000 0.071814078
C   C38       1.0  0.04210  0.29650  0.28850  1.0000 0.071814078
C   C39       1.0  0.70350  0.95790  0.78850  1.0000 0.071814078
C   C40       1.0  0.95790  0.70350  0.71150  1.0000 0.071814078
C   C41       1.0  0.53440  0.46680  0.51000  1.0000 0.4771099641
C   C42       1.0  0.46680  0.53440  0.99000  1.0000 0.4771099641
C   C43       1.0  0.46560  0.53320  0.49000  1.0000 0.4771099641
C   C44       1.0  0.53320  0.46560  0.01000  1.0000 0.4771099641
C   C45       1.0  0.49290  0.29730  0.23730  1.0000 0.071814078
C   C46       1.0  0.29730  0.49290  0.26270  1.0000 0.071814078
C   C47       1.0  0.50710  0.70270  0.76270  1.0000 0.071814078
C   C48       1.0  0.70270  0.50710  0.73730  1.0000 0.071814078
C   C49       1.0  0.21000  0.02060  0.27090  1.0000 -0.1330504426
C   C50       1.0  0.02060  0.21000  0.22910  1.0000 -0.1330504426
C   C51       1.0  0.79000  0.97940  0.72910  1.0000 -0.1330504426
C   C52       1.0  0.97940  0.79000  0.77090  1.0000 -0.1330504426
C   C53       1.0  0.20580  0.27540  0.74490  1.0000 0.4734429969
C   C54       1.0  0.27540  0.20580  0.75510  1.0000 0.4734429969
C   C55       1.0  0.79420  0.72460  0.25510  1.0000 0.4734429969
C   C56       1.0  0.72460  0.79420  0.24490  1.0000 0.4734429969
N   N1        1.0  0.25700  0.69120  0.50010  1.0000 -0.1807548841
N   N2        1.0  0.69120  0.25700  0.99990  1.0000 -0.1807548841
N   N3        1.0  0.74300  0.30880  0.49990  1.0000 -0.1807548841
N   N4        1.0  0.30880  0.74300  0.00010  1.0000 -0.1807548841
N   N5        1.0  0.43450  0.17990  0.19240  1.0000 -0.1807548841
N   N6        1.0  0.17990  0.43450  0.30760  1.0000 -0.1807548841
N   N7        1.0  0.56550  0.82010  0.80760  1.0000 -0.1807548841
N   N8        1.0  0.82010  0.56550  0.69240  1.0000 -0.1807548841
O   O1        1.0  0.03240  0.99580  0.37600  1.0000 -0.6422983454
O   O2        1.0  0.99580  0.03240  0.12400  1.0000 -0.6422983454
O   O3        1.0  0.96760  0.00420  0.62400  1.0000 -0.6422983454
O   O4        1.0  0.00420  0.96760  0.87600  1.0000 -0.6422983454
O   O5        1.0  0.97500  0.77720  0.49150  1.0000 -0.6759231434
O   O6        1.0  0.77720  0.97500  0.00850  1.0000 -0.6759231434
O   O7        1.0  0.02500  0.22280  0.50850  1.0000 -0.6759231434
O   O8        1.0  0.22280  0.02500  0.99150  1.0000 -0.6759231434
O   O9        1.0  0.17060  0.00900  0.54490  1.0000 -0.6642206059
O   O10       1.0  0.00900  0.17060  0.95510  1.0000 -0.6642206059
O   O11       1.0  0.82940  0.99100  0.45510  1.0000 -0.6642206059
O   O12       1.0  0.99100  0.82940  0.04490  1.0000 -0.6642206059
O   O13       1.0  0.23320  0.22360  0.42750  1.0000 -0.6496134148
O   O14       1.0  0.22360  0.23320  0.07250  1.0000 -0.6496134148
O   O15       1.0  0.76680  0.77640  0.57250  1.0000 -0.6496134148
O   O16       1.0  0.77640  0.76680  0.92750  1.0000 -0.6496134148
O   O17       1.0  0.46180  0.34500  0.55570  1.0000 -0.5996577041
O   O18       1.0  0.34500  0.46180  0.94430  1.0000 -0.5996577041
O   O19       1.0  0.53820  0.65500  0.44430  1.0000 -0.5996577041
O   O20       1.0  0.65500  0.53820  0.05570  1.0000 -0.5996577041
O   O21       1.0  0.66170  0.53550  0.47920  1.0000 -0.5764305637
O   O22       1.0  0.53550  0.66170  0.02080  1.0000 -0.5764305637
O   O23       1.0  0.33830  0.46450  0.52080  1.0000 -0.5764305637
O   O24       1.0  0.46450  0.33830  0.97920  1.0000 -0.5764305637
O   O25       1.0  0.19630  0.31890  0.67420  1.0000 -0.5911529408
O   O26       1.0  0.31890  0.19630  0.82580  1.0000 -0.5911529408
O   O27       1.0  0.80370  0.68110  0.32580  1.0000 -0.5911529408
O   O28       1.0  0.68110  0.80370  0.17420  1.0000 -0.5911529408
O   O29       1.0  0.17340  0.29220  0.80930  1.0000 -0.5911529408
O   O30       1.0  0.29220  0.17340  0.69070  1.0000 -0.5911529408
O   O31       1.0  0.82660  0.70780  0.19070  1.0000 -0.5911529408
O   O32       1.0  0.70780  0.82660  0.30930  1.0000 -0.5911529408
