# DDEC6 charges by PACMAN v1.1 (https://github.com/mtap-research/PACMAN-charge/)
data_2015[Gd][pcu]3[ASR]1
_chemical_formula_sum              "Gd4 H24 C84 N24 O72"
_cell_length_a       13.7498
_cell_length_b       13.7498
_cell_length_c       25.128
_cell_angle_alpha    79.4668
_cell_angle_beta     79.4668
_cell_angle_gamma    67.1848

_symmetry_space_group_name_H-M    "P 1"
_symmetry_Int_Tables_number       1

loop_
  _symmetry_equiv_pos_as_xyz
  'x, y, z'

loop_
  _atom_site_type_symbol
  _atom_site_label
  _atom_site_symmetry_multiplicity
  _atom_site_fract_x
  _atom_site_fract_y
  _atom_site_fract_z
  _atom_site_occupancy
  _atom_site_charge
Gd  Gd1       1.0  0.07945  0.60771  0.99121  1.0000 2.0323938954
Gd  Gd2       1.0  0.92055  0.39229  0.00879  1.0000 2.0323938954
Gd  Gd3       1.0  0.39229  0.92055  0.50879  1.0000 2.0323938954
Gd  Gd4       1.0  0.60771  0.07945  0.49121  1.0000 2.0323938954
H   H1        1.0  0.95528  0.70506  0.10800  1.0000 0.1300501863
H   H2        1.0  0.04472  0.29494  0.89200  1.0000 0.1300501863
H   H3        1.0  0.29494  0.04472  0.39200  1.0000 0.1300501863
H   H4        1.0  0.70506  0.95528  0.60800  1.0000 0.1300501863
H   H5        1.0  0.81777  0.47489  0.19551  1.0000 0.1503571995
H   H6        1.0  0.18223  0.52511  0.80449  1.0000 0.1503571995
H   H7        1.0  0.52511  0.18223  0.30449  1.0000 0.1503571995
H   H8        1.0  0.47489  0.81777  0.69551  1.0000 0.1503571995
H   H9        1.0  0.67990  0.94169  0.35816  1.0000 0.1358097832
H   H10       1.0  0.32010  0.05831  0.64184  1.0000 0.1358097832
H   H11       1.0  0.05831  0.32010  0.14184  1.0000 0.1358097832
H   H12       1.0  0.94169  0.67990  0.85816  1.0000 0.1358097832
H   H13       1.0  0.95959  0.68393  0.41200  1.0000 0.1503571995
H   H14       1.0  0.04041  0.31607  0.58800  1.0000 0.1503571995
H   H15       1.0  0.31607  0.04041  0.08800  1.0000 0.1503571995
H   H16       1.0  0.68393  0.95959  0.91200  1.0000 0.1503571995
H   H17       1.0  0.19394  0.76037  0.10182  1.0000 0.1503571995
H   H18       1.0  0.80606  0.23963  0.89818  1.0000 0.1503571995
H   H19       1.0  0.23963  0.80606  0.39818  1.0000 0.1503571995
H   H20       1.0  0.76037  0.19394  0.60182  1.0000 0.1503571995
H   H21       1.0  0.28049  0.44596  0.19391  1.0000 0.1300501863
H   H22       1.0  0.71951  0.55404  0.80609  1.0000 0.1300501863
H   H23       1.0  0.55404  0.71951  0.30609  1.0000 0.1300501863
H   H24       1.0  0.44596  0.28049  0.69391  1.0000 0.1300501863
C   C1        1.0  0.89808  0.54045  0.09166  1.0000 0.6715940463
C   C2        1.0  0.10192  0.45955  0.90834  1.0000 0.6715940463
C   C3        1.0  0.45955  0.10192  0.40834  1.0000 0.6715940463
C   C4        1.0  0.54045  0.89808  0.59166  1.0000 0.6715940463
C   C5        1.0  0.88649  0.58429  0.14357  1.0000 -0.0117908719
C   C6        1.0  0.11351  0.41571  0.85643  1.0000 -0.0117908719
C   C7        1.0  0.41571  0.11351  0.35643  1.0000 -0.0157303845
C   C8        1.0  0.58429  0.88649  0.64357  1.0000 -0.0117908719
C   C9        1.0  0.91929  0.66868  0.14462  1.0000 -0.0918724441
C   C10       1.0  0.08071  0.33132  0.85538  1.0000 -0.0918724441
C   C11       1.0  0.33132  0.08071  0.35538  1.0000 -0.0918724441
C   C12       1.0  0.66868  0.91929  0.64462  1.0000 -0.0918724441
C   C13       1.0  0.90483  0.71131  0.19308  1.0000 0.0392041593
C   C14       1.0  0.09517  0.28869  0.80692  1.0000 0.0392041593
C   C15       1.0  0.28869  0.09517  0.30692  1.0000 0.0392041593
C   C16       1.0  0.71131  0.90483  0.69308  1.0000 0.0392041593
C   C17       1.0  0.85860  0.67329  0.24378  1.0000 0.0392041593
C   C18       1.0  0.14140  0.32671  0.75622  1.0000 0.0295152246
C   C19       1.0  0.32671  0.14140  0.25622  1.0000 0.0392041593
C   C20       1.0  0.67329  0.85860  0.74378  1.0000 0.0295152246
C   C21       1.0  0.83195  0.58482  0.24112  1.0000 0.0465160179
C   C22       1.0  0.16805  0.41518  0.75888  1.0000 0.0465160179
C   C23       1.0  0.41518  0.16805  0.25888  1.0000 0.0465160179
C   C24       1.0  0.58482  0.83195  0.74112  1.0000 0.0465160179
C   C25       1.0  0.84343  0.54172  0.19303  1.0000 -0.0535344311
C   C26       1.0  0.15657  0.45828  0.80697  1.0000 -0.0535344311
C   C27       1.0  0.45828  0.15657  0.30697  1.0000 -0.0535344311
C   C28       1.0  0.54172  0.84343  0.69303  1.0000 -0.0535344311
C   C29       1.0  0.84224  0.72142  0.29573  1.0000 0.0465160179
C   C30       1.0  0.15776  0.27858  0.70427  1.0000 0.0392041593
C   C31       1.0  0.27858  0.15776  0.20427  1.0000 0.0392041593
C   C32       1.0  0.72142  0.84224  0.79573  1.0000 0.0392041593
C   C33       1.0  0.75740  0.81667  0.30820  1.0000 0.0392041593
C   C34       1.0  0.24260  0.18333  0.69180  1.0000 0.0392041593
C   C35       1.0  0.18333  0.24260  0.19180  1.0000 0.0392041593
C   C36       1.0  0.81667  0.75740  0.80820  1.0000 0.0392041593
C   C37       1.0  0.74691  0.86667  0.35359  1.0000 -0.0730715706
C   C38       1.0  0.25309  0.13333  0.64641  1.0000 -0.0730715706
C   C39       1.0  0.13333  0.25309  0.14641  1.0000 -0.0730715706
C   C40       1.0  0.86667  0.74691  0.85359  1.0000 -0.0730715706
C   C41       1.0  0.82014  0.82092  0.39152  1.0000 -0.0014524668
C   C42       1.0  0.17986  0.17908  0.60848  1.0000 -0.0014524668
C   C43       1.0  0.17908  0.17986  0.10848  1.0000 -0.0014524668
C   C44       1.0  0.82092  0.82014  0.89152  1.0000 -0.0014524668
C   C45       1.0  0.90213  0.72316  0.38270  1.0000 -0.0801478632
C   C46       1.0  0.09787  0.27684  0.61730  1.0000 -0.0801478632
C   C47       1.0  0.27684  0.09787  0.11730  1.0000 -0.0801478632
C   C48       1.0  0.72316  0.90213  0.88270  1.0000 -0.0801478632
C   C49       1.0  0.91304  0.67760  0.33553  1.0000 0.0221334429
C   C50       1.0  0.08696  0.32240  0.66447  1.0000 0.0221334429
C   C51       1.0  0.32240  0.08696  0.16447  1.0000 0.0221334429
C   C52       1.0  0.67760  0.91304  0.83553  1.0000 0.0221334429
C   C53       1.0  0.81534  0.87232  0.44093  1.0000 0.6191443282
C   C54       1.0  0.18466  0.12768  0.55907  1.0000 0.6191443282
C   C55       1.0  0.12768  0.18466  0.05907  1.0000 0.6191443282
C   C56       1.0  0.87232  0.81534  0.94093  1.0000 0.6191443282
C   C57       1.0  0.19362  0.55857  0.09883  1.0000 0.5965236056
C   C58       1.0  0.80638  0.44143  0.90117  1.0000 0.5965236056
C   C59       1.0  0.44143  0.80638  0.40117  1.0000 0.5965236056
C   C60       1.0  0.55857  0.19362  0.59883  1.0000 0.5965236056
C   C61       1.0  0.22325  0.70371  0.13738  1.0000 -0.0730715706
C   C62       1.0  0.77675  0.29629  0.86262  1.0000 -0.0730715706
C   C63       1.0  0.29629  0.77675  0.36262  1.0000 -0.0801478632
C   C64       1.0  0.70371  0.22325  0.63738  1.0000 -0.0730715706
C   C65       1.0  0.23131  0.59791  0.14134  1.0000 -0.0117908719
C   C66       1.0  0.76869  0.40209  0.85866  1.0000 -0.0117908719
C   C67       1.0  0.40209  0.76869  0.35866  1.0000 -0.0117908719
C   C68       1.0  0.59791  0.23131  0.64134  1.0000 -0.0117908719
C   C69       1.0  0.27046  0.53015  0.18805  1.0000 -0.0730715706
C   C70       1.0  0.72954  0.46985  0.81195  1.0000 -0.0801478632
C   C71       1.0  0.46985  0.72954  0.31195  1.0000 -0.0801478632
C   C72       1.0  0.53015  0.27046  0.68805  1.0000 -0.0730715706
C   C73       1.0  0.29624  0.56954  0.22935  1.0000 0.0295152246
C   C74       1.0  0.70376  0.43046  0.77065  1.0000 0.0295152246
C   C75       1.0  0.43046  0.70376  0.27065  1.0000 0.0295152246
C   C76       1.0  0.56954  0.29624  0.72935  1.0000 0.0295152246
C   C77       1.0  0.28696  0.67620  0.22796  1.0000 0.0392041593
C   C78       1.0  0.71304  0.32380  0.77204  1.0000 0.0392041593
C   C79       1.0  0.32380  0.71304  0.27204  1.0000 0.0392041593
C   C80       1.0  0.67620  0.28696  0.72796  1.0000 0.0392041593
C   C81       1.0  0.25025  0.73969  0.17902  1.0000 0.0295152246
C   C82       1.0  0.74975  0.26031  0.82098  1.0000 0.0295152246
C   C83       1.0  0.26031  0.74975  0.32098  1.0000 0.0295152246
C   C84       1.0  0.73969  0.25025  0.67902  1.0000 0.0295152246
N   N1        1.0  0.94130  0.80103  0.18943  1.0000 0.5234071243
N   N2        1.0  0.05870  0.19897  0.81057  1.0000 0.5234071243
N   N3        1.0  0.19897  0.05870  0.31057  1.0000 0.5234071243
N   N4        1.0  0.80103  0.94130  0.68943  1.0000 0.5234071243
N   N5        1.0  0.78583  0.53308  0.29077  1.0000 0.5234071243
N   N6        1.0  0.21417  0.46692  0.70923  1.0000 0.5234071243
N   N7        1.0  0.46692  0.21417  0.20923  1.0000 0.5234071243
N   N8        1.0  0.53308  0.78583  0.79077  1.0000 0.5234071243
N   N9        1.0  0.67857  0.87181  0.26942  1.0000 0.5373020101
N   N10       1.0  0.32143  0.12819  0.73058  1.0000 0.5373020101
N   N11       1.0  0.12819  0.32143  0.23058  1.0000 0.5373020101
N   N12       1.0  0.87181  0.67857  0.76942  1.0000 0.5373020101
N   N13       1.0  0.00917  0.58099  0.32676  1.0000 0.5234071243
N   N14       1.0  0.99083  0.41901  0.67324  1.0000 0.5234071243
N   N15       1.0  0.41901  0.99083  0.17324  1.0000 0.5234071243
N   N16       1.0  0.58099  0.00917  0.82676  1.0000 0.5234071243
N   N17       1.0  0.33236  0.49115  0.27740  1.0000 0.5296104777
N   N18       1.0  0.66764  0.50885  0.72260  1.0000 0.5296104777
N   N19       1.0  0.50885  0.66764  0.22260  1.0000 0.5296104777
N   N20       1.0  0.49115  0.33236  0.77740  1.0000 0.5296104777
N   N21       1.0  0.23656  0.85272  0.17105  1.0000 0.5296104777
N   N22       1.0  0.76344  0.14728  0.82895  1.0000 0.5296104777
N   N23       1.0  0.14728  0.76344  0.32895  1.0000 0.5296104777
N   N24       1.0  0.85272  0.23656  0.67105  1.0000 0.5296104777
O   O1        1.0  0.95872  0.56534  0.04910  1.0000 -0.7976326716
O   O2        1.0  0.04128  0.43466  0.95090  1.0000 -0.7976326716
O   O3        1.0  0.43466  0.04128  0.45090  1.0000 -0.7976326716
O   O4        1.0  0.56534  0.95872  0.54910  1.0000 -0.7976326716
O   O5        1.0  0.85126  0.47857  0.08764  1.0000 -0.6443049383
O   O6        1.0  0.14874  0.52143  0.91236  1.0000 -0.6443049383
O   O7        1.0  0.52143  0.14874  0.41236  1.0000 -0.6443049383
O   O8        1.0  0.47857  0.85126  0.58764  1.0000 -0.6443049383
O   O9        1.0  0.79300  0.44019  0.28986  1.0000 -0.2991611923
O   O10       1.0  0.20700  0.55981  0.71014  1.0000 -0.2991611923
O   O11       1.0  0.55981  0.20700  0.21014  1.0000 -0.2991611923
O   O12       1.0  0.44019  0.79300  0.78986  1.0000 -0.2991611923
O   O13       1.0  0.74217  0.58650  0.32998  1.0000 -0.3273847175
O   O14       1.0  0.25783  0.41350  0.67002  1.0000 -0.3273847175
O   O15       1.0  0.41350  0.25783  0.17002  1.0000 -0.3273847175
O   O16       1.0  0.58650  0.74217  0.82998  1.0000 -0.3273847175
O   O17       1.0  0.99600  0.81974  0.14606  1.0000 -0.3065137339
O   O18       1.0  0.00400  0.18026  0.85394  1.0000 -0.2991611923
O   O19       1.0  0.18026  0.00400  0.35394  1.0000 -0.2991611923
O   O20       1.0  0.81974  0.99600  0.64606  1.0000 -0.3065137339
O   O21       1.0  0.91592  0.85292  0.22894  1.0000 -0.3209857059
O   O22       1.0  0.08408  0.14708  0.77106  1.0000 -0.3209857059
O   O23       1.0  0.14708  0.08408  0.27106  1.0000 -0.3209857059
O   O24       1.0  0.85292  0.91592  0.72894  1.0000 -0.3209857059
O   O25       1.0  0.04818  0.52483  0.36812  1.0000 -0.2991611923
O   O26       1.0  0.95182  0.47517  0.63188  1.0000 -0.2991611923
O   O27       1.0  0.47517  0.95182  0.13188  1.0000 -0.2991611923
O   O28       1.0  0.52483  0.04818  0.86812  1.0000 -0.2935626206
O   O29       1.0  0.04570  0.56446  0.27835  1.0000 -0.3525313323
O   O30       1.0  0.95430  0.43554  0.72165  1.0000 -0.3525313323
O   O31       1.0  0.43554  0.95430  0.22165  1.0000 -0.3525313323
O   O32       1.0  0.56446  0.04570  0.77835  1.0000 -0.3525313323
O   O33       1.0  0.67432  0.82064  0.23398  1.0000 -0.3273847175
O   O34       1.0  0.32568  0.17936  0.76602  1.0000 -0.3209857059
O   O35       1.0  0.17936  0.32568  0.26602  1.0000 -0.3209857059
O   O36       1.0  0.82064  0.67432  0.73398  1.0000 -0.3209857059
O   O37       1.0  0.62154  0.96680  0.27384  1.0000 -0.2991611923
O   O38       1.0  0.37846  0.03320  0.72616  1.0000 -0.2991611923
O   O39       1.0  0.03320  0.37846  0.22616  1.0000 -0.2991611923
O   O40       1.0  0.96680  0.62154  0.77384  1.0000 -0.2991611923
O   O41       1.0  0.73350  0.96572  0.44679  1.0000 -0.7689756227
O   O42       1.0  0.26650  0.03428  0.55321  1.0000 -0.7689756227
O   O43       1.0  0.03428  0.26650  0.05321  1.0000 -0.7689756227
O   O44       1.0  0.96572  0.73350  0.94679  1.0000 -0.7689756227
O   O45       1.0  0.88158  0.83020  0.47297  1.0000 -0.4689490345
O   O46       1.0  0.11842  0.16980  0.52703  1.0000 -0.4689490345
O   O47       1.0  0.16980  0.11842  0.02703  1.0000 -0.4689490345
O   O48       1.0  0.83020  0.88158  0.97297  1.0000 -0.4689490345
O   O49       1.0  0.16760  0.62535  0.05324  1.0000 -0.7624262196
O   O50       1.0  0.83240  0.37465  0.94676  1.0000 -0.7624262196
O   O51       1.0  0.37465  0.83240  0.44676  1.0000 -0.7624262196
O   O52       1.0  0.62535  0.16760  0.55324  1.0000 -0.7624262196
O   O53       1.0  0.18510  0.47011  0.10758  1.0000 -0.5238083076
O   O54       1.0  0.81490  0.52989  0.89242  1.0000 -0.5238083076
O   O55       1.0  0.52989  0.81490  0.39242  1.0000 -0.5238083076
O   O56       1.0  0.47011  0.18510  0.60758  1.0000 -0.5238083076
O   O57       1.0  0.20805  0.90729  0.12715  1.0000 -0.2991611923
O   O58       1.0  0.79195  0.09271  0.87285  1.0000 -0.2935626206
O   O59       1.0  0.09271  0.79195  0.37285  1.0000 -0.2935626206
O   O60       1.0  0.90729  0.20805  0.62715  1.0000 -0.2935626206
O   O61       1.0  0.25491  0.88754  0.20962  1.0000 -0.3525313323
O   O62       1.0  0.74509  0.11246  0.79038  1.0000 -0.3525313323
O   O63       1.0  0.11246  0.74509  0.29038  1.0000 -0.3525313323
O   O64       1.0  0.88754  0.25491  0.70962  1.0000 -0.3525313323
O   O65       1.0  0.31601  0.52410  0.32264  1.0000 -0.3209857059
O   O66       1.0  0.68399  0.47590  0.67736  1.0000 -0.3209857059
O   O67       1.0  0.47590  0.68399  0.17736  1.0000 -0.3209857059
O   O68       1.0  0.52410  0.31601  0.82264  1.0000 -0.3209857059
O   O69       1.0  0.37638  0.39585  0.26951  1.0000 -0.3209857059
O   O70       1.0  0.62362  0.60415  0.73049  1.0000 -0.3209857059
O   O71       1.0  0.60415  0.62362  0.23049  1.0000 -0.3209857059
O   O72       1.0  0.39585  0.37638  0.76951  1.0000 -0.3209857059
