# DDEC6 charges by PACMAN v1.1 (https://github.com/mtap-research/PACMAN-charge/)
data_2015[Cd][dia]3[ASR]1
_chemical_formula_sum              "Cd6 P4 H44 C28 N4 O20"
_cell_length_a       12.5502
_cell_length_b       12.5502
_cell_length_c       9.8101
_cell_angle_alpha    78.2807
_cell_angle_beta     101.719
_cell_angle_gamma    127.316

_symmetry_space_group_name_H-M    "P 1"
_symmetry_Int_Tables_number       1

loop_
  _symmetry_equiv_pos_as_xyz
  'x, y, z'

loop_
  _atom_site_type_symbol
  _atom_site_label
  _atom_site_symmetry_multiplicity
  _atom_site_fract_x
  _atom_site_fract_y
  _atom_site_fract_z
  _atom_site_occupancy
  _atom_site_charge
Cd  Cd1       1.0  0.52194  0.30622  0.92833  1.0000 0.9963303295
Cd  Cd2       1.0  0.30622  0.52194  0.57167  1.0000 0.9963303295
Cd  Cd3       1.0  0.47806  0.69378  0.07167  1.0000 0.9963303295
Cd  Cd4       1.0  0.69378  0.47806  0.42833  1.0000 0.9963303295
Cd  Cd5       1.0  0.61999  0.61999  0.75000  1.0000 1.1261179534
Cd  Cd6       1.0  0.38001  0.38001  0.25000  1.0000 1.1261179534
P   P1        1.0  0.41257  0.32103  0.59343  1.0000 1.2875169901
P   P2        1.0  0.32103  0.41257  0.90657  1.0000 1.2875169901
P   P3        1.0  0.58743  0.67897  0.40657  1.0000 1.2875169901
P   P4        1.0  0.67897  0.58743  0.09343  1.0000 1.2875169901
H   H1        1.0  0.23960  0.13240  0.71300  1.0000 0.1578391729
H   H2        1.0  0.13240  0.23960  0.78700  1.0000 0.1578391729
H   H3        1.0  0.76040  0.86760  0.28700  1.0000 0.1578391729
H   H4        1.0  0.86760  0.76040  0.21300  1.0000 0.1578391729
H   H5        1.0  0.27770  0.08790  0.60650  1.0000 0.1481018005
H   H6        1.0  0.08790  0.27770  0.89350  1.0000 0.1481018005
H   H7        1.0  0.72230  0.91210  0.39350  1.0000 0.1481018005
H   H8        1.0  0.91210  0.72230  0.10650  1.0000 0.1481018005
H   H9        1.0  0.54160  0.18560  0.67870  1.0000 0.1108686161
H   H10       1.0  0.18560  0.54160  0.82130  1.0000 0.1108686161
H   H11       1.0  0.45840  0.81440  0.32130  1.0000 0.1108686161
H   H12       1.0  0.81440  0.45840  0.17870  1.0000 0.1108686161
H   H13       1.0  0.54440  0.10160  0.81720  1.0000 0.1039704395
H   H14       1.0  0.10160  0.54440  0.68280  1.0000 0.1039704395
H   H15       1.0  0.45560  0.89840  0.18280  1.0000 0.1039704395
H   H16       1.0  0.89840  0.45560  0.31720  1.0000 0.1039704395
H   H17       1.0  0.37290  0.99370  0.57300  1.0000 0.1108686161
H   H18       1.0  0.99370  0.37290  0.92700  1.0000 0.1108686161
H   H19       1.0  0.62710  0.00630  0.42700  1.0000 0.1108686161
H   H20       1.0  0.00630  0.62710  0.07300  1.0000 0.1108686161
H   H21       1.0  0.48800  0.97920  0.63670  1.0000 0.1186933828
H   H22       1.0  0.97920  0.48800  0.86330  1.0000 0.1186933828
H   H23       1.0  0.51200  0.02080  0.36330  1.0000 0.1186933828
H   H24       1.0  0.02080  0.51200  0.13670  1.0000 0.1186933828
H   H25       1.0  0.26900  0.78300  0.68230  1.0000 0.1108686161
H   H26       1.0  0.78300  0.26900  0.81770  1.0000 0.1108686161
H   H27       1.0  0.73100  0.21700  0.31770  1.0000 0.1108686161
H   H28       1.0  0.21700  0.73100  0.18230  1.0000 0.1108686161
H   H29       1.0  0.16420  0.86900  0.71970  1.0000 0.1108686161
H   H30       1.0  0.86900  0.16420  0.78030  1.0000 0.1108686161
H   H31       1.0  0.83580  0.13100  0.28030  1.0000 0.1108686161
H   H32       1.0  0.13100  0.83580  0.21970  1.0000 0.1108686161
H   H33       1.0  0.16600  0.78440  0.85880  1.0000 0.1186933828
H   H34       1.0  0.78440  0.16600  0.64120  1.0000 0.1186933828
H   H35       1.0  0.83400  0.21560  0.14120  1.0000 0.1186933828
H   H36       1.0  0.21560  0.83400  0.35880  1.0000 0.1186933828
H   H37       1.0  0.34780  0.97760  0.95790  1.0000 0.1108686161
H   H38       1.0  0.97760  0.34780  0.54210  1.0000 0.1108686161
H   H39       1.0  0.65220  0.02240  0.04210  1.0000 0.1108686161
H   H40       1.0  0.02240  0.65220  0.45790  1.0000 0.1108686161
H   H41       1.0  0.23250  0.99350  0.90590  1.0000 0.1108686161
H   H42       1.0  0.99350  0.23250  0.59410  1.0000 0.1108686161
H   H43       1.0  0.76750  0.00650  0.09410  1.0000 0.1108686161
H   H44       1.0  0.00650  0.76750  0.40590  1.0000 0.1108686161
C   C1        1.0  0.31402  0.14830  0.67663  1.0000 -0.4259906101
C   C2        1.0  0.14830  0.31402  0.82337  1.0000 -0.4259906101
C   C3        1.0  0.68598  0.85170  0.32337  1.0000 -0.4259906101
C   C4        1.0  0.85170  0.68598  0.17663  1.0000 -0.4259906101
C   C5        1.0  0.48633  0.10541  0.73901  1.0000 -0.1104364681
C   C6        1.0  0.10541  0.48633  0.76099  1.0000 -0.1104364681
C   C7        1.0  0.51367  0.89459  0.26099  1.0000 -0.1104364681
C   C8        1.0  0.89459  0.51367  0.23901  1.0000 -0.1104364681
C   C9        1.0  0.41979  0.98357  0.65922  1.0000 -0.2085205416
C   C10       1.0  0.98357  0.41979  0.84078  1.0000 -0.2085205416
C   C11       1.0  0.58021  0.01643  0.34078  1.0000 -0.2085205416
C   C12       1.0  0.01643  0.58021  0.15922  1.0000 -0.2085205416
C   C13       1.0  0.32043  0.85231  0.74467  1.0000 -0.1031240678
C   C14       1.0  0.85231  0.32043  0.75533  1.0000 -0.1031240678
C   C15       1.0  0.67957  0.14769  0.25533  1.0000 -0.1031240678
C   C16       1.0  0.14769  0.67957  0.24467  1.0000 -0.1031240678
C   C17       1.0  0.22159  0.86347  0.79750  1.0000 -0.2085205416
C   C18       1.0  0.86347  0.22159  0.70250  1.0000 -0.2085205416
C   C19       1.0  0.77841  0.13653  0.20250  1.0000 -0.2085205416
C   C20       1.0  0.13653  0.77841  0.29750  1.0000 -0.2085205416
C   C21       1.0  0.29697  0.98793  0.87577  1.0000 -0.1031240678
C   C22       1.0  0.98793  0.29697  0.62423  1.0000 -0.1031240678
C   C23       1.0  0.70303  0.01207  0.12423  1.0000 -0.1031240678
C   C24       1.0  0.01207  0.70303  0.37577  1.0000 -0.1031240678
C   C25       1.0  0.38988  0.80816  0.86467  1.0000 0.5375229803
C   C26       1.0  0.80816  0.38988  0.63533  1.0000 0.5375229803
C   C27       1.0  0.61012  0.19184  0.13533  1.0000 0.5375229803
C   C28       1.0  0.19184  0.61012  0.36467  1.0000 0.5375229803
N   N1        1.0  0.38981  0.11569  0.79154  1.0000 -0.0898422661
N   N2        1.0  0.11569  0.38981  0.70846  1.0000 -0.0898422661
N   N3        1.0  0.61019  0.88431  0.20846  1.0000 -0.0898422661
N   N4        1.0  0.88431  0.61019  0.29154  1.0000 -0.0898422661
O   O1        1.0  0.52684  0.40656  0.70250  1.0000 -0.7893541283
O   O2        1.0  0.40656  0.52684  0.79750  1.0000 -0.7954104456
O   O3        1.0  0.47316  0.59344  0.29750  1.0000 -0.7893541283
O   O4        1.0  0.59344  0.47316  0.20250  1.0000 -0.7893541283
O   O5        1.0  0.46880  0.32780  0.46480  1.0000 -0.7746571215
O   O6        1.0  0.32780  0.46880  0.03520  1.0000 -0.7754806193
O   O7        1.0  0.53120  0.67220  0.53520  1.0000 -0.7754806193
O   O8        1.0  0.67220  0.53120  0.96480  1.0000 -0.7754806193
O   O9        1.0  0.31017  0.35163  0.54970  1.0000 -0.7893541283
O   O10       1.0  0.35163  0.31017  0.95030  1.0000 -0.7893541283
O   O11       1.0  0.68983  0.64837  0.45030  1.0000 -0.7893541283
O   O12       1.0  0.64837  0.68983  0.04970  1.0000 -0.7893541283
O   O13       1.0  0.32994  0.74106  0.97160  1.0000 -0.5516195657
O   O14       1.0  0.74106  0.32994  0.52840  1.0000 -0.5516195657
O   O15       1.0  0.67006  0.25894  0.02840  1.0000 -0.5516195657
O   O16       1.0  0.25894  0.67006  0.47160  1.0000 -0.5516195657
O   O17       1.0  0.50081  0.83479  0.85130  1.0000 -0.5402639421
O   O18       1.0  0.83479  0.50081  0.64870  1.0000 -0.5402639421
O   O19       1.0  0.49919  0.16521  0.14870  1.0000 -0.5402639421
O   O20       1.0  0.16521  0.49919  0.35130  1.0000 -0.5402639421
