# DDEC6 charges by PACMAN v1.1 (https://github.com/mtap-research/PACMAN-charge/)
data_2015[Cu][rtl]3[ASR]4
_chemical_formula_sum              "Cu4 H32 C56 N8 O20"
_cell_length_a       13.882
_cell_length_b       13.365
_cell_length_c       14.209
_cell_angle_alpha    90
_cell_angle_beta     112.046
_cell_angle_gamma    90

_symmetry_space_group_name_H-M    "P 1"
_symmetry_Int_Tables_number       1

loop_
  _symmetry_equiv_pos_as_xyz
  'x, y, z'

loop_
  _atom_site_type_symbol
  _atom_site_label
  _atom_site_symmetry_multiplicity
  _atom_site_fract_x
  _atom_site_fract_y
  _atom_site_fract_z
  _atom_site_occupancy
  _atom_site_charge
Cu  Cu1       1.0  0.40033  0.55314  0.94897  1.0000 0.8223454881
Cu  Cu2       1.0  0.59967  0.05314  0.55103  1.0000 0.8223454881
Cu  Cu3       1.0  0.59967  0.44686  0.05103  1.0000 0.8223454881
Cu  Cu4       1.0  0.40033  0.94686  0.44897  1.0000 0.8223454881
H   H1        1.0  0.72200  0.25830  0.08760  1.0000 0.1240812245
H   H2        1.0  0.89520  0.20640  0.15390  1.0000 0.1315779503
H   H3        1.0  0.98660  0.49270  0.21530  1.0000 0.1315779503
H   H4        1.0  0.81410  0.54200  0.15940  1.0000 0.1315779503
H   H5        1.0  0.25660  0.43970  0.13580  1.0000 0.1315779503
H   H6        1.0  0.51830  0.29000  0.29080  1.0000 0.1315779503
H   H7        1.0  0.25960  0.23850  0.34760  1.0000 0.1315779503
H   H8        1.0  0.11750  0.42910  0.19930  1.0000 0.2731644887
H   H9        1.0  0.27800  0.75830  0.41240  1.0000 0.1240812245
H   H10       1.0  0.10480  0.70640  0.34610  1.0000 0.1315779503
H   H11       1.0  0.01340  0.99270  0.28470  1.0000 0.1315779503
H   H12       1.0  0.18590  0.04200  0.34060  1.0000 0.1315779503
H   H13       1.0  0.74340  0.93970  0.36420  1.0000 0.1315779503
H   H14       1.0  0.48170  0.79000  0.20920  1.0000 0.1315779503
H   H15       1.0  0.74040  0.73850  0.15240  1.0000 0.1315779503
H   H16       1.0  0.88250  0.92910  0.30070  1.0000 0.2731644887
H   H17       1.0  0.27800  0.74170  0.91240  1.0000 0.1240812245
H   H18       1.0  0.10480  0.79360  0.84610  1.0000 0.1315779503
H   H19       1.0  0.01340  0.50730  0.78470  1.0000 0.1315779503
H   H20       1.0  0.18590  0.45800  0.84060  1.0000 0.1315779503
H   H21       1.0  0.74340  0.56030  0.86420  1.0000 0.1315779503
H   H22       1.0  0.48170  0.71000  0.70920  1.0000 0.1315779503
H   H23       1.0  0.74040  0.76150  0.65240  1.0000 0.1315779503
H   H24       1.0  0.88250  0.57090  0.80070  1.0000 0.2731644887
H   H25       1.0  0.72200  0.24170  0.58760  1.0000 0.1240812245
H   H26       1.0  0.89520  0.29360  0.65390  1.0000 0.1315779503
H   H27       1.0  0.98660  0.00730  0.71530  1.0000 0.1315779503
H   H28       1.0  0.81410  0.95800  0.65940  1.0000 0.1315779503
H   H29       1.0  0.25660  0.06030  0.63580  1.0000 0.1315779503
H   H30       1.0  0.51830  0.21000  0.79080  1.0000 0.1315779503
H   H31       1.0  0.25960  0.26150  0.84760  1.0000 0.1315779503
H   H32       1.0  0.11750  0.07090  0.69930  1.0000 0.2731644887
C   C1        1.0  0.77510  0.30470  0.11520  1.0000 0.0764938969
C   C2        1.0  0.87860  0.27390  0.15320  1.0000 -0.1416404729
C   C3        1.0  0.95530  0.34400  0.18940  1.0000 0.0109640954
C   C4        1.0  0.93340  0.44580  0.19140  1.0000 -0.1844901812
C   C5        1.0  0.83050  0.47480  0.15690  1.0000 0.1019575524
C   C6        1.0  0.06560  0.30470  0.22540  1.0000 0.4529241401
C   C7        1.0  0.24180  0.34450  0.23830  1.0000 0.2256430912
C   C8        1.0  0.29250  0.39330  0.18530  1.0000 -0.2090680149
C   C9        1.0  0.39590  0.37480  0.20450  1.0000 0.0109640954
C   C10       1.0  0.44870  0.30310  0.27780  1.0000 -0.121691018
C   C11       1.0  0.39960  0.25190  0.33080  1.0000 0.0016906219
C   C12       1.0  0.29390  0.27210  0.31200  1.0000 -0.1905942141
C   C13       1.0  0.44380  0.42370  0.13730  1.0000 0.5723018376
C   C14       1.0  0.44810  0.16700  0.40210  1.0000 0.5723018376
C   C15       1.0  0.22490  0.80470  0.38480  1.0000 0.0764938969
C   C16       1.0  0.12140  0.77390  0.34680  1.0000 -0.1416404729
C   C17       1.0  0.04470  0.84400  0.31060  1.0000 0.0109640954
C   C18       1.0  0.06660  0.94580  0.30860  1.0000 -0.1905942141
C   C19       1.0  0.16950  0.97480  0.34310  1.0000 0.1019575524
C   C20       1.0  0.93440  0.80470  0.27460  1.0000 0.4529241401
C   C21       1.0  0.75820  0.84450  0.26170  1.0000 0.2247338075
C   C22       1.0  0.70750  0.89330  0.31470  1.0000 -0.2090680149
C   C23       1.0  0.60410  0.87480  0.29550  1.0000 0.0109640954
C   C24       1.0  0.55130  0.80310  0.22220  1.0000 -0.121691018
C   C25       1.0  0.60040  0.75190  0.16920  1.0000 0.0016906219
C   C26       1.0  0.70610  0.77210  0.18800  1.0000 -0.1905942141
C   C27       1.0  0.55620  0.92370  0.36270  1.0000 0.5723018376
C   C28       1.0  0.55190  0.66700  0.09790  1.0000 0.5753338862
C   C29       1.0  0.22490  0.69530  0.88480  1.0000 0.0764938969
C   C30       1.0  0.12140  0.72610  0.84680  1.0000 -0.1416404729
C   C31       1.0  0.04470  0.65600  0.81060  1.0000 0.0109640954
C   C32       1.0  0.06660  0.55420  0.80860  1.0000 -0.1905942141
C   C33       1.0  0.16950  0.52520  0.84310  1.0000 0.1019575524
C   C34       1.0  0.93440  0.69530  0.77460  1.0000 0.4529241401
C   C35       1.0  0.75820  0.65550  0.76170  1.0000 0.2256430912
C   C36       1.0  0.70750  0.60670  0.81470  1.0000 -0.2090680149
C   C37       1.0  0.60410  0.62520  0.79550  1.0000 0.0109640954
C   C38       1.0  0.55130  0.69690  0.72220  1.0000 -0.121691018
C   C39       1.0  0.60040  0.74810  0.66920  1.0000 0.0016906219
C   C40       1.0  0.70610  0.72790  0.68800  1.0000 -0.1905942141
C   C41       1.0  0.55620  0.57630  0.86270  1.0000 0.5723018376
C   C42       1.0  0.55190  0.83300  0.59790  1.0000 0.5723018376
C   C43       1.0  0.77510  0.19530  0.61520  1.0000 0.0764938969
C   C44       1.0  0.87860  0.22610  0.65320  1.0000 -0.1416404729
C   C45       1.0  0.95530  0.15600  0.68940  1.0000 0.0109640954
C   C46       1.0  0.93340  0.05420  0.69140  1.0000 -0.1905942141
C   C47       1.0  0.83050  0.02520  0.65690  1.0000 0.1019575524
C   C48       1.0  0.06560  0.19530  0.72540  1.0000 0.4529241401
C   C49       1.0  0.24180  0.15550  0.73830  1.0000 0.2256430912
C   C50       1.0  0.29250  0.10670  0.68530  1.0000 -0.2090680149
C   C51       1.0  0.39590  0.12520  0.70450  1.0000 0.0109640954
C   C52       1.0  0.44870  0.19690  0.77780  1.0000 -0.121691018
C   C53       1.0  0.39960  0.24810  0.83080  1.0000 0.0016906219
C   C54       1.0  0.29390  0.22790  0.81200  1.0000 -0.1905942141
C   C55       1.0  0.44380  0.07630  0.63730  1.0000 0.5723018376
C   C56       1.0  0.44810  0.33300  0.90210  1.0000 0.5753338862
N   N1        1.0  0.75190  0.40590  0.11880  1.0000 -0.2391415161
N   N2        1.0  0.13710  0.36880  0.21790  1.0000 -0.3484042358
N   N3        1.0  0.24810  0.90590  0.38120  1.0000 -0.2391415161
N   N4        1.0  0.86290  0.86880  0.28210  1.0000 -0.3484042358
N   N5        1.0  0.24810  0.59410  0.88120  1.0000 -0.2391415161
N   N6        1.0  0.86290  0.63120  0.78210  1.0000 -0.3484042358
N   N7        1.0  0.75190  0.09410  0.61880  1.0000 -0.2391415161
N   N8        1.0  0.13710  0.13120  0.71790  1.0000 -0.3484042358
O   O1        1.0  0.08200  0.21670  0.25250  1.0000 -0.4638195706
O   O2        1.0  0.39070  0.48670  0.07610  1.0000 -0.5363940072
O   O3        1.0  0.53440  0.39720  0.14920  1.0000 -0.5197529194
O   O4        1.0  0.54070  0.17650  0.46150  1.0000 -0.5197529194
O   O5        1.0  0.39410  0.09170  0.39770  1.0000 -0.5554530096
O   O6        1.0  0.91800  0.71670  0.24750  1.0000 -0.4638195706
O   O7        1.0  0.60930  0.98670  0.42390  1.0000 -0.5363940072
O   O8        1.0  0.46560  0.89720  0.35080  1.0000 -0.5197529194
O   O9        1.0  0.45930  0.67650  0.03850  1.0000 -0.5197529194
O   O10       1.0  0.60590  0.59170  0.10230  1.0000 -0.5547642779
O   O11       1.0  0.91800  0.78330  0.74750  1.0000 -0.4657812786
O   O12       1.0  0.60930  0.51330  0.92390  1.0000 -0.5363940072
O   O13       1.0  0.46560  0.60280  0.85080  1.0000 -0.5197529194
O   O14       1.0  0.45930  0.82350  0.53850  1.0000 -0.5197529194
O   O15       1.0  0.60590  0.90830  0.60230  1.0000 -0.5554530096
O   O16       1.0  0.08200  0.28330  0.75250  1.0000 -0.4657812786
O   O17       1.0  0.39070  0.01330  0.57610  1.0000 -0.5363940072
O   O18       1.0  0.53440  0.10280  0.64920  1.0000 -0.5197529194
O   O19       1.0  0.54070  0.32350  0.96150  1.0000 -0.5197529194
O   O20       1.0  0.39410  0.40830  0.89770  1.0000 -0.5554530096
