# DDEC6 charges by PACMAN v1.1 (https://github.com/mtap-research/PACMAN-charge/)
data_2015[Tb][nan]3[ASR]1
_chemical_formula_sum              "Tb12 H48 C128 N4 O76"
_cell_length_a       11.8928
_cell_length_b       19.1365
_cell_length_c       23.2598
_cell_angle_alpha    90
_cell_angle_beta     90
_cell_angle_gamma    90

_symmetry_space_group_name_H-M    "P 1"
_symmetry_Int_Tables_number       1

loop_
  _symmetry_equiv_pos_as_xyz
  'x, y, z'

loop_
  _atom_site_type_symbol
  _atom_site_label
  _atom_site_symmetry_multiplicity
  _atom_site_fract_x
  _atom_site_fract_y
  _atom_site_fract_z
  _atom_site_occupancy
  _atom_site_charge
Tb  Tb1       1.0  0.41600  0.75000  0.43956  1.0000 2.0303794011
Tb  Tb2       1.0  0.41600  0.25000  0.06044  1.0000 2.0303794011
Tb  Tb3       1.0  0.58400  0.75000  0.93956  1.0000 2.0303794011
Tb  Tb4       1.0  0.58400  0.25000  0.56044  1.0000 2.0303794011
Tb  Tb5       1.0  0.92774  0.75000  0.56628  1.0000 2.0303794011
Tb  Tb6       1.0  0.92774  0.25000  0.93372  1.0000 2.0303794011
Tb  Tb7       1.0  0.07226  0.75000  0.06628  1.0000 2.0303794011
Tb  Tb8       1.0  0.07226  0.25000  0.43372  1.0000 2.0303794011
Tb  Tb9       1.0  0.26610  0.00000  0.25000  1.0000 2.0485716327
Tb  Tb10      1.0  0.73390  0.50000  0.75000  1.0000 2.0485716327
Tb  Tb11      1.0  0.73390  0.00000  0.75000  1.0000 2.0485716327
Tb  Tb12      1.0  0.26610  0.50000  0.25000  1.0000 2.0485716327
H   H1        1.0  0.20100  0.90590  0.47390  1.0000 0.1301615401
H   H2        1.0  0.20100  0.09410  0.02610  1.0000 0.1301615401
H   H3        1.0  0.79900  0.59410  0.97390  1.0000 0.1301615401
H   H4        1.0  0.79900  0.40590  0.52610  1.0000 0.1301615401
H   H5        1.0  0.79900  0.09410  0.52610  1.0000 0.1301615401
H   H6        1.0  0.79900  0.90590  0.97390  1.0000 0.1301615401
H   H7        1.0  0.20100  0.40590  0.02610  1.0000 0.1301615401
H   H8        1.0  0.20100  0.59410  0.47390  1.0000 0.1301615401
H   H9        1.0  0.30360  0.09760  0.46950  1.0000 0.1353420666
H   H10       1.0  0.30360  0.90240  0.03050  1.0000 0.1353420666
H   H11       1.0  0.69640  0.40240  0.96950  1.0000 0.1353420666
H   H12       1.0  0.69640  0.59760  0.53050  1.0000 0.1353420666
H   H13       1.0  0.69640  0.90240  0.53050  1.0000 0.1353420666
H   H14       1.0  0.69640  0.09760  0.96950  1.0000 0.1353420666
H   H15       1.0  0.30360  0.59760  0.03050  1.0000 0.1353420666
H   H16       1.0  0.30360  0.40240  0.46950  1.0000 0.1353420666
H   H17       1.0  0.94410  0.05310  0.38620  1.0000 0.1210671072
H   H18       1.0  0.94410  0.94690  0.11380  1.0000 0.1210671072
H   H19       1.0  0.05590  0.44690  0.88620  1.0000 0.1210671072
H   H20       1.0  0.05590  0.55310  0.61380  1.0000 0.1210671072
H   H21       1.0  0.05590  0.94690  0.61380  1.0000 0.1210671072
H   H22       1.0  0.05590  0.05310  0.88620  1.0000 0.1210671072
H   H23       1.0  0.94410  0.55310  0.11380  1.0000 0.1210671072
H   H24       1.0  0.94410  0.44690  0.38620  1.0000 0.1210671072
H   H25       1.0  0.88190  0.95500  0.43380  1.0000 0.1210671072
H   H26       1.0  0.88190  0.04500  0.06620  1.0000 0.1210671072
H   H27       1.0  0.11810  0.54500  0.93380  1.0000 0.1210671072
H   H28       1.0  0.11810  0.45500  0.56620  1.0000 0.1210671072
H   H29       1.0  0.11810  0.04500  0.56620  1.0000 0.1210671072
H   H30       1.0  0.11810  0.95500  0.93380  1.0000 0.1210671072
H   H31       1.0  0.88190  0.45500  0.06620  1.0000 0.1210671072
H   H32       1.0  0.88190  0.54500  0.43380  1.0000 0.1210671072
H   H33       1.0  0.55400  0.94210  0.38700  1.0000 0.1210671072
H   H34       1.0  0.55400  0.05790  0.11300  1.0000 0.1210671072
H   H35       1.0  0.44600  0.55790  0.88700  1.0000 0.1210671072
H   H36       1.0  0.44600  0.44210  0.61300  1.0000 0.1210671072
H   H37       1.0  0.44600  0.05790  0.61300  1.0000 0.1210671072
H   H38       1.0  0.44600  0.94210  0.88700  1.0000 0.1210671072
H   H39       1.0  0.55400  0.44210  0.11300  1.0000 0.1210671072
H   H40       1.0  0.55400  0.55790  0.38700  1.0000 0.1210671072
H   H41       1.0  0.62050  0.04250  0.43220  1.0000 0.1210671072
H   H42       1.0  0.62050  0.95750  0.06780  1.0000 0.1210671072
H   H43       1.0  0.37950  0.45750  0.93220  1.0000 0.1210671072
H   H44       1.0  0.37950  0.54250  0.56780  1.0000 0.1210671072
H   H45       1.0  0.37950  0.95750  0.56780  1.0000 0.1210671072
H   H46       1.0  0.37950  0.04250  0.93220  1.0000 0.1210671072
H   H47       1.0  0.62050  0.54250  0.06780  1.0000 0.1210671072
H   H48       1.0  0.62050  0.45750  0.43220  1.0000 0.1210671072
C   C1        1.0  0.34720  0.90070  0.36390  1.0000 0.676243709
C   C2        1.0  0.34720  0.09930  0.13610  1.0000 0.676243709
C   C3        1.0  0.65280  0.59930  0.86390  1.0000 0.676243709
C   C4        1.0  0.65280  0.40070  0.63610  1.0000 0.676243709
C   C5        1.0  0.65280  0.09930  0.63610  1.0000 0.676243709
C   C6        1.0  0.65280  0.90070  0.86390  1.0000 0.676243709
C   C7        1.0  0.34720  0.40070  0.13610  1.0000 0.676243709
C   C8        1.0  0.34720  0.59930  0.36390  1.0000 0.676243709
C   C9        1.0  0.50930  0.14250  0.48740  1.0000 0.5703746392
C   C10       1.0  0.50930  0.85750  0.01260  1.0000 0.5703746392
C   C11       1.0  0.49070  0.35750  0.98740  1.0000 0.5703746392
C   C12       1.0  0.49070  0.64250  0.51260  1.0000 0.5703746392
C   C13       1.0  0.49070  0.85750  0.51260  1.0000 0.5703746392
C   C14       1.0  0.49070  0.14250  0.98740  1.0000 0.5703746392
C   C15       1.0  0.50930  0.64250  0.01260  1.0000 0.5703746392
C   C16       1.0  0.50930  0.35750  0.48740  1.0000 0.5703746392
C   C17       1.0  0.46900  0.08010  0.45540  1.0000 -0.0125242048
C   C18       1.0  0.46900  0.91990  0.04460  1.0000 -0.0125242048
C   C19       1.0  0.53100  0.41990  0.95540  1.0000 -0.0125242048
C   C20       1.0  0.53100  0.58010  0.54460  1.0000 -0.0125242048
C   C21       1.0  0.53100  0.91990  0.54460  1.0000 -0.0125242048
C   C22       1.0  0.53100  0.08010  0.95540  1.0000 -0.0125242048
C   C23       1.0  0.46900  0.58010  0.04460  1.0000 -0.0125242048
C   C24       1.0  0.46900  0.41990  0.45540  1.0000 -0.0125242048
C   C25       1.0  0.38880  0.96180  0.39950  1.0000 -0.0859953989
C   C26       1.0  0.38880  0.03820  0.10050  1.0000 -0.0859953989
C   C27       1.0  0.61120  0.53820  0.89950  1.0000 -0.0859953989
C   C28       1.0  0.61120  0.46180  0.60050  1.0000 -0.0859953989
C   C29       1.0  0.61120  0.03820  0.60050  1.0000 -0.0859953989
C   C30       1.0  0.61120  0.96180  0.89950  1.0000 -0.0859953989
C   C31       1.0  0.38880  0.46180  0.10050  1.0000 -0.0859953989
C   C32       1.0  0.38880  0.53820  0.39950  1.0000 -0.0859953989
C   C33       1.0  0.14970  0.93480  0.45530  1.0000 -0.1420091516
C   C34       1.0  0.14970  0.06520  0.04470  1.0000 -0.1420091516
C   C35       1.0  0.85030  0.56520  0.95530  1.0000 -0.1420091516
C   C36       1.0  0.85030  0.43480  0.54470  1.0000 -0.1420091516
C   C37       1.0  0.85030  0.06520  0.54470  1.0000 -0.1420091516
C   C38       1.0  0.85030  0.93480  0.95530  1.0000 -0.1420091516
C   C39       1.0  0.14970  0.43480  0.04470  1.0000 -0.1420091516
C   C40       1.0  0.14970  0.56520  0.45530  1.0000 -0.1420091516
C   C41       1.0  0.35360  0.06660  0.45240  1.0000 -0.1420091516
C   C42       1.0  0.35360  0.93340  0.04760  1.0000 -0.1420091516
C   C43       1.0  0.64640  0.43340  0.95240  1.0000 -0.1420091516
C   C44       1.0  0.64640  0.56660  0.54760  1.0000 -0.1420091516
C   C45       1.0  0.64640  0.93340  0.54760  1.0000 -0.1420091516
C   C46       1.0  0.64640  0.06660  0.95240  1.0000 -0.1420091516
C   C47       1.0  0.35360  0.56660  0.04760  1.0000 -0.1420091516
C   C48       1.0  0.35360  0.43340  0.45240  1.0000 -0.1420091516
C   C49       1.0  0.11040  0.03660  0.39840  1.0000 -0.0734616029
C   C50       1.0  0.11040  0.96340  0.10160  1.0000 -0.0734616029
C   C51       1.0  0.88960  0.46340  0.89840  1.0000 -0.0734616029
C   C52       1.0  0.88960  0.53660  0.60160  1.0000 -0.0734616029
C   C53       1.0  0.88960  0.96340  0.60160  1.0000 -0.0734616029
C   C54       1.0  0.88960  0.03660  0.89840  1.0000 -0.0734616029
C   C55       1.0  0.11040  0.53660  0.10160  1.0000 -0.0734616029
C   C56       1.0  0.11040  0.46340  0.39840  1.0000 -0.0734616029
C   C57       1.0  0.31250  0.00840  0.42470  1.0000 0.0439071306
C   C58       1.0  0.31250  0.99160  0.07530  1.0000 0.0439071306
C   C59       1.0  0.68750  0.49160  0.92470  1.0000 0.0439071306
C   C60       1.0  0.68750  0.50840  0.57530  1.0000 0.0439071306
C   C61       1.0  0.68750  0.99160  0.57530  1.0000 0.0439071306
C   C62       1.0  0.68750  0.00840  0.92470  1.0000 0.0439071306
C   C63       1.0  0.31250  0.50840  0.07530  1.0000 0.0439071306
C   C64       1.0  0.31250  0.49160  0.42470  1.0000 0.0439071306
C   C65       1.0  0.03530  0.91970  0.45840  1.0000 -0.0021272181
C   C66       1.0  0.03530  0.08030  0.04160  1.0000 -0.0021272181
C   C67       1.0  0.96470  0.58030  0.95840  1.0000 -0.0021272181
C   C68       1.0  0.96470  0.41970  0.54160  1.0000 -0.0021272181
C   C69       1.0  0.96470  0.08030  0.54160  1.0000 -0.0021272181
C   C70       1.0  0.96470  0.91970  0.95840  1.0000 -0.0021272181
C   C71       1.0  0.03530  0.41970  0.04160  1.0000 -0.0021272181
C   C72       1.0  0.03530  0.58030  0.45840  1.0000 -0.0021272181
C   C73       1.0  0.99580  0.02280  0.40290  1.0000 -0.100880913
C   C74       1.0  0.99580  0.97720  0.09710  1.0000 -0.100880913
C   C75       1.0  0.00420  0.47720  0.90290  1.0000 -0.100880913
C   C76       1.0  0.00420  0.52280  0.59710  1.0000 -0.100880913
C   C77       1.0  0.00420  0.97720  0.59710  1.0000 -0.100880913
C   C78       1.0  0.00420  0.02280  0.90290  1.0000 -0.100880913
C   C79       1.0  0.99580  0.52280  0.09710  1.0000 -0.100880913
C   C80       1.0  0.99580  0.47720  0.40290  1.0000 -0.100880913
C   C81       1.0  0.18820  0.99270  0.42490  1.0000 0.0439071306
C   C82       1.0  0.18820  0.00730  0.07510  1.0000 0.0439071306
C   C83       1.0  0.81180  0.50730  0.92490  1.0000 0.0439071306
C   C84       1.0  0.81180  0.49270  0.57510  1.0000 0.0439071306
C   C85       1.0  0.81180  0.00730  0.57510  1.0000 0.0439071306
C   C86       1.0  0.81180  0.99270  0.92490  1.0000 0.0439071306
C   C87       1.0  0.18820  0.49270  0.07510  1.0000 0.0439071306
C   C88       1.0  0.18820  0.50730  0.42490  1.0000 0.0439071306
C   C89       1.0  0.14970  0.09710  0.36160  1.0000 0.6748241972
C   C90       1.0  0.14970  0.90290  0.13840  1.0000 0.6748241972
C   C91       1.0  0.85030  0.40290  0.86160  1.0000 0.6748241972
C   C92       1.0  0.85030  0.59710  0.63840  1.0000 0.6748241972
C   C93       1.0  0.85030  0.90290  0.63840  1.0000 0.6748241972
C   C94       1.0  0.85030  0.09710  0.86160  1.0000 0.6748241972
C   C95       1.0  0.14970  0.59710  0.13840  1.0000 0.6748241972
C   C96       1.0  0.14970  0.40290  0.36160  1.0000 0.6748241972
C   C97       1.0  0.95840  0.96450  0.43190  1.0000 -0.100880913
C   C98       1.0  0.95840  0.03550  0.06810  1.0000 -0.100880913
C   C99       1.0  0.04160  0.53550  0.93190  1.0000 -0.100880913
C   C100      1.0  0.04160  0.46450  0.56810  1.0000 -0.100880913
C   C101      1.0  0.04160  0.03550  0.56810  1.0000 -0.100880913
C   C102      1.0  0.04160  0.96450  0.93190  1.0000 -0.100880913
C   C103      1.0  0.95840  0.46450  0.06810  1.0000 -0.100880913
C   C104      1.0  0.95840  0.53550  0.43190  1.0000 -0.100880913
C   C105      1.0  0.99680  0.85800  0.49260  1.0000 0.5703746392
C   C106      1.0  0.99680  0.14200  0.00740  1.0000 0.5703746392
C   C107      1.0  0.00320  0.64200  0.99260  1.0000 0.5703746392
C   C108      1.0  0.00320  0.35800  0.50740  1.0000 0.5703746392
C   C109      1.0  0.00320  0.14200  0.50740  1.0000 0.5703746392
C   C110      1.0  0.00320  0.85800  0.99260  1.0000 0.5703746392
C   C111      1.0  0.99680  0.35800  0.00740  1.0000 0.5703746392
C   C112      1.0  0.99680  0.64200  0.49260  1.0000 0.5703746392
C   C113      1.0  0.50370  0.97380  0.40300  1.0000 -0.1221385752
C   C114      1.0  0.50370  0.02620  0.09700  1.0000 -0.1221385752
C   C115      1.0  0.49630  0.52620  0.90300  1.0000 -0.1221385752
C   C116      1.0  0.49630  0.47380  0.59700  1.0000 -0.1221385752
C   C117      1.0  0.49630  0.02620  0.59700  1.0000 -0.1221385752
C   C118      1.0  0.49630  0.97380  0.90300  1.0000 -0.1221385752
C   C119      1.0  0.50370  0.47380  0.09700  1.0000 -0.1221385752
C   C120      1.0  0.50370  0.52620  0.40300  1.0000 -0.1221385752
C   C121      1.0  0.54360  0.03380  0.43060  1.0000 -0.105972772
C   C122      1.0  0.54360  0.96620  0.06940  1.0000 -0.105972772
C   C123      1.0  0.45640  0.46620  0.93060  1.0000 -0.105972772
C   C124      1.0  0.45640  0.53380  0.56940  1.0000 -0.105972772
C   C125      1.0  0.45640  0.96620  0.56940  1.0000 -0.105972772
C   C126      1.0  0.45640  0.03380  0.93060  1.0000 -0.105972772
C   C127      1.0  0.54360  0.53380  0.06940  1.0000 -0.105972772
C   C128      1.0  0.54360  0.46620  0.43060  1.0000 -0.105972772
N   N1        1.0  0.02280  0.00000  0.25000  1.0000 0.676243709
N   N2        1.0  0.97720  0.50000  0.75000  1.0000 0.6748241972
N   N3        1.0  0.97720  0.00000  0.75000  1.0000 0.6748241972
N   N4        1.0  0.02280  0.50000  0.25000  1.0000 0.6748241972
O   O1        1.0  0.92180  0.00000  0.25000  1.0000 -0.3016367094
O   O2        1.0  0.07820  0.50000  0.75000  1.0000 -0.3016367094
O   O3        1.0  0.07820  0.00000  0.75000  1.0000 -0.3016367094
O   O4        1.0  0.92180  0.50000  0.25000  1.0000 -0.3016367094
O   O5        1.0  0.20920  0.08280  0.31820  1.0000 -0.6608899321
O   O6        1.0  0.20920  0.91720  0.18180  1.0000 -0.6608899321
O   O7        1.0  0.79080  0.41720  0.81820  1.0000 -0.6608899321
O   O8        1.0  0.79080  0.58280  0.68180  1.0000 -0.6608899321
O   O9        1.0  0.79080  0.91720  0.68180  1.0000 -0.6608899321
O   O10       1.0  0.79080  0.08280  0.81820  1.0000 -0.6608899321
O   O11       1.0  0.20920  0.58280  0.18180  1.0000 -0.6608899321
O   O12       1.0  0.20920  0.41720  0.31820  1.0000 -0.6608899321
O   O13       1.0  0.12130  0.15750  0.37420  1.0000 -0.6608899321
O   O14       1.0  0.12130  0.84250  0.12580  1.0000 -0.6608899321
O   O15       1.0  0.87870  0.34250  0.87420  1.0000 -0.6608899321
O   O16       1.0  0.87870  0.65750  0.62580  1.0000 -0.6608899321
O   O17       1.0  0.87870  0.84250  0.62580  1.0000 -0.6608899321
O   O18       1.0  0.87870  0.15750  0.87420  1.0000 -0.6608899321
O   O19       1.0  0.12130  0.65750  0.12580  1.0000 -0.6608899321
O   O20       1.0  0.12130  0.34250  0.37420  1.0000 -0.6608899321
O   O21       1.0  0.89560  0.83700  0.49050  1.0000 -0.6488831774
O   O22       1.0  0.89560  0.16300  0.00950  1.0000 -0.6488831774
O   O23       1.0  0.10440  0.66300  0.99050  1.0000 -0.6488831774
O   O24       1.0  0.10440  0.33700  0.50950  1.0000 -0.6488831774
O   O25       1.0  0.10440  0.16300  0.50950  1.0000 -0.6488831774
O   O26       1.0  0.10440  0.83700  0.99050  1.0000 -0.6488831774
O   O27       1.0  0.89560  0.33700  0.00950  1.0000 -0.6488831774
O   O28       1.0  0.89560  0.66300  0.49050  1.0000 -0.6488831774
O   O29       1.0  0.61080  0.16240  0.48380  1.0000 -0.638406782
O   O30       1.0  0.61080  0.83760  0.01620  1.0000 -0.638406782
O   O31       1.0  0.38920  0.33760  0.98380  1.0000 -0.638406782
O   O32       1.0  0.38920  0.66240  0.51620  1.0000 -0.638406782
O   O33       1.0  0.38920  0.83760  0.51620  1.0000 -0.638406782
O   O34       1.0  0.38920  0.16240  0.98380  1.0000 -0.638406782
O   O35       1.0  0.61080  0.66240  0.01620  1.0000 -0.638406782
O   O36       1.0  0.61080  0.33760  0.48380  1.0000 -0.638406782
O   O37       1.0  0.36690  0.83990  0.37990  1.0000 -0.6708898083
O   O38       1.0  0.36690  0.16010  0.12010  1.0000 -0.6708898083
O   O39       1.0  0.63310  0.66010  0.87990  1.0000 -0.6708898083
O   O40       1.0  0.63310  0.33990  0.62010  1.0000 -0.6708898083
O   O41       1.0  0.63310  0.16010  0.62010  1.0000 -0.6708898083
O   O42       1.0  0.63310  0.83990  0.87990  1.0000 -0.6708898083
O   O43       1.0  0.36690  0.33990  0.12010  1.0000 -0.6708898083
O   O44       1.0  0.36690  0.66010  0.37990  1.0000 -0.6708898083
O   O45       1.0  0.29470  0.91510  0.31870  1.0000 -0.6608899321
O   O46       1.0  0.29470  0.08490  0.18130  1.0000 -0.6608899321
O   O47       1.0  0.70530  0.58490  0.81870  1.0000 -0.6608899321
O   O48       1.0  0.70530  0.41510  0.68130  1.0000 -0.6608899321
O   O49       1.0  0.70530  0.08490  0.68130  1.0000 -0.6608899321
O   O50       1.0  0.70530  0.91510  0.81870  1.0000 -0.6608899321
O   O51       1.0  0.29470  0.41510  0.18130  1.0000 -0.6608899321
O   O52       1.0  0.29470  0.58490  0.31870  1.0000 -0.6608899321
O   O53       1.0  0.06580  0.82640  0.52450  1.0000 -0.6322043226
O   O54       1.0  0.06580  0.17360  0.97550  1.0000 -0.6322043226
O   O55       1.0  0.93420  0.67360  0.02450  1.0000 -0.6322043226
O   O56       1.0  0.93420  0.32640  0.47550  1.0000 -0.6322043226
O   O57       1.0  0.93420  0.17360  0.47550  1.0000 -0.6322043226
O   O58       1.0  0.93420  0.82640  0.02450  1.0000 -0.6322043226
O   O59       1.0  0.06580  0.32640  0.97550  1.0000 -0.6322043226
O   O60       1.0  0.06580  0.67360  0.52450  1.0000 -0.6322043226
O   O61       1.0  0.07730  0.95990  0.28220  1.0000 -0.4775817715
O   O62       1.0  0.07730  0.04010  0.21780  1.0000 -0.4775817715
O   O63       1.0  0.92270  0.54010  0.78220  1.0000 -0.4775817715
O   O64       1.0  0.92270  0.45990  0.71780  1.0000 -0.4775817715
O   O65       1.0  0.92270  0.04010  0.71780  1.0000 -0.4775817715
O   O66       1.0  0.92270  0.95990  0.78220  1.0000 -0.4775817715
O   O67       1.0  0.07730  0.45990  0.21780  1.0000 -0.4775817715
O   O68       1.0  0.07730  0.54010  0.28220  1.0000 -0.4775817715
O   O69       1.0  0.44300  0.17580  0.51990  1.0000 -0.6322043226
O   O70       1.0  0.44300  0.82420  0.98010  1.0000 -0.6322043226
O   O71       1.0  0.55700  0.32420  0.01990  1.0000 -0.6322043226
O   O72       1.0  0.55700  0.67580  0.48010  1.0000 -0.6322043226
O   O73       1.0  0.55700  0.82420  0.48010  1.0000 -0.6322043226
O   O74       1.0  0.55700  0.17580  0.01990  1.0000 -0.6322043226
O   O75       1.0  0.44300  0.67580  0.98010  1.0000 -0.6322043226
O   O76       1.0  0.44300  0.32420  0.51990  1.0000 -0.6322043226
