# DDEC6 charges by PACMAN v1.1 (https://github.com/mtap-research/PACMAN-charge/)
data_2015[Co][sxa]3[ASR]1
_chemical_formula_sum              "Co8 H88 C128 N20 O40 F12"
_cell_length_a       16.1584
_cell_length_b       21.0524
_cell_length_c       21.0524
_cell_angle_alpha    68.6453
_cell_angle_beta     67.4328
_cell_angle_gamma    67.4328

_symmetry_space_group_name_H-M    "P 1"
_symmetry_Int_Tables_number       1

loop_
  _symmetry_equiv_pos_as_xyz
  'x, y, z'

loop_
  _atom_site_type_symbol
  _atom_site_label
  _atom_site_symmetry_multiplicity
  _atom_site_fract_x
  _atom_site_fract_y
  _atom_site_fract_z
  _atom_site_occupancy
  _atom_site_charge
Co  Co1       1.0  0.62164  0.43481  0.81196  1.0000 1.0746506232
Co  Co2       1.0  0.13159  0.81196  0.43481  1.0000 1.0746506232
Co  Co3       1.0  0.37836  0.18804  0.56519  1.0000 1.0746506232
Co  Co4       1.0  0.86841  0.56519  0.18804  1.0000 1.0746506232
Co  Co5       1.0  0.54034  0.59016  0.81067  1.0000 0.9536143768
Co  Co6       1.0  0.05883  0.81067  0.59016  1.0000 0.9536143768
Co  Co7       1.0  0.45966  0.18933  0.40984  1.0000 0.9536143768
Co  Co8       1.0  0.94117  0.40984  0.18933  1.0000 0.9536143768
H   H1        1.0  0.74911  0.38599  0.98173  1.0000 0.1113997975
H   H2        1.0  0.88316  0.98173  0.38599  1.0000 0.1113997975
H   H3        1.0  0.25089  0.01827  0.61401  1.0000 0.1113997975
H   H4        1.0  0.11684  0.61401  0.01827  1.0000 0.1113997975
H   H5        1.0  0.82305  0.38244  0.06840  1.0000 0.1113997975
H   H6        1.0  0.72611  0.06840  0.38244  1.0000 0.1113997975
H   H7        1.0  0.17695  0.93160  0.61756  1.0000 0.1113997975
H   H8        1.0  0.27389  0.61756  0.93160  1.0000 0.1113997975
H   H9        1.0  0.70859  0.61007  0.03639  1.0000 0.1021704789
H   H10       1.0  0.64495  0.03639  0.61007  1.0000 0.1021704789
H   H11       1.0  0.29141  0.96361  0.38993  1.0000 0.1021704789
H   H12       1.0  0.35505  0.38993  0.96361  1.0000 0.1021704789
H   H13       1.0  0.63206  0.61338  0.95138  1.0000 0.1021704789
H   H14       1.0  0.80318  0.95138  0.61338  1.0000 0.1021704789
H   H15       1.0  0.36794  0.04862  0.38662  1.0000 0.1021704789
H   H16       1.0  0.19682  0.38662  0.04862  1.0000 0.1021704789
H   H17       1.0  0.52205  0.30174  0.75738  1.0000 0.093564764
H   H18       1.0  0.41883  0.75738  0.30174  1.0000 0.093564764
H   H19       1.0  0.47795  0.24262  0.69826  1.0000 0.093564764
H   H20       1.0  0.58117  0.69826  0.24262  1.0000 0.093564764
H   H21       1.0  0.51780  0.48572  0.57762  1.0000 0.1113997975
H   H22       1.0  0.41886  0.57762  0.48572  1.0000 0.1113997975
H   H23       1.0  0.48220  0.42238  0.51428  1.0000 0.1113997975
H   H24       1.0  0.58114  0.51428  0.42238  1.0000 0.1113997975
H   H25       1.0  0.91834  0.29232  0.76633  1.0000 0.1021704789
H   H26       1.0  0.02301  0.76633  0.29232  1.0000 0.1021704789
H   H27       1.0  0.08166  0.23367  0.70768  1.0000 0.1021704789
H   H28       1.0  0.97699  0.70768  0.23367  1.0000 0.1021704789
H   H29       1.0  0.91898  0.47606  0.58646  1.0000 0.1177777148
H   H30       1.0  0.01849  0.58646  0.47606  1.0000 0.1177777148
H   H31       1.0  0.08102  0.41354  0.52394  1.0000 0.1177777148
H   H32       1.0  0.98151  0.52394  0.41354  1.0000 0.1177777148
H   H33       1.0  0.50080  0.33843  0.86664  1.0000 0.093564764
H   H34       1.0  0.29413  0.86664  0.33843  1.0000 0.093564764
H   H35       1.0  0.49920  0.13336  0.66157  1.0000 0.093564764
H   H36       1.0  0.70587  0.66157  0.13336  1.0000 0.093564764
H   H37       1.0  0.76550  0.31026  0.87541  1.0000 0.1421288739
H   H38       1.0  0.04883  0.87541  0.31026  1.0000 0.1421288739
H   H39       1.0  0.23450  0.12459  0.68974  1.0000 0.1421288739
H   H40       1.0  0.95117  0.68974  0.12459  1.0000 0.1421288739
H   H41       1.0  0.68464  0.09385  0.01336  1.0000 0.0825043697
H   H42       1.0  0.20815  0.01336  0.09385  1.0000 0.0825043697
H   H43       1.0  0.31536  0.98664  0.90615  1.0000 0.0825043697
H   H44       1.0  0.79185  0.90615  0.98664  1.0000 0.0825043697
H   H45       1.0  0.48283  0.13486  0.00598  1.0000 0.1286636229
H   H46       1.0  0.37634  0.00598  0.13486  1.0000 0.1286636229
H   H47       1.0  0.51717  0.99402  0.86514  1.0000 0.1286636229
H   H48       1.0  0.62366  0.86514  0.99402  1.0000 0.1286636229
H   H49       1.0  0.55737  0.04616  0.02643  1.0000 0.1113997975
H   H50       1.0  0.37004  0.02643  0.04616  1.0000 0.1113997975
H   H51       1.0  0.44263  0.97357  0.95384  1.0000 0.1113997975
H   H52       1.0  0.62996  0.95384  0.97357  1.0000 0.1113997975
H   H53       1.0  0.58390  0.10382  0.93906  1.0000 0.1113997975
H   H54       1.0  0.37322  0.93906  0.10382  1.0000 0.1113997975
H   H55       1.0  0.41610  0.06094  0.89618  1.0000 0.1113997975
H   H56       1.0  0.62678  0.89618  0.06094  1.0000 0.1113997975
H   H57       1.0  0.40420  0.11238  0.19062  1.0000 0.1021704789
H   H58       1.0  0.29280  0.19062  0.11238  1.0000 0.1021704789
H   H59       1.0  0.59580  0.80938  0.88762  1.0000 0.1021704789
H   H60       1.0  0.70720  0.88762  0.80938  1.0000 0.1021704789
H   H61       1.0  0.36529  0.00044  0.27306  1.0000 0.1286636229
H   H62       1.0  0.36122  0.27306  0.00044  1.0000 0.1286636229
H   H63       1.0  0.63471  0.72694  0.99956  1.0000 0.1286636229
H   H64       1.0  0.63878  0.99956  0.72694  1.0000 0.1286636229
H   H65       1.0  0.65018  0.87930  0.19063  1.0000 0.1587365795
H   H66       1.0  0.27989  0.19063  0.87930  1.0000 0.1587365795
H   H67       1.0  0.34982  0.80937  0.12070  1.0000 0.1587365795
H   H68       1.0  0.72011  0.12070  0.80937  1.0000 0.1587365795
H   H69       1.0  0.70322  0.10277  0.11972  1.0000 0.1286636229
H   H70       1.0  0.07429  0.11972  0.10277  1.0000 0.1286636229
H   H71       1.0  0.29678  0.88028  0.89723  1.0000 0.1286636229
H   H72       1.0  0.92571  0.89723  0.88028  1.0000 0.1286636229
H   H73       1.0  0.64805  0.19709  0.09674  1.0000 0.1113997975
H   H74       1.0  0.05812  0.09674  0.19709  1.0000 0.1113997975
H   H75       1.0  0.35195  0.90326  0.80291  1.0000 0.1113997975
H   H76       1.0  0.94188  0.80291  0.90326  1.0000 0.1113997975
H   H77       1.0  0.58084  0.05379  0.36400  1.0000 0.1113997975
H   H78       1.0  0.00138  0.36400  0.05379  1.0000 0.1113997975
H   H79       1.0  0.41916  0.63600  0.94621  1.0000 0.1113997975
H   H80       1.0  0.99862  0.94621  0.63600  1.0000 0.1113997975
H   H81       1.0  0.52022  0.24969  0.21319  1.0000 0.1177777148
H   H82       1.0  0.01690  0.21319  0.24969  1.0000 0.1177777148
H   H83       1.0  0.47978  0.78681  0.75031  1.0000 0.1177777148
H   H84       1.0  0.98310  0.75031  0.78681  1.0000 0.1177777148
H   H85       1.0  0.47052  0.20574  0.14454  1.0000 0.3323419172
H   H86       1.0  0.17920  0.14454  0.20574  1.0000 0.3323419172
H   H87       1.0  0.52948  0.85546  0.79426  1.0000 0.3323419172
H   H88       1.0  0.82080  0.79426  0.85546  1.0000 0.3323419172
C   C1        1.0  0.68799  0.50035  0.95939  1.0000 -0.0278387742
C   C2        1.0  0.85227  0.95939  0.50035  1.0000 -0.0278387742
C   C3        1.0  0.31201  0.04061  0.49965  1.0000 -0.0278387742
C   C4        1.0  0.14773  0.49965  0.04061  1.0000 -0.0278387742
C   C5        1.0  0.74057  0.43509  0.99353  1.0000 -0.0949455198
C   C6        1.0  0.83082  0.99353  0.43509  1.0000 -0.0949455198
C   C7        1.0  0.25943  0.00647  0.56491  1.0000 -0.0987332194
C   C8        1.0  0.16918  0.56491  0.00647  1.0000 -0.0949455198
C   C9        1.0  0.78125  0.43311  0.04235  1.0000 -0.0987332194
C   C10       1.0  0.74329  0.04235  0.43311  1.0000 -0.0987332194
C   C11       1.0  0.21875  0.95765  0.56689  1.0000 -0.0987332194
C   C12       1.0  0.25671  0.56689  0.95765  1.0000 -0.0987332194
C   C13       1.0  0.77028  0.49595  0.05832  1.0000 -0.0278387742
C   C14       1.0  0.67545  0.05832  0.49595  1.0000 -0.0278387742
C   C15       1.0  0.22972  0.94168  0.50405  1.0000 -0.0278387742
C   C16       1.0  0.32455  0.50405  0.94168  1.0000 -0.0278387742
C   C17       1.0  0.71679  0.56106  0.02474  1.0000 -0.0987332194
C   C18       1.0  0.69741  0.02474  0.56106  1.0000 -0.0987332194
C   C19       1.0  0.28321  0.97526  0.43894  1.0000 -0.0987332194
C   C20       1.0  0.30259  0.43894  0.97526  1.0000 -0.0987332194
C   C21       1.0  0.67528  0.56301  0.97645  1.0000 -0.0987332194
C   C22       1.0  0.78525  0.97645  0.56301  1.0000 -0.0987332194
C   C23       1.0  0.32472  0.02355  0.43699  1.0000 -0.0987332194
C   C24       1.0  0.21475  0.43699  0.02355  1.0000 -0.0987332194
C   C25       1.0  0.64634  0.50447  0.90470  1.0000 0.5893307406
C   C26       1.0  0.94449  0.90470  0.50447  1.0000 0.5893307406
C   C27       1.0  0.35366  0.09530  0.49553  1.0000 0.5893307406
C   C28       1.0  0.05551  0.49553  0.09530  1.0000 0.5893307406
C   C29       1.0  0.81746  0.49191  0.10957  1.0000 0.5893307406
C   C30       1.0  0.58107  0.10957  0.49191  1.0000 0.5893307406
C   C31       1.0  0.18254  0.89043  0.50809  1.0000 0.5893307406
C   C32       1.0  0.41893  0.50809  0.89043  1.0000 0.5893307406
C   C33       1.0  0.54630  0.44143  0.70368  1.0000 0.5501577932
C   C34       1.0  0.30859  0.70368  0.44143  1.0000 0.5501577932
C   C35       1.0  0.45370  0.29632  0.55857  1.0000 0.5501577932
C   C36       1.0  0.69141  0.55857  0.29632  1.0000 0.5501577932
C   C37       1.0  0.51244  0.32948  0.70430  1.0000 -0.0987332194
C   C38       1.0  0.45378  0.70430  0.32948  1.0000 -0.0987332194
C   C39       1.0  0.48756  0.29570  0.67052  1.0000 -0.0987332194
C   C40       1.0  0.54622  0.67052  0.29570  1.0000 -0.0987332194
C   C41       1.0  0.52350  0.39825  0.67117  1.0000 -0.0020487778
C   C42       1.0  0.40708  0.67117  0.39825  1.0000 -0.0020487778
C   C43       1.0  0.47650  0.32883  0.60175  1.0000 -0.0020487778
C   C44       1.0  0.59292  0.60175  0.32883  1.0000 -0.0020487778
C   C45       1.0  0.51057  0.43177  0.60288  1.0000 -0.078137431
C   C46       1.0  0.45478  0.60288  0.43177  1.0000 -0.078137431
C   C47       1.0  0.48943  0.39712  0.56823  1.0000 -0.078137431
C   C48       1.0  0.54522  0.56823  0.39712  1.0000 -0.078137431
C   C49       1.0  0.80789  0.43313  0.71334  1.0000 0.5501577932
C   C50       1.0  0.04565  0.71334  0.43313  1.0000 0.5501577932
C   C51       1.0  0.19211  0.28666  0.56687  1.0000 0.5501577932
C   C52       1.0  0.95435  0.56687  0.28666  1.0000 0.5501577932
C   C53       1.0  0.95357  0.32028  0.71353  1.0000 -0.0987332194
C   C54       1.0  0.01261  0.71353  0.32028  1.0000 -0.0987332194
C   C55       1.0  0.04643  0.28647  0.67972  1.0000 -0.0987332194
C   C56       1.0  0.98739  0.67972  0.28647  1.0000 -0.0987332194
C   C57       1.0  0.90633  0.38908  0.68081  1.0000 0.0005960764
C   C58       1.0  0.02378  0.68081  0.38908  1.0000 -0.0020487778
C   C59       1.0  0.09367  0.31919  0.61092  1.0000 0.0005960764
C   C60       1.0  0.97622  0.61092  0.31919  1.0000 0.0005960764
C   C61       1.0  0.95459  0.42225  0.61238  1.0000 -0.078137431
C   C62       1.0  0.01079  0.61238  0.42225  1.0000 -0.078137431
C   C63       1.0  0.04541  0.38762  0.57775  1.0000 -0.078137431
C   C64       1.0  0.98921  0.57775  0.38762  1.0000 -0.078137431
C   C65       1.0  0.55635  0.30604  0.89206  1.0000 0.2376237292
C   C66       1.0  0.24555  0.89206  0.30604  1.0000 0.2376237292
C   C67       1.0  0.44365  0.10794  0.69396  1.0000 0.2376237292
C   C68       1.0  0.75445  0.69396  0.10794  1.0000 0.2376237292
C   C69       1.0  0.62040  0.20144  0.96723  1.0000 0.1286636229
C   C70       1.0  0.21092  0.96723  0.20144  1.0000 0.1286636229
C   C71       1.0  0.37960  0.03277  0.79856  1.0000 0.1286636229
C   C72       1.0  0.78908  0.79856  0.03277  1.0000 0.1286636229
C   C73       1.0  0.70021  0.22456  0.94404  1.0000 0.1286636229
C   C74       1.0  0.13120  0.94404  0.22456  1.0000 0.1286636229
C   C75       1.0  0.29979  0.05596  0.77544  1.0000 0.1286636229
C   C76       1.0  0.86880  0.77544  0.05596  1.0000 0.1286636229
C   C77       1.0  0.70398  0.29054  0.89625  1.0000 0.0096229176
C   C78       1.0  0.10923  0.89625  0.29054  1.0000 0.0096229176
C   C79       1.0  0.29602  0.10375  0.70946  1.0000 0.0096229176
C   C80       1.0  0.89077  0.70946  0.10375  1.0000 0.0096229176
C   C81       1.0  0.61287  0.12998  0.01824  1.0000 -0.078137431
C   C82       1.0  0.23892  0.01824  0.12998  1.0000 -0.078137431
C   C83       1.0  0.38713  0.98176  0.87002  1.0000 -0.078137431
C   C84       1.0  0.76108  0.87002  0.98176  1.0000 -0.078137431
C   C85       1.0  0.55595  0.10160  0.99643  1.0000 -0.36569678
C   C86       1.0  0.34602  0.99643  0.10160  1.0000 -0.36569678
C   C87       1.0  0.44405  0.00357  0.89840  1.0000 -0.36569678
C   C88       1.0  0.65398  0.89840  0.00357  1.0000 -0.36569678
C   C89       1.0  0.56935  0.13150  0.09870  1.0000 0.2771902833
C   C90       1.0  0.20045  0.09870  0.13150  1.0000 0.2771902833
C   C91       1.0  0.43065  0.90130  0.86850  1.0000 0.2771902833
C   C92       1.0  0.79955  0.86850  0.90130  1.0000 0.2771902833
C   C93       1.0  0.54775  0.06110  0.14452  1.0000 -0.1215678301
C   C94       1.0  0.24663  0.14452  0.06110  1.0000 -0.1215678301
C   C95       1.0  0.45225  0.85548  0.93890  1.0000 -0.1215678301
C   C96       1.0  0.75337  0.93890  0.85548  1.0000 -0.1215678301
C   C97       1.0  0.45831  0.06143  0.19162  1.0000 -0.0626978415
C   C98       1.0  0.28864  0.19162  0.06143  1.0000 -0.0626978415
C   C99       1.0  0.54169  0.80838  0.93857  1.0000 -0.0626978415
C   C100      1.0  0.71136  0.93857  0.80838  1.0000 -0.0626978415
C   C101      1.0  0.43589  0.99950  0.23804  1.0000 -0.2290199395
C   C102      1.0  0.32657  0.23804  0.99950  1.0000 -0.2290199395
C   C103      1.0  0.56411  0.76196  0.00050  1.0000 -0.2290199395
C   C104      1.0  0.67343  0.00050  0.76196  1.0000 -0.2290199395
C   C105      1.0  0.50528  0.93496  0.23679  1.0000 0.3162260729
C   C106      1.0  0.32297  0.23679  0.93496  1.0000 0.3162260729
C   C107      1.0  0.49472  0.76321  0.06504  1.0000 0.3162260729
C   C108      1.0  0.67703  0.06504  0.76321  1.0000 0.3162260729
C   C109      1.0  0.59554  0.93038  0.19084  1.0000 -0.3319401887
C   C110      1.0  0.28324  0.19084  0.93038  1.0000 -0.3319401887
C   C111      1.0  0.40446  0.80916  0.06962  1.0000 -0.3319401887
C   C112      1.0  0.71676  0.06962  0.80916  1.0000 -0.3319401887
C   C113      1.0  0.61383  0.99421  0.14609  1.0000 0.2771902833
C   C114      1.0  0.24587  0.14609  0.99421  1.0000 0.2771902833
C   C115      1.0  0.38617  0.85391  0.00579  1.0000 0.2771902833
C   C116      1.0  0.75413  0.00579  0.85391  1.0000 0.2771902833
C   C117      1.0  0.63578  0.14462  0.12653  1.0000 -0.2064548318
C   C118      1.0  0.09307  0.12653  0.14462  1.0000 -0.2064548318
C   C119      1.0  0.36422  0.87347  0.85538  1.0000 -0.2064548318
C   C120      1.0  0.90693  0.85538  0.87347  1.0000 -0.2064548318
C   C121      1.0  0.57737  0.09311  0.31360  1.0000 0.1587365795
C   C122      1.0  0.01592  0.31360  0.09311  1.0000 0.1587365795
C   C123      1.0  0.42263  0.68640  0.90689  1.0000 0.1587365795
C   C124      1.0  0.98408  0.90689  0.68640  1.0000 0.1587365795
C   C125      1.0  0.54414  0.19340  0.23892  1.0000 0.0566681552
C   C126      1.0  0.02354  0.23892  0.19340  1.0000 0.0566681552
C   C127      1.0  0.45586  0.76108  0.80660  1.0000 0.0566681552
C   C128      1.0  0.97646  0.80660  0.76108  1.0000 0.0566681552
N   N1        1.0  0.62977  0.33273  0.87182  1.0000 -0.2028021325
N   N2        1.0  0.16568  0.87182  0.33273  1.0000 -0.2028021325
N   N3        1.0  0.37023  0.12818  0.66727  1.0000 -0.2028021325
N   N4        1.0  0.83432  0.66727  0.12818  1.0000 -0.2028021325
N   N5        1.0  0.54898  0.24346  0.93820  1.0000 -0.2939669785
N   N6        1.0  0.26936  0.93820  0.24346  1.0000 -0.2939669785
N   N7        1.0  0.45102  0.06180  0.75654  1.0000 -0.2939669785
N   N8        1.0  0.73064  0.75654  0.06180  1.0000 -0.2939669785
N   N9        1.0  0.59971  0.14182  0.20294  1.0000 0.1587365795
N   N10       1.0  0.05553  0.20294  0.14182  1.0000 0.1587365795
N   N11       1.0  0.40029  0.79706  0.85818  1.0000 0.1587365795
N   N12       1.0  0.94447  0.85818  0.79706  1.0000 0.1587365795
N   N13       1.0  0.62142  0.07691  0.25100  1.0000 -0.2512204197
N   N14       1.0  0.05067  0.25100  0.07691  1.0000 -0.2512204197
N   N15       1.0  0.37858  0.74900  0.92309  1.0000 -0.2512204197
N   N16       1.0  0.94933  0.92309  0.74900  1.0000 -0.2512204197
N   N17       1.0  0.52844  0.16409  0.30993  1.0000 -0.3319401887
N   N18       1.0  0.99755  0.30993  0.16409  1.0000 -0.3319401887
N   N19       1.0  0.47156  0.69007  0.83591  1.0000 -0.3319401887
N   N20       1.0  0.00245  0.83591  0.69007  1.0000 -0.3319401887
O   O1        1.0  0.66124  0.44831  0.88696  1.0000 -0.5397466567
O   O2        1.0  0.00349  0.88696  0.44831  1.0000 -0.5397466567
O   O3        1.0  0.33876  0.11304  0.55169  1.0000 -0.5397466567
O   O4        1.0  0.99651  0.55169  0.11304  1.0000 -0.5397466567
O   O5        1.0  0.59691  0.56832  0.88099  1.0000 -0.5259582025
O   O6        1.0  0.95378  0.88099  0.56832  1.0000 -0.5259582025
O   O7        1.0  0.40309  0.11901  0.43168  1.0000 -0.5259582025
O   O8        1.0  0.04622  0.43168  0.11901  1.0000 -0.5259582025
O   O9        1.0  0.81629  0.54866  0.11919  1.0000 -0.5397466567
O   O10       1.0  0.51586  0.11919  0.54866  1.0000 -0.5397466567
O   O11       1.0  0.18371  0.88081  0.45134  1.0000 -0.5397466567
O   O12       1.0  0.48414  0.45134  0.88081  1.0000 -0.5397466567
O   O13       1.0  0.85922  0.42718  0.13814  1.0000 -0.5159831268
O   O14       1.0  0.57545  0.13814  0.42718  1.0000 -0.5159831268
O   O15       1.0  0.14078  0.86186  0.57282  1.0000 -0.5159831268
O   O16       1.0  0.42455  0.57282  0.86186  1.0000 -0.5159831268
O   O17       1.0  0.58670  0.40140  0.75574  1.0000 -0.4922128987
O   O18       1.0  0.25616  0.75574  0.40140  1.0000 -0.4922128987
O   O19       1.0  0.41330  0.24426  0.59860  1.0000 -0.4922128987
O   O20       1.0  0.74384  0.59860  0.24426  1.0000 -0.4922128987
O   O21       1.0  0.52776  0.50657  0.68114  1.0000 -0.4402952414
O   O22       1.0  0.28453  0.68114  0.50657  1.0000 -0.4402952414
O   O23       1.0  0.47224  0.31886  0.49343  1.0000 -0.4402952414
O   O24       1.0  0.71547  0.49343  0.31886  1.0000 -0.4402952414
O   O25       1.0  0.75203  0.39569  0.76588  1.0000 -0.5053497773
O   O26       1.0  0.08639  0.76588  0.39569  1.0000 -0.5053497773
O   O27       1.0  0.24797  0.23412  0.60431  1.0000 -0.5053497773
O   O28       1.0  0.91361  0.60431  0.23412  1.0000 -0.5053497773
O   O29       1.0  0.78632  0.49834  0.68940  1.0000 -0.4306560975
O   O30       1.0  0.02594  0.68940  0.49834  1.0000 -0.4306560975
O   O31       1.0  0.21368  0.31060  0.50166  1.0000 -0.4306560975
O   O32       1.0  0.97406  0.50166  0.31060  1.0000 -0.4306560975
O   O33       1.0  0.60188  0.52647  0.76834  1.0000 -0.5941464227
O   O34       1.0  0.10331  0.76834  0.52647  1.0000 -0.5941464227
O   O35       1.0  0.39812  0.23166  0.47353  1.0000 -0.5941464227
O   O36       1.0  0.89669  0.47353  0.23166  1.0000 -0.5941464227
O   O37       1.0  0.48536  0.19017  0.10210  1.0000 -0.4922128987
O   O38       1.0  0.22236  0.10210  0.19017  1.0000 -0.4922128987
O   O39       1.0  0.51464  0.89790  0.80983  1.0000 -0.4922128987
O   O40       1.0  0.77764  0.80983  0.89790  1.0000 -0.4922128987
F   F1        1.0  0.77751  0.18163  0.96731  1.0000 -0.1330953647
F   F2        1.0  0.07354  0.96731  0.18163  1.0000 -0.1330953647
F   F3        1.0  0.22249  0.03269  0.81837  1.0000 -0.1330953647
F   F4        1.0  0.92646  0.81837  0.03269  1.0000 -0.1330953647
F   F5        1.0  0.70384  0.98884  0.10112  1.0000 -0.1404796035
F   F6        1.0  0.20620  0.10112  0.98884  1.0000 -0.1404796035
F   F7        1.0  0.29616  0.89888  0.01116  1.0000 -0.1404796035
F   F8        1.0  0.79380  0.01116  0.89888  1.0000 -0.1404796035
F   F9        1.0  0.48508  0.87333  0.28179  1.0000 -0.1404796035
F   F10       1.0  0.35979  0.28179  0.87333  1.0000 -0.1404796035
F   F11       1.0  0.51492  0.71821  0.12667  1.0000 -0.1404796035
F   F12       1.0  0.64021  0.12667  0.71821  1.0000 -0.1404796035
