# DDEC6 charges by PACMAN v1.1 (https://github.com/mtap-research/PACMAN-charge/)
data_2015[Fe][nan]3[ASR]3
_chemical_formula_sum              "Fe6 H6 C24 S6 O12"
_cell_length_a       16.086
_cell_length_b       16.086
_cell_length_c       16.086
_cell_angle_alpha    117.822
_cell_angle_beta     117.822
_cell_angle_gamma    117.822

_symmetry_space_group_name_H-M    "P 1"
_symmetry_Int_Tables_number       1

loop_
  _symmetry_equiv_pos_as_xyz
  'x, y, z'

loop_
  _atom_site_type_symbol
  _atom_site_label
  _atom_site_symmetry_multiplicity
  _atom_site_fract_x
  _atom_site_fract_y
  _atom_site_fract_z
  _atom_site_occupancy
  _atom_site_charge
Fe  Fe1       1.0  0.24584  0.98829  0.57742  1.0000 0.7639440794
Fe  Fe2       1.0  0.98829  0.57742  0.24584  1.0000 0.7639440794
Fe  Fe3       1.0  0.57742  0.24584  0.98829  1.0000 0.7639440794
Fe  Fe4       1.0  0.75416  0.01171  0.42258  1.0000 0.7639440794
Fe  Fe5       1.0  0.01171  0.42258  0.75416  1.0000 0.7639440794
Fe  Fe6       1.0  0.42258  0.75416  0.01171  1.0000 0.7639440794
H   H1        1.0  0.19040  0.73540  0.17880  1.0000 0.1389351982
H   H2        1.0  0.73540  0.17880  0.19040  1.0000 0.1389351982
H   H3        1.0  0.17880  0.19040  0.73540  1.0000 0.1389351982
H   H4        1.0  0.80960  0.26460  0.82120  1.0000 0.1389351982
H   H5        1.0  0.26460  0.82120  0.80960  1.0000 0.1389351982
H   H6        1.0  0.82120  0.80960  0.26460  1.0000 0.1389351982
C   C1        1.0  0.35500  0.92800  0.43930  1.0000 0.0976096949
C   C2        1.0  0.92800  0.43930  0.35500  1.0000 0.0976096949
C   C3        1.0  0.43930  0.35500  0.92800  1.0000 0.0976096949
C   C4        1.0  0.64500  0.07200  0.56070  1.0000 0.0976096949
C   C5        1.0  0.07200  0.56070  0.64500  1.0000 0.0976096949
C   C6        1.0  0.56070  0.64500  0.07200  1.0000 0.0976096949
C   C7        1.0  0.31820  0.84450  0.31150  1.0000 -0.1431203436
C   C8        1.0  0.84450  0.31150  0.31820  1.0000 -0.1431203436
C   C9        1.0  0.31150  0.31820  0.84450  1.0000 -0.1431203436
C   C10       1.0  0.68180  0.15550  0.68850  1.0000 -0.1431203436
C   C11       1.0  0.15550  0.68850  0.68180  1.0000 -0.1431203436
C   C12       1.0  0.68850  0.68180  0.15550  1.0000 -0.1431203436
C   C13       1.0  0.54580  0.09190  0.63750  1.0000 -0.0829323581
C   C14       1.0  0.09190  0.63750  0.54580  1.0000 -0.0829323581
C   C15       1.0  0.63750  0.54580  0.09190  1.0000 -0.0829323581
C   C16       1.0  0.45420  0.90810  0.36250  1.0000 -0.0829323581
C   C17       1.0  0.90810  0.36250  0.45420  1.0000 -0.0829323581
C   C18       1.0  0.36250  0.45420  0.90810  1.0000 -0.0829323581
C   C19       1.0  0.61800  0.20180  0.80040  1.0000 0.6091259717
C   C20       1.0  0.20180  0.80040  0.61800  1.0000 0.6091259717
C   C21       1.0  0.80040  0.61800  0.20180  1.0000 0.6091259717
C   C22       1.0  0.38200  0.79820  0.19960  1.0000 0.6091259717
C   C23       1.0  0.79820  0.19960  0.38200  1.0000 0.6091259717
C   C24       1.0  0.19960  0.38200  0.79820  1.0000 0.6091259717
S   S1        1.0  0.15497  0.81897  0.33226  1.0000 -0.3288326662
S   S2        1.0  0.81897  0.33226  0.15497  1.0000 -0.3362123322
S   S3        1.0  0.33226  0.15497  0.81897  1.0000 -0.3362123322
S   S4        1.0  0.84503  0.18103  0.66774  1.0000 -0.3362123322
S   S5        1.0  0.18103  0.66774  0.84503  1.0000 -0.3362123322
S   S6        1.0  0.66774  0.84503  0.18103  1.0000 -0.3288326662
O   O1        1.0  0.50299  0.13870  0.76941  1.0000 -0.5497799219
O   O2        1.0  0.13870  0.76941  0.50299  1.0000 -0.5497799219
O   O3        1.0  0.76941  0.50299  0.13870  1.0000 -0.5497799219
O   O4        1.0  0.49701  0.86130  0.23059  1.0000 -0.5497799219
O   O5        1.0  0.86130  0.23059  0.49701  1.0000 -0.5497799219
O   O6        1.0  0.23059  0.49701  0.86130  1.0000 -0.5497799219
O   O7        1.0  0.79817  0.35580  0.96813  1.0000 -0.500029877
O   O8        1.0  0.35580  0.96813  0.79817  1.0000 -0.500029877
O   O9        1.0  0.96813  0.79817  0.35580  1.0000 -0.500029877
O   O10       1.0  0.20183  0.64420  0.03187  1.0000 -0.500029877
O   O11       1.0  0.64420  0.03187  0.20183  1.0000 -0.500029877
O   O12       1.0  0.03187  0.20183  0.64420  1.0000 -0.500029877
