# DDEC6 charges by PACMAN v1.1 (https://github.com/mtap-research/PACMAN-charge/)
data_2015[Zn][nan]3[ASR]17
_chemical_formula_sum              "Zn12 H40 C92 N20 O48"
_cell_length_a       14.4022
_cell_length_b       25.92
_cell_length_c       19.0125
_cell_angle_alpha    90
_cell_angle_beta     118.911
_cell_angle_gamma    90

_symmetry_space_group_name_H-M    "P 1"
_symmetry_Int_Tables_number       1

loop_
  _symmetry_equiv_pos_as_xyz
  'x, y, z'

loop_
  _atom_site_type_symbol
  _atom_site_label
  _atom_site_symmetry_multiplicity
  _atom_site_fract_x
  _atom_site_fract_y
  _atom_site_fract_z
  _atom_site_occupancy
  _atom_site_charge
Zn  Zn1       1.0  0.70896  0.00072  0.87430  1.0000 0.8629808931
Zn  Zn2       1.0  0.29104  0.50072  0.62570  1.0000 0.8629808931
Zn  Zn3       1.0  0.29104  0.99928  0.12570  1.0000 0.8629808931
Zn  Zn4       1.0  0.70896  0.49928  0.37430  1.0000 0.8629808931
Zn  Zn5       1.0  0.58696  0.06598  0.68927  1.0000 0.8629808931
Zn  Zn6       1.0  0.41304  0.56598  0.81073  1.0000 0.8629808931
Zn  Zn7       1.0  0.41304  0.93402  0.31073  1.0000 0.8629808931
Zn  Zn8       1.0  0.58696  0.43402  0.18927  1.0000 0.8629808931
Zn  Zn9       1.0  0.26717  0.31969  0.22653  1.0000 0.8467070121
Zn  Zn10      1.0  0.73283  0.81969  0.27347  1.0000 0.8467070121
Zn  Zn11      1.0  0.73283  0.68031  0.77347  1.0000 0.8467070121
Zn  Zn12      1.0  0.26717  0.18031  0.72653  1.0000 0.8449717222
H   H1        1.0  0.41990  0.20260  0.46630  1.0000 0.1194518062
H   H2        1.0  0.58010  0.70260  0.03370  1.0000 0.1194518062
H   H3        1.0  0.58010  0.79740  0.53370  1.0000 0.1194518062
H   H4        1.0  0.41990  0.29740  0.96630  1.0000 0.1194518062
H   H5        1.0  0.97580  0.45620  0.42240  1.0000 0.1388494616
H   H6        1.0  0.02420  0.95620  0.07760  1.0000 0.1388494616
H   H7        1.0  0.02420  0.54380  0.57760  1.0000 0.1388494616
H   H8        1.0  0.97580  0.04380  0.92240  1.0000 0.1388494616
H   H9        1.0  0.45190  0.05270  0.43000  1.0000 0.1388494616
H   H10       1.0  0.54810  0.55270  0.07000  1.0000 0.1388494616
H   H11       1.0  0.54810  0.94730  0.57000  1.0000 0.1388494616
H   H12       1.0  0.45190  0.44730  0.93000  1.0000 0.1388494616
H   H13       1.0  0.31780  0.14970  0.24110  1.0000 0.1315947158
H   H14       1.0  0.68220  0.64970  0.25890  1.0000 0.1315947158
H   H15       1.0  0.68220  0.85030  0.75890  1.0000 0.1315947158
H   H16       1.0  0.31780  0.35030  0.74110  1.0000 0.1315947158
H   H17       1.0  0.19680  0.39740  0.37730  1.0000 0.1194518062
H   H18       1.0  0.80320  0.89740  0.12270  1.0000 0.1194518062
H   H19       1.0  0.80320  0.60260  0.62270  1.0000 0.1194518062
H   H20       1.0  0.19680  0.10260  0.87730  1.0000 0.1194518062
H   H21       1.0  0.89240  0.37830  0.21820  1.0000 0.1388494616
H   H22       1.0  0.10760  0.87830  0.28180  1.0000 0.1388494616
H   H23       1.0  0.10760  0.62170  0.78180  1.0000 0.1388494616
H   H24       1.0  0.89240  0.12170  0.71820  1.0000 0.1388494616
H   H25       1.0  0.39120  0.11920  0.97290  1.0000 0.315890087
H   H26       1.0  0.60880  0.61920  0.52710  1.0000 0.315890087
H   H27       1.0  0.60880  0.88080  0.02710  1.0000 0.315890087
H   H28       1.0  0.39120  0.38080  0.47290  1.0000 0.315890087
H   H29       1.0  0.35580  0.15140  0.89940  1.0000 0.315890087
H   H30       1.0  0.64420  0.65140  0.60060  1.0000 0.315890087
H   H31       1.0  0.64420  0.84860  0.10060  1.0000 0.315890087
H   H32       1.0  0.35580  0.34860  0.39940  1.0000 0.315890087
H   H33       1.0  0.61100  0.00730  0.97490  1.0000 0.1119221059
H   H34       1.0  0.38900  0.50730  0.52510  1.0000 0.1119221059
H   H35       1.0  0.38900  0.99270  0.02510  1.0000 0.1119221059
H   H36       1.0  0.61100  0.49270  0.47490  1.0000 0.1119221059
H   H37       1.0  0.42190  0.14310  0.67430  1.0000 0.1194518062
H   H38       1.0  0.57810  0.64310  0.82570  1.0000 0.1194518062
H   H39       1.0  0.57810  0.85690  0.32570  1.0000 0.1194518062
H   H40       1.0  0.42190  0.35690  0.17430  1.0000 0.1194518062
C   C1        1.0  0.49430  0.11760  0.55010  1.0000 0.5535232283
C   C2        1.0  0.50570  0.61760  0.94990  1.0000 0.5535232283
C   C3        1.0  0.50570  0.88240  0.44990  1.0000 0.5535232283
C   C4        1.0  0.49430  0.38240  0.05010  1.0000 0.5535232283
C   C5        1.0  0.41060  0.17540  0.43150  1.0000 -0.0890741781
C   C6        1.0  0.58940  0.67540  0.06850  1.0000 -0.0890741781
C   C7        1.0  0.58940  0.82460  0.56850  1.0000 -0.0890741781
C   C8        1.0  0.41060  0.32460  0.93150  1.0000 -0.0890741781
C   C9        1.0  0.99460  0.43790  0.38910  1.0000 -0.0890741781
C   C10       1.0  0.00540  0.93790  0.11090  1.0000 -0.0890741781
C   C11       1.0  0.00540  0.56210  0.61090  1.0000 -0.0890741781
C   C12       1.0  0.99460  0.06210  0.88910  1.0000 -0.0890741781
C   C13       1.0  0.91590  0.41830  0.31640  1.0000 -0.0206366856
C   C14       1.0  0.08410  0.91830  0.18360  1.0000 -0.0206366856
C   C15       1.0  0.08410  0.58170  0.68360  1.0000 -0.0206366856
C   C16       1.0  0.91590  0.08170  0.81640  1.0000 -0.0206366856
C   C17       1.0  0.32920  0.23770  0.31890  1.0000 0.5673205761
C   C18       1.0  0.67080  0.73770  0.18110  1.0000 0.5673205761
C   C19       1.0  0.67080  0.76230  0.68110  1.0000 0.5673205761
C   C20       1.0  0.32920  0.26230  0.81890  1.0000 0.5673205761
C   C21       1.0  0.43080  0.08590  0.41000  1.0000 -0.0890741781
C   C22       1.0  0.56920  0.58590  0.09000  1.0000 -0.0890741781
C   C23       1.0  0.56920  0.91410  0.59000  1.0000 -0.0890741781
C   C24       1.0  0.43080  0.41410  0.91000  1.0000 -0.0890741781
C   C25       1.0  0.44470  0.12560  0.46230  1.0000 -0.0273050278
C   C26       1.0  0.55530  0.62560  0.03770  1.0000 -0.0273050278
C   C27       1.0  0.55530  0.87440  0.53770  1.0000 -0.0273050278
C   C28       1.0  0.44470  0.37440  0.96230  1.0000 -0.0273050278
C   C29       1.0  0.34970  0.14400  0.29610  1.0000 -0.0833085913
C   C30       1.0  0.65030  0.64400  0.20390  1.0000 -0.0833085913
C   C31       1.0  0.65030  0.85600  0.70390  1.0000 -0.0833085913
C   C32       1.0  0.34970  0.35600  0.79610  1.0000 -0.0833085913
C   C33       1.0  0.12570  0.40330  0.36150  1.0000 -0.1006914357
C   C34       1.0  0.87430  0.90330  0.13850  1.0000 -0.1006914357
C   C35       1.0  0.87430  0.59670  0.63850  1.0000 -0.1006914357
C   C36       1.0  0.12570  0.09670  0.86150  1.0000 -0.1006914357
C   C37       1.0  0.36280  0.18430  0.34890  1.0000 -0.0206366856
C   C38       1.0  0.63720  0.68430  0.15110  1.0000 -0.0206366856
C   C39       1.0  0.63720  0.81570  0.65110  1.0000 -0.0206366856
C   C40       1.0  0.36280  0.31570  0.84890  1.0000 -0.0206366856
C   C41       1.0  0.38590  0.09450  0.32810  1.0000 -0.0206366856
C   C42       1.0  0.61410  0.59450  0.17190  1.0000 -0.0206366856
C   C43       1.0  0.61410  0.90550  0.67190  1.0000 -0.0206366856
C   C44       1.0  0.38590  0.40550  0.82810  1.0000 -0.0206366856
C   C45       1.0  0.94480  0.39160  0.26660  1.0000 -0.0833085913
C   C46       1.0  0.05520  0.89160  0.23340  1.0000 -0.0833085913
C   C47       1.0  0.05520  0.60840  0.73340  1.0000 -0.0833085913
C   C48       1.0  0.94480  0.10840  0.76660  1.0000 -0.0833085913
C   C49       1.0  0.10040  0.43030  0.41190  1.0000 -0.0206366856
C   C50       1.0  0.89960  0.93030  0.08810  1.0000 -0.0206366856
C   C51       1.0  0.89960  0.56970  0.58810  1.0000 -0.0206366856
C   C52       1.0  0.10040  0.06970  0.91190  1.0000 -0.0206366856
C   C53       1.0  0.80150  0.42760  0.29120  1.0000 0.5936949609
C   C54       1.0  0.19850  0.92760  0.20880  1.0000 0.5936949609
C   C55       1.0  0.19850  0.57240  0.70880  1.0000 0.5936949609
C   C56       1.0  0.80150  0.07240  0.79120  1.0000 0.5936949609
C   C57       1.0  0.04910  0.38460  0.28780  1.0000 -0.0206366856
C   C58       1.0  0.95090  0.88460  0.21220  1.0000 -0.0206366856
C   C59       1.0  0.95090  0.61540  0.71220  1.0000 -0.0206366856
C   C60       1.0  0.04910  0.11540  0.78780  1.0000 -0.0206366856
C   C61       1.0  0.18770  0.45070  0.49060  1.0000 0.5555678266
C   C62       1.0  0.81230  0.95070  0.00940  1.0000 0.5535232283
C   C63       1.0  0.81230  0.54930  0.50940  1.0000 0.5555678266
C   C64       1.0  0.18770  0.04930  0.99060  1.0000 0.5555678266
C   C65       1.0  0.08220  0.35410  0.23460  1.0000 0.5555678266
C   C66       1.0  0.91780  0.85410  0.26540  1.0000 0.5555678266
C   C67       1.0  0.91780  0.64590  0.76540  1.0000 0.5555678266
C   C68       1.0  0.08220  0.14590  0.73460  1.0000 0.5535232283
C   C69       1.0  0.45600  0.10570  0.83590  1.0000 -0.037393147
C   C70       1.0  0.54400  0.60570  0.66410  1.0000 -0.037393147
C   C71       1.0  0.54400  0.89430  0.16410  1.0000 -0.037393147
C   C72       1.0  0.45600  0.39430  0.33590  1.0000 -0.037393147
C   C73       1.0  0.52840  0.07590  0.82460  1.0000 0.3333167193
C   C74       1.0  0.47160  0.57590  0.67540  1.0000 0.3333167193
C   C75       1.0  0.47160  0.92410  0.17540  1.0000 0.3333167193
C   C76       1.0  0.52840  0.42410  0.32460  1.0000 0.3333167193
C   C77       1.0  0.57200  0.03320  0.93890  1.0000 0.2337978242
C   C78       1.0  0.42800  0.53320  0.56110  1.0000 0.2337978242
C   C79       1.0  0.42800  0.96680  0.06110  1.0000 0.2337978242
C   C80       1.0  0.57200  0.46680  0.43890  1.0000 0.2356881706
C   C81       1.0  0.44390  0.12720  0.72370  1.0000 0.1970192065
C   C82       1.0  0.55610  0.62720  0.77630  1.0000 0.1970192065
C   C83       1.0  0.55610  0.87280  0.27630  1.0000 0.1970192065
C   C84       1.0  0.44390  0.37280  0.22370  1.0000 0.1970192065
C   C85       1.0  0.45080  0.09820  0.90810  1.0000 0.4064004255
C   C86       1.0  0.54920  0.59820  0.59190  1.0000 0.4064004255
C   C87       1.0  0.54920  0.90180  0.09190  1.0000 0.4064004255
C   C88       1.0  0.45080  0.40180  0.40810  1.0000 0.4064004255
C   C89       1.0  0.37250  0.05020  0.27300  1.0000 0.5936949609
C   C90       1.0  0.62750  0.55020  0.22700  1.0000 0.5936949609
C   C91       1.0  0.62750  0.94980  0.72700  1.0000 0.5936949609
C   C92       1.0  0.37250  0.44980  0.77300  1.0000 0.5936949609
N   N1        1.0  0.52100  0.09050  0.75310  1.0000 -0.3884819309
N   N2        1.0  0.47900  0.59050  0.74690  1.0000 -0.3884819309
N   N3        1.0  0.47900  0.90950  0.24690  1.0000 -0.3884819309
N   N4        1.0  0.52100  0.40950  0.25310  1.0000 -0.3884819309
N   N5        1.0  0.58960  0.03930  0.87560  1.0000 -0.3829467895
N   N6        1.0  0.41040  0.53930  0.62440  1.0000 -0.3829467895
N   N7        1.0  0.41040  0.96070  0.12440  1.0000 -0.3829467895
N   N8        1.0  0.58960  0.46070  0.37560  1.0000 -0.3829467895
N   N9        1.0  0.40220  0.13860  0.77090  1.0000 -0.3291346373
N   N10       1.0  0.59780  0.63860  0.72910  1.0000 -0.3291346373
N   N11       1.0  0.59780  0.86140  0.22910  1.0000 -0.3291346373
N   N12       1.0  0.40220  0.36140  0.27090  1.0000 -0.3291346373
N   N13       1.0  0.39260  0.12610  0.92920  1.0000 -0.4696963298
N   N14       1.0  0.60740  0.62610  0.57080  1.0000 -0.4696963298
N   N15       1.0  0.60740  0.87390  0.07080  1.0000 -0.4696963298
N   N16       1.0  0.39260  0.37390  0.42920  1.0000 -0.4696963298
N   N17       1.0  0.50730  0.05910  0.95640  1.0000 -0.3884819309
N   N18       1.0  0.49270  0.55910  0.54360  1.0000 -0.3884819309
N   N19       1.0  0.49270  0.94090  0.04360  1.0000 -0.3884819309
N   N20       1.0  0.50730  0.44090  0.45640  1.0000 -0.3884819309
O   O1        1.0  0.51090  0.07070  0.57300  1.0000 -0.5097613927
O   O2        1.0  0.48910  0.57070  0.92700  1.0000 -0.5097613927
O   O3        1.0  0.48910  0.92930  0.42700  1.0000 -0.5097613927
O   O4        1.0  0.51090  0.42930  0.07300  1.0000 -0.5097613927
O   O5        1.0  0.28940  0.24519  0.24300  1.0000 -0.5401886309
O   O6        1.0  0.71060  0.74519  0.25700  1.0000 -0.5401886309
O   O7        1.0  0.71060  0.75481  0.75700  1.0000 -0.5401886309
O   O8        1.0  0.28940  0.25481  0.74300  1.0000 -0.5401886309
O   O9        1.0  0.27860  0.43510  0.51620  1.0000 -0.5401886309
O   O10       1.0  0.72140  0.93510  0.98380  1.0000 -0.5401886309
O   O11       1.0  0.72140  0.56490  0.48380  1.0000 -0.5401886309
O   O12       1.0  0.27860  0.06490  0.01620  1.0000 -0.5401886309
O   O13       1.0  0.17910  0.35840  0.25590  1.0000 -0.5401886309
O   O14       1.0  0.82090  0.85840  0.24410  1.0000 -0.5401886309
O   O15       1.0  0.82090  0.64160  0.74410  1.0000 -0.5401886309
O   O16       1.0  0.17910  0.14160  0.75590  1.0000 -0.5401886309
O   O17       1.0  0.73340  0.41710  0.22070  1.0000 -0.5097613927
O   O18       1.0  0.26660  0.91710  0.27930  1.0000 -0.5036697255
O   O19       1.0  0.26660  0.58290  0.77930  1.0000 -0.5097613927
O   O20       1.0  0.73340  0.08290  0.72070  1.0000 -0.5097613927
O   O21       1.0  0.33910  0.27290  0.36660  1.0000 -0.5208926143
O   O22       1.0  0.66090  0.77290  0.13340  1.0000 -0.5208926143
O   O23       1.0  0.66090  0.72710  0.63340  1.0000 -0.5208926143
O   O24       1.0  0.33910  0.22710  0.86660  1.0000 -0.5208926143
O   O25       1.0  0.51670  0.15410  0.59730  1.0000 -0.5036697255
O   O26       1.0  0.48330  0.65410  0.90270  1.0000 -0.5036697255
O   O27       1.0  0.48330  0.84590  0.40270  1.0000 -0.5036697255
O   O28       1.0  0.51670  0.34590  0.09730  1.0000 -0.4928096118
O   O29       1.0  0.77940  0.44500  0.34310  1.0000 -0.5603643896
O   O30       1.0  0.22060  0.94500  0.15690  1.0000 -0.5603643896
O   O31       1.0  0.22060  0.55500  0.65690  1.0000 -0.5603643896
O   O32       1.0  0.77940  0.05500  0.84310  1.0000 -0.5603643896
O   O33       1.0  0.16280  0.48420  0.52560  1.0000 -0.4928096118
O   O34       1.0  0.83720  0.98420  0.97440  1.0000 -0.4928096118
O   O35       1.0  0.83720  0.51580  0.47440  1.0000 -0.4928096118
O   O36       1.0  0.16280  0.01580  0.02560  1.0000 -0.4928096118
O   O37       1.0  0.02000  0.32890  0.18050  1.0000 -0.3884819309
O   O38       1.0  0.98000  0.82890  0.31950  1.0000 -0.3884819309
O   O39       1.0  0.98000  0.67110  0.81950  1.0000 -0.3884819309
O   O40       1.0  0.02000  0.17110  0.68050  1.0000 -0.3829467895
O   O41       1.0  0.31660  0.05660  0.19890  1.0000 -0.5097613927
O   O42       1.0  0.68340  0.55660  0.30110  1.0000 -0.5097613927
O   O43       1.0  0.68340  0.94340  0.80110  1.0000 -0.5097613927
O   O44       1.0  0.31660  0.44340  0.69890  1.0000 -0.5097613927
O   O45       1.0  0.42070  0.01000  0.30490  1.0000 -0.5401886309
O   O46       1.0  0.57930  0.51000  0.19510  1.0000 -0.5401886309
O   O47       1.0  0.57930  0.99000  0.69510  1.0000 -0.5401886309
O   O48       1.0  0.42070  0.49000  0.80490  1.0000 -0.5401886309
