# DDEC6 charges by PACMAN v1.1 (https://github.com/mtap-research/PACMAN-charge/)
data_2015[Cu][lvt]3[ASR]1
_chemical_formula_sum              "Cu4 H20 C36 O16"
_cell_length_a       15.3874
_cell_length_b       15.3874
_cell_length_c       15.3874
_cell_angle_alpha    142.052
_cell_angle_beta     104.57
_cell_angle_gamma    87.7005

_symmetry_space_group_name_H-M    "P 1"
_symmetry_Int_Tables_number       1

loop_
  _symmetry_equiv_pos_as_xyz
  'x, y, z'

loop_
  _atom_site_type_symbol
  _atom_site_label
  _atom_site_symmetry_multiplicity
  _atom_site_fract_x
  _atom_site_fract_y
  _atom_site_fract_z
  _atom_site_occupancy
  _atom_site_charge
Cu  Cu1       1.0  0.54546  0.40013  0.44559  1.0000 0.8564599505
Cu  Cu2       1.0  0.95454  0.40013  0.85467  1.0000 0.8564599505
Cu  Cu3       1.0  0.45454  0.59987  0.55441  1.0000 0.8564599505
Cu  Cu4       1.0  0.04546  0.59987  0.14533  1.0000 0.8564599505
H   H1        1.0  0.56040  0.39790  0.15690  1.0000 0.1378342821
H   H2        1.0  0.93960  0.09650  0.83750  1.0000 0.1378342821
H   H3        1.0  0.74100  0.90350  0.84310  1.0000 0.1378342821
H   H4        1.0  0.75900  0.60210  0.16250  1.0000 0.1378342821
H   H5        1.0  0.43960  0.60210  0.84310  1.0000 0.1378342821
H   H6        1.0  0.06040  0.90350  0.16250  1.0000 0.1378342821
H   H7        1.0  0.25900  0.09650  0.15690  1.0000 0.1378342821
H   H8        1.0  0.24100  0.39790  0.83750  1.0000 0.1378342821
H   H9        1.0  0.43870  0.57250  0.24900  1.0000 0.1218265234
H   H10       1.0  0.06130  0.31030  0.13380  1.0000 0.1218265234
H   H11       1.0  0.82350  0.68970  0.75100  1.0000 0.1218265234
H   H12       1.0  0.67650  0.42750  0.86620  1.0000 0.1218265234
H   H13       1.0  0.56130  0.42750  0.75100  1.0000 0.1218265234
H   H14       1.0  0.93870  0.68970  0.86620  1.0000 0.1218265234
H   H15       1.0  0.17650  0.31030  0.24900  1.0000 0.1218265234
H   H16       1.0  0.32350  0.57250  0.13380  1.0000 0.1218265234
H   H17       1.0  0.62160  0.50000  0.12160  1.0000 0.1135808131
H   H18       1.0  0.87840  0.00000  0.87840  1.0000 0.1135808131
H   H19       1.0  0.37840  0.50000  0.87840  1.0000 0.1135808131
H   H20       1.0  0.12160  0.00000  0.12160  1.0000 0.1135808131
C   C1        1.0  0.50947  0.46947  0.31700  1.0000 0.632267592
C   C2        1.0  0.99053  0.30753  0.96000  1.0000 0.632267592
C   C3        1.0  0.65247  0.69247  0.68300  1.0000 0.632267592
C   C4        1.0  0.84753  0.53053  0.04000  1.0000 0.632267592
C   C5        1.0  0.49053  0.53053  0.68300  1.0000 0.632267592
C   C6        1.0  0.00947  0.69247  0.04000  1.0000 0.632267592
C   C7        1.0  0.34753  0.30753  0.31700  1.0000 0.632267592
C   C8        1.0  0.15247  0.46947  0.96000  1.0000 0.632267592
C   C9        1.0  0.52184  0.45364  0.21140  1.0000 -0.2077921318
C   C10       1.0  0.97816  0.18956  0.93180  1.0000 -0.2077921318
C   C11       1.0  0.74224  0.81044  0.78860  1.0000 -0.2077921318
C   C12       1.0  0.75776  0.54636  0.06820  1.0000 -0.2077921318
C   C13       1.0  0.47816  0.54636  0.78860  1.0000 -0.2077921318
C   C14       1.0  0.02184  0.81044  0.06820  1.0000 -0.2077921318
C   C15       1.0  0.25776  0.18956  0.21140  1.0000 -0.2077921318
C   C16       1.0  0.24224  0.45364  0.93180  1.0000 -0.2077921318
C   C17       1.0  0.47794  0.51904  0.19510  1.0000 -0.0895805233
C   C18       1.0  0.02206  0.21716  0.04110  1.0000 -0.0895805233
C   C19       1.0  0.82394  0.78284  0.80490  1.0000 -0.0895805233
C   C20       1.0  0.67606  0.48096  0.95890  1.0000 -0.0895805233
C   C21       1.0  0.52206  0.48096  0.80490  1.0000 -0.0895805233
C   C22       1.0  0.97794  0.78284  0.95890  1.0000 -0.0895805233
C   C23       1.0  0.17606  0.21716  0.19510  1.0000 -0.0895805233
C   C24       1.0  0.32394  0.51904  0.04110  1.0000 -0.0895805233
C   C25       1.0  0.48857  0.51107  0.09530  1.0000 0.0555304886
C   C26       1.0  0.01143  0.10673  0.02250  1.0000 0.0544929853
C   C27       1.0  0.91577  0.89327  0.90470  1.0000 0.0555304886
C   C28       1.0  0.58423  0.48893  0.97750  1.0000 0.0555304886
C   C29       1.0  0.51143  0.48893  0.90470  1.0000 0.0555304886
C   C30       1.0  0.98857  0.89327  0.97750  1.0000 0.0555304886
C   C31       1.0  0.08423  0.10673  0.09530  1.0000 0.0544929853
C   C32       1.0  0.41577  0.51107  0.02250  1.0000 0.0555304886
C   C33       1.0  0.57220  0.50000  0.07220  1.0000 -0.1817480498
C   C34       1.0  0.92780  0.00000  0.92780  1.0000 -0.1817480498
C   C35       1.0  0.42780  0.50000  0.92780  1.0000 -0.1817480498
C   C36       1.0  0.07220  0.00000  0.07220  1.0000 -0.1817480498
O   O1        1.0  0.46807  0.55736  0.40171  1.0000 -0.4994351366
O   O2        1.0  0.03193  0.43364  0.08929  1.0000 -0.4994351366
O   O3        1.0  0.65565  0.56636  0.59829  1.0000 -0.4994351366
O   O4        1.0  0.84435  0.44264  0.91071  1.0000 -0.4994351366
O   O5        1.0  0.53193  0.44264  0.59829  1.0000 -0.4994351366
O   O6        1.0  0.96807  0.56636  0.91071  1.0000 -0.4994351366
O   O7        1.0  0.34435  0.43364  0.40171  1.0000 -0.4994351366
O   O8        1.0  0.15565  0.55736  0.08929  1.0000 -0.4994351366
O   O9        1.0  0.54706  0.39024  0.31142  1.0000 -0.5452537784
O   O10       1.0  0.95294  0.26436  0.84318  1.0000 -0.5438223728
O   O11       1.0  0.57882  0.73564  0.68858  1.0000 -0.5452537784
O   O12       1.0  0.92118  0.60976  0.15682  1.0000 -0.5438223728
O   O13       1.0  0.45294  0.60976  0.68858  1.0000 -0.5452537784
O   O14       1.0  0.04706  0.73564  0.15682  1.0000 -0.5438223728
O   O15       1.0  0.42118  0.26436  0.31142  1.0000 -0.5452537784
O   O16       1.0  0.07882  0.39024  0.84318  1.0000 -0.5438223728
