# DDEC6 charges by PACMAN v1.1 (https://github.com/mtap-research/PACMAN-charge/)
data_2015[U][nan]3[ASR]7
_chemical_formula_sum              "U4 P4 H48 C84 O28"
_cell_length_a       19.3762
_cell_length_b       19.3762
_cell_length_c       19.3762
_cell_angle_alpha    119.399
_cell_angle_beta     111.185
_cell_angle_gamma    98.4959

_symmetry_space_group_name_H-M    "P 1"
_symmetry_Int_Tables_number       1

loop_
  _symmetry_equiv_pos_as_xyz
  'x, y, z'

loop_
  _atom_site_type_symbol
  _atom_site_label
  _atom_site_symmetry_multiplicity
  _atom_site_fract_x
  _atom_site_fract_y
  _atom_site_fract_z
  _atom_site_occupancy
  _atom_site_charge
U   U1        1.0  0.51282  0.12877  0.97897  1.0000 2.090124197
U   U2        1.0  0.64980  0.53385  0.52103  1.0000 2.090124197
U   U3        1.0  0.85020  0.37123  0.88405  1.0000 2.090124197
U   U4        1.0  0.98718  0.96615  0.61595  1.0000 2.090124197
P   P1        1.0  0.54469  0.06769  0.50980  1.0000 0.863494001
P   P2        1.0  0.05789  0.03489  0.99020  1.0000 0.863494001
P   P3        1.0  0.44211  0.43231  0.97700  1.0000 0.863494001
P   P4        1.0  0.95531  0.46511  0.52300  1.0000 0.863494001
H   H1        1.0  0.41420  0.02600  0.54000  1.0000 0.1202683259
H   H2        1.0  0.98600  0.87420  0.96000  1.0000 0.1202683259
H   H3        1.0  0.51400  0.47400  0.88820  1.0000 0.1202683259
H   H4        1.0  0.08580  0.62580  0.61180  1.0000 0.1202683259
H   H5        1.0  0.49990  0.24180  0.40430  1.0000 0.1353856769
H   H6        1.0  0.33750  0.09560  0.09570  1.0000 0.1353856769
H   H7        1.0  0.16250  0.25820  0.75810  1.0000 0.1353856769
H   H8        1.0  0.00010  0.40440  0.74190  1.0000 0.1353856769
H   H9        1.0  0.47490  0.12290  0.40060  1.0000 0.1202683259
H   H10       1.0  0.22230  0.07430  0.09940  1.0000 0.1202683259
H   H11       1.0  0.27770  0.37710  0.85200  1.0000 0.1202683259
H   H12       1.0  0.02510  0.42570  0.64800  1.0000 0.1202683259
H   H13       1.0  0.65400  0.24650  0.65310  1.0000 0.0998775906
H   H14       1.0  0.09340  0.00090  0.84690  1.0000 0.0998775906
H   H15       1.0  0.40660  0.25350  0.90750  1.0000 0.0998775906
H   H16       1.0  0.84600  0.49910  0.59250  1.0000 0.0998775906
H   H17       1.0  0.67270  0.37710  0.66760  1.0000 0.1202683259
H   H18       1.0  0.20950  0.00510  0.83240  1.0000 0.1202683259
H   H19       1.0  0.29050  0.12290  0.79560  1.0000 0.1202683259
H   H20       1.0  0.82730  0.49490  0.70440  1.0000 0.1202683259
H   H21       1.0  0.40660  0.04160  0.65940  1.0000 0.1202683259
H   H22       1.0  0.88220  0.74720  0.84060  1.0000 0.1202683259
H   H23       1.0  0.61780  0.45840  0.86500  1.0000 0.1202683259
H   H24       1.0  0.09340  0.75280  0.63500  1.0000 0.1202683259
H   H25       1.0  0.66010  0.15980  0.71090  1.0000 0.0998775906
H   H26       1.0  0.94890  0.94920  0.78910  1.0000 0.0998775906
H   H27       1.0  0.55110  0.34020  0.00030  1.0000 0.0998775906
H   H28       1.0  0.83990  0.55080  0.49970  1.0000 0.0998775906
H   H29       1.0  0.64620  0.17500  0.82480  1.0000 0.1264528555
H   H30       1.0  0.85020  0.82140  0.67520  1.0000 0.1264528555
H   H31       1.0  0.64980  0.32500  0.97120  1.0000 0.1264528555
H   H32       1.0  0.85380  0.67860  0.52880  1.0000 0.1264528555
H   H33       1.0  0.69470  0.89310  0.48780  1.0000 0.1202683259
H   H34       1.0  0.90530  0.20690  0.01220  1.0000 0.1202683259
H   H35       1.0  0.59470  0.60690  0.30160  1.0000 0.1202683259
H   H36       1.0  0.80530  0.29310  0.19840  1.0000 0.1202683259
H   H37       1.0  0.58040  0.92840  0.45100  1.0000 0.1202683259
H   H38       1.0  0.97740  0.12940  0.04900  1.0000 0.1202683259
H   H39       1.0  0.52260  0.57160  0.15200  1.0000 0.1202683259
H   H40       1.0  0.91960  0.37060  0.34800  1.0000 0.1202683259
H   H41       1.0  0.71610  0.16770  0.57200  1.0000 0.0998775906
H   H42       1.0  0.09570  0.14410  0.92800  1.0000 0.0998775906
H   H43       1.0  0.40430  0.33230  0.04840  1.0000 0.0998775906
H   H44       1.0  0.78390  0.35590  0.45160  1.0000 0.0998775906
H   H45       1.0  0.82820  0.13460  0.61180  1.0000 0.1202683259
H   H46       1.0  0.02280  0.21640  0.88820  1.0000 0.1202683259
H   H47       1.0  0.47720  0.36540  0.19360  1.0000 0.1202683259
H   H48       1.0  0.67180  0.28360  0.30640  1.0000 0.1202683259
C   C1        1.0  0.46110  0.05410  0.59640  1.0000 -0.0904713223
C   C2        1.0  0.95770  0.86470  0.90360  1.0000 -0.0904713223
C   C3        1.0  0.54230  0.44590  0.90700  1.0000 -0.0904713223
C   C4        1.0  0.03890  0.63530  0.59300  1.0000 -0.0904713223
C   C5        1.0  0.53180  0.24470  0.45570  1.0000 -0.0954517924
C   C6        1.0  0.28900  0.07610  0.04430  1.0000 -0.0954517924
C   C7        1.0  0.21100  0.25530  0.78710  1.0000 -0.0954517924
C   C8        1.0  0.96820  0.42390  0.71290  1.0000 -0.0904713223
C   C9        1.0  0.56450  0.17240  0.52670  1.0000 -0.1313051063
C   C10       1.0  0.14570  0.03780  0.97330  1.0000 -0.1313051063
C   C11       1.0  0.35430  0.32760  0.89210  1.0000 -0.1313051063
C   C12       1.0  0.93550  0.46220  0.60790  1.0000 -0.1313051063
C   C13       1.0  0.51780  0.17370  0.45350  1.0000 -0.0904713223
C   C14       1.0  0.22020  0.06430  0.04650  1.0000 -0.0904713223
C   C15       1.0  0.27980  0.32630  0.84410  1.0000 -0.0904713223
C   C16       1.0  0.98220  0.43570  0.65590  1.0000 -0.0954517924
C   C17       1.0  0.62210  0.24610  0.60360  1.0000 -0.1234809723
C   C18       1.0  0.14250  0.01850  0.89640  1.0000 -0.1234809723
C   C19       1.0  0.35750  0.25390  0.87600  1.0000 -0.1234809723
C   C20       1.0  0.87790  0.48150  0.62400  1.0000 -0.1234809723
C   C21       1.0  0.63590  0.32390  0.61220  1.0000 -0.0701957544
C   C22       1.0  0.21170  0.02370  0.88780  1.0000 -0.0701957544
C   C23       1.0  0.28830  0.17610  0.81200  1.0000 -0.0701957544
C   C24       1.0  0.86410  0.47630  0.68800  1.0000 -0.0701957544
C   C25       1.0  0.52290  0.11530  0.82300  1.0000 0.4634371322
C   C26       1.0  0.79230  0.69990  0.67700  1.0000 0.4634371322
C   C27       1.0  0.70770  0.38470  0.90760  1.0000 0.4634371322
C   C28       1.0  0.97710  0.80010  0.59240  1.0000 0.4634371322
C   C29       1.0  0.45650  0.06340  0.66610  1.0000 -0.0904713223
C   C30       1.0  0.89730  0.79040  0.83390  1.0000 -0.0954517924
C   C31       1.0  0.60270  0.43660  0.89310  1.0000 -0.0904713223
C   C32       1.0  0.04350  0.70960  0.60690  1.0000 -0.0954517924
C   C33       1.0  0.60890  0.13510  0.69980  1.0000 -0.1413655043
C   C34       1.0  0.93530  0.90910  0.80020  1.0000 -0.1413655043
C   C35       1.0  0.56470  0.36490  0.97380  1.0000 -0.1413655043
C   C36       1.0  0.89110  0.59090  0.52620  1.0000 -0.1413655043
C   C37       1.0  0.53940  0.08760  0.60640  1.0000 -0.2009044144
C   C38       1.0  0.98120  0.93300  0.89360  1.0000 -0.2009044144
C   C39       1.0  0.51880  0.41240  0.95180  1.0000 -0.2009044144
C   C40       1.0  0.96060  0.56700  0.54820  1.0000 -0.2009044144
C   C41       1.0  0.52790  0.10670  0.75100  1.0000 -0.0701957544
C   C42       1.0  0.85570  0.77690  0.74900  1.0000 -0.0701957544
C   C43       1.0  0.64430  0.39330  0.92120  1.0000 -0.0701957544
C   C44       1.0  0.97210  0.72310  0.57880  1.0000 -0.0701957544
C   C45       1.0  0.60120  0.14360  0.76640  1.0000 -0.0904713223
C   C46       1.0  0.87720  0.83480  0.73360  1.0000 -0.0904713223
C   C47       1.0  0.62280  0.35640  0.95760  1.0000 -0.0904713223
C   C48       1.0  0.89880  0.66520  0.54240  1.0000 -0.0904713223
C   C49       1.0  0.63090  0.04780  0.51850  1.0000 -0.1540501866
C   C50       1.0  0.02930  0.11240  0.98150  1.0000 -0.1540501866
C   C51       1.0  0.47070  0.45220  0.08310  1.0000 -0.1540501866
C   C52       1.0  0.86910  0.38760  0.41690  1.0000 -0.1540501866
C   C53       1.0  0.58820  0.31570  0.52730  1.0000 -0.0547731969
C   C54       1.0  0.28840  0.06090  0.97270  1.0000 -0.0547731969
C   C55       1.0  0.21160  0.18430  0.77250  1.0000 -0.0547731969
C   C56       1.0  0.91180  0.43910  0.72750  1.0000 -0.0547731969
C   C57       1.0  0.76660  0.00380  0.53520  1.0000 -0.0439857099
C   C58       1.0  0.96860  0.23140  0.96480  1.0000 -0.0439857099
C   C59       1.0  0.53140  0.49620  0.26280  1.0000 -0.0439857099
C   C60       1.0  0.73340  0.26860  0.23720  1.0000 -0.0439857099
C   C61       1.0  0.83930  0.98950  0.55260  1.0000 0.5284325849
C   C62       1.0  0.93690  0.28670  0.94740  1.0000 0.5284325849
C   C63       1.0  0.56310  0.51050  0.34980  1.0000 0.5284325849
C   C64       1.0  0.66070  0.21330  0.15020  1.0000 0.5284325849
C   C65       1.0  0.70030  0.94790  0.50240  1.0000 -0.0701957544
C   C66       1.0  0.94550  0.19790  0.99760  1.0000 -0.0701957544
C   C67       1.0  0.55450  0.55210  0.25240  1.0000 -0.0701957544
C   C68       1.0  0.79970  0.30210  0.24760  1.0000 -0.0701957544
C   C69       1.0  0.63120  0.97360  0.48800  1.0000 -0.0768447199
C   C70       1.0  0.98560  0.14320  0.01200  1.0000 -0.0701957544
C   C71       1.0  0.51440  0.52640  0.15760  1.0000 -0.0768447199
C   C72       1.0  0.86880  0.35680  0.34240  1.0000 -0.0768447199
C   C73       1.0  0.71050  0.11330  0.55820  1.0000 -0.1413655043
C   C74       1.0  0.05510  0.15230  0.94180  1.0000 -0.1413655043
C   C75       1.0  0.44490  0.38670  0.09720  1.0000 -0.1413655043
C   C76       1.0  0.78950  0.34770  0.40280  1.0000 -0.1413655043
C   C77       1.0  0.77650  0.09140  0.57450  1.0000 -0.111368826
C   C78       1.0  0.01690  0.20200  0.92550  1.0000 -0.111368826
C   C79       1.0  0.48310  0.40860  0.18510  1.0000 -0.111368826
C   C80       1.0  0.72350  0.29800  0.31490  1.0000 -0.111368826
C   C81       1.0  0.60760  0.39630  0.53550  1.0000 0.5221510303
C   C82       1.0  0.36080  0.07210  0.96450  1.0000 0.5221510303
C   C83       1.0  0.13920  0.10370  0.71130  1.0000 0.5221510303
C   C84       1.0  0.89240  0.42790  0.78870  1.0000 0.5221510303
O   O1        1.0  0.45400  0.09210  0.82390  1.0000 -0.6082303751
O   O2        1.0  0.76820  0.63010  0.67610  1.0000 -0.6082303751
O   O3        1.0  0.73180  0.40790  0.86190  1.0000 -0.6082303751
O   O4        1.0  0.04600  0.86990  0.63810  1.0000 -0.6082303751
O   O5        1.0  0.58260  0.15270  0.90410  1.0000 -0.5602012206
O   O6        1.0  0.74860  0.67850  0.59590  1.0000 -0.5602012206
O   O7        1.0  0.75140  0.34730  0.92990  1.0000 -0.5602012206
O   O8        1.0  0.91740  0.82150  0.57010  1.0000 -0.5602012206
O   O9        1.0  0.46870  0.99620  0.42050  1.0000 -0.6214995313
O   O10       1.0  0.07570  0.04820  0.07950  1.0000 -0.6214995313
O   O11       1.0  0.42430  0.50380  0.97250  1.0000 -0.6214995313
O   O12       1.0  0.03130  0.45180  0.52750  1.0000 -0.6214995313
O   O13       1.0  0.83950  0.91530  0.53420  1.0000 -0.5958727527
O   O14       1.0  0.88110  0.30530  0.96580  1.0000 -0.5906975497
O   O15       1.0  0.61890  0.58470  0.42420  1.0000 -0.5958727527
O   O16       1.0  0.66050  0.19470  0.07580  1.0000 -0.5906975497
O   O17       1.0  0.90810  0.04540  0.58510  1.0000 -0.5906975497
O   O18       1.0  0.96030  0.32300  0.91490  1.0000 -0.5906975497
O   O19       1.0  0.53970  0.45460  0.36270  1.0000 -0.5906975497
O   O20       1.0  0.59190  0.17700  0.13730  1.0000 -0.5906975497
O   O21       1.0  0.66570  0.46690  0.60140  1.0000 -0.5371197391
O   O22       1.0  0.36550  0.06430  0.89860  1.0000 -0.5371197391
O   O23       1.0  0.13450  0.03310  0.69880  1.0000 -0.5371197391
O   O24       1.0  0.83430  0.43570  0.80120  1.0000 -0.5371197391
O   O25       1.0  0.56620  0.39420  0.47040  1.0000 -0.5117584843
O   O26       1.0  0.42380  0.09580  0.02960  1.0000 -0.5117584843
O   O27       1.0  0.07620  0.10580  0.67200  1.0000 -0.5117584843
O   O28       1.0  0.93380  0.40420  0.82800  1.0000 -0.5117584843
