# DDEC6 charges by PACMAN v1.1 (https://github.com/mtap-research/PACMAN-charge/)
data_2015[Sc][nan]3[ASR]4
_chemical_formula_sum              "Sc8 H48 C96 O48"
_cell_length_a       8.887
_cell_length_b       32.456
_cell_length_c       10.6584
_cell_angle_alpha    90
_cell_angle_beta     112.051
_cell_angle_gamma    90

_symmetry_space_group_name_H-M    "P 1"
_symmetry_Int_Tables_number       1

loop_
  _symmetry_equiv_pos_as_xyz
  'x, y, z'

loop_
  _atom_site_type_symbol
  _atom_site_label
  _atom_site_symmetry_multiplicity
  _atom_site_fract_x
  _atom_site_fract_y
  _atom_site_fract_z
  _atom_site_occupancy
  _atom_site_charge
Sc  Sc1       1.0  0.73010  0.38563  0.74460  1.0000 1.815136409
Sc  Sc2       1.0  0.26990  0.88563  0.75540  1.0000 1.815136409
Sc  Sc3       1.0  0.26990  0.61437  0.25540  1.0000 1.8085705601
Sc  Sc4       1.0  0.73010  0.11437  0.24460  1.0000 1.8085705601
Sc  Sc5       1.0  0.22810  0.36260  0.74440  1.0000 1.8085705601
Sc  Sc6       1.0  0.77190  0.86260  0.75560  1.0000 1.8085705601
Sc  Sc7       1.0  0.77190  0.63740  0.25560  1.0000 1.8085705601
Sc  Sc8       1.0  0.22810  0.13740  0.24440  1.0000 1.8085705601
H   H1        1.0  0.95310  0.38610  0.15750  1.0000 0.1212694801
H   H2        1.0  0.04690  0.88610  0.34250  1.0000 0.1212694801
H   H3        1.0  0.04690  0.61390  0.84250  1.0000 0.1212694801
H   H4        1.0  0.95310  0.11390  0.65750  1.0000 0.1212694801
H   H5        1.0  0.08030  0.36960  0.38500  1.0000 0.1275434127
H   H6        1.0  0.91970  0.86960  0.11500  1.0000 0.1275434127
H   H7        1.0  0.91970  0.63040  0.61500  1.0000 0.1275434127
H   H8        1.0  0.08030  0.13040  0.88500  1.0000 0.1275434127
H   H9        1.0  0.50530  0.35780  0.33640  1.0000 0.1275434127
H   H10       1.0  0.49470  0.85780  0.16360  1.0000 0.1275434127
H   H11       1.0  0.49470  0.64220  0.66360  1.0000 0.1275434127
H   H12       1.0  0.50530  0.14220  0.83640  1.0000 0.1275434127
H   H13       1.0  0.37810  0.37430  0.10900  1.0000 0.1212694801
H   H14       1.0  0.62190  0.87430  0.39100  1.0000 0.1212694801
H   H15       1.0  0.62190  0.62570  0.89100  1.0000 0.1212694801
H   H16       1.0  0.37810  0.12570  0.60900  1.0000 0.1212694801
H   H17       1.0  0.03590  0.25910  0.12710  1.0000 0.1275434127
H   H18       1.0  0.96410  0.75910  0.37290  1.0000 0.1275434127
H   H19       1.0  0.96410  0.74090  0.87290  1.0000 0.1275434127
H   H20       1.0  0.03590  0.24090  0.62710  1.0000 0.1275434127
H   H21       1.0  0.89210  0.31510  0.00540  1.0000 0.1212694801
H   H22       1.0  0.10790  0.81510  0.49460  1.0000 0.1212694801
H   H23       1.0  0.10790  0.68490  0.99460  1.0000 0.1212694801
H   H24       1.0  0.89210  0.18490  0.50540  1.0000 0.1212694801
H   H25       1.0  0.48150  0.26920  0.02470  1.0000 0.1275434127
H   H26       1.0  0.51850  0.76920  0.47530  1.0000 0.1275434127
H   H27       1.0  0.51850  0.73080  0.97530  1.0000 0.1275434127
H   H28       1.0  0.48150  0.23080  0.52470  1.0000 0.1275434127
H   H29       1.0  0.62530  0.21310  0.14640  1.0000 0.1212694801
H   H30       1.0  0.37470  0.71310  0.35360  1.0000 0.1212694801
H   H31       1.0  0.37470  0.78690  0.85360  1.0000 0.1212694801
H   H32       1.0  0.62530  0.28690  0.64640  1.0000 0.1212694801
H   H33       1.0  0.75910  0.48800  0.53450  1.0000 0.1275434127
H   H34       1.0  0.24090  0.98800  0.96550  1.0000 0.1275434127
H   H35       1.0  0.24090  0.51200  0.46550  1.0000 0.1275434127
H   H36       1.0  0.75910  0.01200  0.03450  1.0000 0.1275434127
H   H37       1.0  0.81470  0.55410  0.47710  1.0000 0.1212694801
H   H38       1.0  0.18530  0.05410  0.02290  1.0000 0.1212694801
H   H39       1.0  0.18530  0.44590  0.52290  1.0000 0.1212694801
H   H40       1.0  0.81470  0.94590  0.97710  1.0000 0.1212694801
H   H41       1.0  0.28260  0.45650  0.91610  1.0000 0.1212694801
H   H42       1.0  0.71740  0.95650  0.58390  1.0000 0.1212694801
H   H43       1.0  0.71740  0.54350  0.08390  1.0000 0.1212694801
H   H44       1.0  0.28260  0.04350  0.41610  1.0000 0.1275434127
H   H45       1.0  0.29690  0.49940  0.09770  1.0000 0.1275434127
H   H46       1.0  0.70310  0.99940  0.40230  1.0000 0.1275434127
H   H47       1.0  0.70310  0.50060  0.90230  1.0000 0.1275434127
H   H48       1.0  0.29690  0.00060  0.59770  1.0000 0.1275434127
C   C1        1.0  0.56000  0.33120  0.91900  1.0000 0.6220574143
C   C2        1.0  0.44000  0.83120  0.58100  1.0000 0.6220574143
C   C3        1.0  0.44000  0.66880  0.08100  1.0000 0.6220574143
C   C4        1.0  0.56000  0.16880  0.41900  1.0000 0.6220574143
C   C5        1.0  0.48900  0.44030  0.79800  1.0000 0.6476754946
C   C6        1.0  0.51100  0.94030  0.70200  1.0000 0.6476754946
C   C7        1.0  0.51100  0.55970  0.20200  1.0000 0.6476754946
C   C8        1.0  0.48900  0.05970  0.29800  1.0000 0.6476754946
C   C9        1.0  0.38900  0.35500  0.53100  1.0000 0.6476754946
C   C10       1.0  0.61100  0.85500  0.96900  1.0000 0.6476754946
C   C11       1.0  0.61100  0.64500  0.46900  1.0000 0.6476754946
C   C12       1.0  0.38900  0.14500  0.03100  1.0000 0.6476754946
C   C13       1.0  0.06400  0.38040  0.19300  1.0000 -0.0988979227
C   C14       1.0  0.93600  0.88040  0.30700  1.0000 -0.0988979227
C   C15       1.0  0.93600  0.61960  0.80700  1.0000 -0.0988979227
C   C16       1.0  0.06400  0.11960  0.69300  1.0000 -0.0988979227
C   C17       1.0  0.14000  0.37050  0.33000  1.0000 -0.0988979227
C   C18       1.0  0.86000  0.87050  0.17000  1.0000 -0.0988979227
C   C19       1.0  0.86000  0.62950  0.67000  1.0000 -0.0988979227
C   C20       1.0  0.14000  0.12950  0.83000  1.0000 -0.0988979227
C   C21       1.0  0.30500  0.36210  0.38330  1.0000 -0.0394244968
C   C22       1.0  0.69500  0.86210  0.11670  1.0000 -0.0394244968
C   C23       1.0  0.69500  0.63790  0.61670  1.0000 -0.0394244968
C   C24       1.0  0.30500  0.13790  0.88330  1.0000 -0.0394244968
C   C25       1.0  0.39500  0.36350  0.30100  1.0000 -0.0988979227
C   C26       1.0  0.60500  0.86350  0.19900  1.0000 -0.0988979227
C   C27       1.0  0.60500  0.63650  0.69900  1.0000 -0.0988979227
C   C28       1.0  0.39500  0.13650  0.80100  1.0000 -0.0988979227
C   C29       1.0  0.31800  0.37330  0.16400  1.0000 -0.0988979227
C   C30       1.0  0.68200  0.87330  0.33600  1.0000 -0.0988979227
C   C31       1.0  0.68200  0.62670  0.83600  1.0000 -0.0988979227
C   C32       1.0  0.31800  0.12670  0.66400  1.0000 -0.0988979227
C   C33       1.0  0.15300  0.38180  0.11070  1.0000 -0.0394244968
C   C34       1.0  0.84700  0.88180  0.38930  1.0000 -0.0394244968
C   C35       1.0  0.84700  0.61820  0.88930  1.0000 -0.0394244968
C   C36       1.0  0.15300  0.11820  0.61070  1.0000 -0.0394244968
C   C37       1.0  0.07300  0.39060  0.96300  1.0000 0.6476754946
C   C38       1.0  0.92700  0.89060  0.53700  1.0000 0.6476754946
C   C39       1.0  0.92700  0.60940  0.03700  1.0000 0.6476754946
C   C40       1.0  0.07300  0.10940  0.46300  1.0000 0.6476754946
C   C41       1.0  0.84500  0.23050  0.14900  1.0000 -0.0287197519
C   C42       1.0  0.15500  0.73050  0.35100  1.0000 -0.0287197519
C   C43       1.0  0.15500  0.76950  0.85100  1.0000 -0.0287197519
C   C44       1.0  0.84500  0.26950  0.64900  1.0000 -0.0287197519
C   C45       1.0  0.92480  0.26110  0.10700  1.0000 -0.0988979227
C   C46       1.0  0.07520  0.76110  0.39300  1.0000 -0.0988979227
C   C47       1.0  0.07520  0.73890  0.89300  1.0000 -0.0988979227
C   C48       1.0  0.92480  0.23890  0.60700  1.0000 -0.0988979227
C   C49       1.0  0.83900  0.29470  0.03400  1.0000 -0.0988979227
C   C50       1.0  0.16100  0.79470  0.46600  1.0000 -0.0988979227
C   C51       1.0  0.16100  0.70530  0.96600  1.0000 -0.0988979227
C   C52       1.0  0.83900  0.20530  0.53400  1.0000 -0.0988979227
C   C53       1.0  0.67300  0.29770  0.00300  1.0000 -0.0166109003
C   C54       1.0  0.32700  0.79770  0.49700  1.0000 -0.0166109003
C   C55       1.0  0.32700  0.70230  0.99700  1.0000 -0.0166109003
C   C56       1.0  0.67300  0.20230  0.50300  1.0000 -0.0166109003
C   C57       1.0  0.59260  0.26710  0.04500  1.0000 -0.1120313617
C   C58       1.0  0.40740  0.76710  0.45500  1.0000 -0.1120313617
C   C59       1.0  0.40740  0.73290  0.95500  1.0000 -0.1120313617
C   C60       1.0  0.59260  0.23290  0.54500  1.0000 -0.1120313617
C   C61       1.0  0.67900  0.23360  0.11800  1.0000 -0.0909938825
C   C62       1.0  0.32100  0.73360  0.38200  1.0000 -0.0909938825
C   C63       1.0  0.32100  0.76640  0.88200  1.0000 -0.0909938825
C   C64       1.0  0.67900  0.26640  0.61800  1.0000 -0.0909938825
C   C65       1.0  0.94900  0.19370  0.21000  1.0000 0.6417760255
C   C66       1.0  0.05100  0.69370  0.29000  1.0000 0.6417760255
C   C67       1.0  0.05100  0.80630  0.79000  1.0000 0.6417760255
C   C68       1.0  0.94900  0.30630  0.71000  1.0000 0.6417760255
C   C69       1.0  0.49500  0.47110  0.90400  1.0000 -0.0394244968
C   C70       1.0  0.50500  0.97110  0.59600  1.0000 -0.0287197519
C   C71       1.0  0.50500  0.52890  0.09600  1.0000 -0.0287197519
C   C72       1.0  0.49500  0.02890  0.40400  1.0000 -0.0287197519
C   C73       1.0  0.97000  0.46140  0.54300  1.0000 -0.0287197519
C   C74       1.0  0.03000  0.96140  0.95700  1.0000 -0.0287197519
C   C75       1.0  0.03000  0.53860  0.45700  1.0000 -0.0287197519
C   C76       1.0  0.97000  0.03860  0.04300  1.0000 -0.0287197519
C   C77       1.0  0.85600  0.49320  0.52300  1.0000 -0.1120313617
C   C78       1.0  0.14400  0.99320  0.97700  1.0000 -0.1120313617
C   C79       1.0  0.14400  0.50680  0.47700  1.0000 -0.1120313617
C   C80       1.0  0.85600  0.00680  0.02300  1.0000 -0.1120313617
C   C81       1.0  0.93000  0.41950  0.58300  1.0000 0.6476754946
C   C82       1.0  0.07000  0.91950  0.91700  1.0000 0.6476754946
C   C83       1.0  0.07000  0.58050  0.41700  1.0000 0.6417760255
C   C84       1.0  0.93000  0.08050  0.08300  1.0000 0.6476754946
C   C85       1.0  0.88600  0.53250  0.48400  1.0000 -0.0988979227
C   C86       1.0  0.11400  0.03250  0.01600  1.0000 -0.0988979227
C   C87       1.0  0.11400  0.46750  0.51600  1.0000 -0.0988979227
C   C88       1.0  0.88600  0.96750  0.98400  1.0000 -0.0988979227
C   C89       1.0  0.37200  0.47370  0.95400  1.0000 -0.0988979227
C   C90       1.0  0.62800  0.97370  0.54600  1.0000 -0.0988979227
C   C91       1.0  0.62800  0.52630  0.04600  1.0000 -0.0988979227
C   C92       1.0  0.37200  0.02630  0.45400  1.0000 -0.0988979227
C   C93       1.0  0.37400  0.50020  0.05800  1.0000 -0.1120313617
C   C94       1.0  0.62600  0.00020  0.44200  1.0000 -0.1120313617
C   C95       1.0  0.62600  0.49980  0.94200  1.0000 -0.1120313617
C   C96       1.0  0.37400  0.99980  0.55800  1.0000 -0.1120313617
O   O1        1.0  0.64000  0.35670  0.87200  1.0000 -0.6816770224
O   O2        1.0  0.36000  0.85670  0.62800  1.0000 -0.6816770224
O   O3        1.0  0.36000  0.64330  0.12800  1.0000 -0.6816770224
O   O4        1.0  0.64000  0.14330  0.37200  1.0000 -0.6816770224
O   O5        1.0  0.60100  0.43590  0.76100  1.0000 -0.5783579824
O   O6        1.0  0.39900  0.93590  0.73900  1.0000 -0.5783579824
O   O7        1.0  0.39900  0.56410  0.23900  1.0000 -0.5783579824
O   O8        1.0  0.60100  0.06410  0.26100  1.0000 -0.5783579824
O   O9        1.0  0.54300  0.36080  0.57700  1.0000 -0.6553814647
O   O10       1.0  0.45700  0.86080  0.92300  1.0000 -0.6546726463
O   O11       1.0  0.45700  0.63920  0.42300  1.0000 -0.6546726463
O   O12       1.0  0.54300  0.13920  0.07700  1.0000 -0.6553814647
O   O13       1.0  0.36500  0.41560  0.76200  1.0000 -0.6816770224
O   O14       1.0  0.63500  0.91560  0.73800  1.0000 -0.6816770224
O   O15       1.0  0.63500  0.58440  0.23800  1.0000 -0.6816770224
O   O16       1.0  0.36500  0.08440  0.26200  1.0000 -0.6816770224
O   O17       1.0  0.08200  0.18890  0.21200  1.0000 -0.5488043961
O   O18       1.0  0.91800  0.68890  0.28800  1.0000 -0.5488043961
O   O19       1.0  0.91800  0.81110  0.78800  1.0000 -0.5488043961
O   O20       1.0  0.08200  0.31110  0.71200  1.0000 -0.5488043961
O   O21       1.0  0.81800  0.41560  0.61900  1.0000 -0.5860513288
O   O22       1.0  0.18200  0.91560  0.88100  1.0000 -0.5860513288
O   O23       1.0  0.18200  0.58440  0.38100  1.0000 -0.5860513288
O   O24       1.0  0.81800  0.08440  0.11900  1.0000 -0.5783579824
O   O25       1.0  0.42400  0.33240  0.89600  1.0000 -0.5184196321
O   O26       1.0  0.57600  0.83240  0.60400  1.0000 -0.5184196321
O   O27       1.0  0.57600  0.66760  0.10400  1.0000 -0.5184196321
O   O28       1.0  0.42400  0.16760  0.39600  1.0000 -0.5184196321
O   O29       1.0  0.04100  0.39220  0.59600  1.0000 -0.6722045032
O   O30       1.0  0.95900  0.89220  0.90400  1.0000 -0.6722045032
O   O31       1.0  0.95900  0.60780  0.40400  1.0000 -0.6722045032
O   O32       1.0  0.04100  0.10780  0.09600  1.0000 -0.6722045032
O   O33       1.0  0.15700  0.38680  0.88600  1.0000 -0.7006438685
O   O34       1.0  0.84300  0.88680  0.61400  1.0000 -0.7006438685
O   O35       1.0  0.84300  0.61320  0.11400  1.0000 -0.7006438685
O   O36       1.0  0.15700  0.11320  0.38600  1.0000 -0.7006438685
O   O37       1.0  0.86700  0.16520  0.24400  1.0000 -0.7006438685
O   O38       1.0  0.13300  0.66520  0.25600  1.0000 -0.7006438685
O   O39       1.0  0.13300  0.83480  0.75600  1.0000 -0.7006438685
O   O40       1.0  0.86700  0.33480  0.74400  1.0000 -0.7006438685
O   O41       1.0  0.31000  0.34260  0.60000  1.0000 -0.6270001171
O   O42       1.0  0.69000  0.84260  0.90000  1.0000 -0.6270001171
O   O43       1.0  0.69000  0.65740  0.40000  1.0000 -0.6270001171
O   O44       1.0  0.31000  0.15740  0.10000  1.0000 -0.6270001171
O   O45       1.0  0.92700  0.40300  0.92100  1.0000 -0.6167802898
O   O46       1.0  0.07300  0.90300  0.57900  1.0000 -0.6167802898
O   O47       1.0  0.07300  0.59700  0.07900  1.0000 -0.6167802898
O   O48       1.0  0.92700  0.09700  0.42100  1.0000 -0.6167802898
