# DDEC6 charges by PACMAN v1.1 (https://github.com/mtap-research/PACMAN-charge/)
data_2015[Zn][nan]3[ASR]44
_chemical_formula_sum              "Zn10 H32 C52 N36 O16"
_cell_length_a       12.7575
_cell_length_b       14.427
_cell_length_c       20.1049
_cell_angle_alpha    90
_cell_angle_beta     90
_cell_angle_gamma    90

_symmetry_space_group_name_H-M    "P 1"
_symmetry_Int_Tables_number       1

loop_
  _symmetry_equiv_pos_as_xyz
  'x, y, z'

loop_
  _atom_site_type_symbol
  _atom_site_label
  _atom_site_symmetry_multiplicity
  _atom_site_fract_x
  _atom_site_fract_y
  _atom_site_fract_z
  _atom_site_occupancy
  _atom_site_charge
Zn  Zn1       1.0  0.70643  0.66063  0.23262  1.0000 0.6609011498
Zn  Zn2       1.0  0.29357  0.66063  0.76738  1.0000 0.6609011498
Zn  Zn3       1.0  0.20643  0.33937  0.26738  1.0000 0.6609011498
Zn  Zn4       1.0  0.79357  0.33937  0.73262  1.0000 0.6609011498
Zn  Zn5       1.0  0.53213  0.82563  0.26797  1.0000 0.5928632226
Zn  Zn6       1.0  0.46787  0.82563  0.73203  1.0000 0.5928632226
Zn  Zn7       1.0  0.03213  0.17437  0.23203  1.0000 0.5928632226
Zn  Zn8       1.0  0.96787  0.17437  0.76797  1.0000 0.5928632226
Zn  Zn9       1.0  0.50000  0.00194  0.00000  1.0000 0.7643897143
Zn  Zn10      1.0  0.00000  0.99806  0.50000  1.0000 0.7643897143
H   H1        1.0  0.18230  0.06520  0.12130  1.0000 0.1192644164
H   H2        1.0  0.81770  0.06520  0.87870  1.0000 0.1192644164
H   H3        1.0  0.68230  0.93480  0.37870  1.0000 0.1192644164
H   H4        1.0  0.31770  0.93480  0.62130  1.0000 0.1192644164
H   H5        1.0  0.53830  0.48720  0.24610  1.0000 0.137540808
H   H6        1.0  0.46170  0.48720  0.75390  1.0000 0.137540808
H   H7        1.0  0.03830  0.51280  0.25390  1.0000 0.137540808
H   H8        1.0  0.96170  0.51280  0.74610  1.0000 0.137540808
H   H9        1.0  0.38320  0.26260  0.16740  1.0000 0.1336314585
H   H10       1.0  0.61680  0.26260  0.83260  1.0000 0.1336314585
H   H11       1.0  0.88320  0.73740  0.33260  1.0000 0.1336314585
H   H12       1.0  0.11680  0.73740  0.66740  1.0000 0.1336314585
H   H13       1.0  0.47140  0.94810  0.14820  1.0000 0.0981630515
H   H14       1.0  0.52860  0.94810  0.85180  1.0000 0.0981630515
H   H15       1.0  0.97140  0.05190  0.35180  1.0000 0.0981630515
H   H16       1.0  0.02860  0.05190  0.64820  1.0000 0.0981630515
H   H17       1.0  0.77410  0.84390  0.93500  1.0000 0.3188223485
H   H18       1.0  0.22590  0.84390  0.06500  1.0000 0.3188223485
H   H19       1.0  0.27410  0.15610  0.56500  1.0000 0.3188223485
H   H20       1.0  0.72590  0.15610  0.43500  1.0000 0.3188223485
H   H21       1.0  0.68620  0.90750  0.95220  1.0000 0.3188223485
H   H22       1.0  0.31380  0.90750  0.04780  1.0000 0.3188223485
H   H23       1.0  0.18620  0.09250  0.54780  1.0000 0.3188223485
H   H24       1.0  0.81380  0.09250  0.45220  1.0000 0.3188223485
H   H25       1.0  0.80480  0.65190  0.10150  1.0000 0.1134197098
H   H26       1.0  0.19520  0.65190  0.89850  1.0000 0.1134197098
H   H27       1.0  0.30480  0.34810  0.39850  1.0000 0.1134197098
H   H28       1.0  0.69520  0.34810  0.60150  1.0000 0.1134197098
H   H29       1.0  0.33850  0.67910  0.29970  1.0000 0.1192644164
H   H30       1.0  0.66150  0.67910  0.70030  1.0000 0.1192644164
H   H31       1.0  0.83850  0.32090  0.20030  1.0000 0.1192644164
H   H32       1.0  0.16150  0.32090  0.79970  1.0000 0.1192644164
C   C1        1.0  0.64040  0.84550  0.07020  1.0000 -0.0570560321
C   C2        1.0  0.35960  0.84550  0.92980  1.0000 -0.0570560321
C   C3        1.0  0.14040  0.15450  0.42980  1.0000 -0.0570560321
C   C4        1.0  0.85960  0.15450  0.57020  1.0000 -0.0570560321
C   C5        1.0  0.21370  0.11740  0.13970  1.0000 -0.0255075711
C   C6        1.0  0.78630  0.11740  0.86030  1.0000 -0.0246429368
C   C7        1.0  0.71370  0.88260  0.36030  1.0000 -0.0255075711
C   C8        1.0  0.28630  0.88260  0.63970  1.0000 -0.0255075711
C   C9        1.0  0.50860  0.54410  0.25700  1.0000 0.0063793133
C   C10       1.0  0.49140  0.54410  0.74300  1.0000 0.0063793133
C   C11       1.0  0.00860  0.45590  0.24300  1.0000 0.0063793133
C   C12       1.0  0.99140  0.45590  0.75700  1.0000 0.0063793133
C   C13       1.0  0.40690  0.55670  0.27720  1.0000 -0.1806089859
C   C14       1.0  0.59310  0.55670  0.72280  1.0000 -0.1806089859
C   C15       1.0  0.90690  0.44330  0.22280  1.0000 -0.1806089859
C   C16       1.0  0.09310  0.44330  0.77720  1.0000 -0.1806089859
C   C17       1.0  0.63950  0.80210  0.12980  1.0000 0.2941816803
C   C18       1.0  0.36050  0.80210  0.87020  1.0000 0.2941816803
C   C19       1.0  0.13950  0.19790  0.37020  1.0000 0.2941816803
C   C20       1.0  0.86050  0.19790  0.62980  1.0000 0.2941816803
C   C21       1.0  0.32340  0.22590  0.16490  1.0000 0.0040605576
C   C22       1.0  0.67660  0.22590  0.83510  1.0000 0.0040605576
C   C23       1.0  0.82340  0.77410  0.33510  1.0000 0.0040605576
C   C24       1.0  0.17660  0.77410  0.66490  1.0000 0.0040605576
C   C25       1.0  0.39660  0.10830  0.08120  1.0000 0.5595516842
C   C26       1.0  0.60340  0.10830  0.91880  1.0000 0.5595516842
C   C27       1.0  0.89660  0.89170  0.41880  1.0000 0.5595516842
C   C28       1.0  0.10340  0.89170  0.58120  1.0000 0.5595516842
C   C29       1.0  0.52480  0.90980  0.13290  1.0000 0.1715427842
C   C30       1.0  0.47520  0.90980  0.86710  1.0000 0.1715427842
C   C31       1.0  0.02480  0.09020  0.36710  1.0000 0.1715427842
C   C32       1.0  0.97520  0.09020  0.63290  1.0000 0.1715427842
C   C33       1.0  0.31510  0.14870  0.12530  1.0000 -0.1578244138
C   C34       1.0  0.68490  0.14870  0.87470  1.0000 -0.1578244138
C   C35       1.0  0.81510  0.85130  0.37470  1.0000 -0.1578244138
C   C36       1.0  0.18490  0.85130  0.62530  1.0000 -0.1578244138
C   C37       1.0  0.76300  0.70380  0.09440  1.0000 0.2364582737
C   C38       1.0  0.23700  0.70380  0.90560  1.0000 0.2364582737
C   C39       1.0  0.26300  0.29620  0.40560  1.0000 0.2364582737
C   C40       1.0  0.73700  0.29620  0.59440  1.0000 0.2364582737
C   C41       1.0  0.39970  0.64920  0.28660  1.0000 0.0040605576
C   C42       1.0  0.60030  0.64920  0.71340  1.0000 0.0040605576
C   C43       1.0  0.89970  0.35080  0.21340  1.0000 0.0063793133
C   C44       1.0  0.10030  0.35080  0.78660  1.0000 0.0063793133
C   C45       1.0  0.71200  0.81530  0.02100  1.0000 0.3999528196
C   C46       1.0  0.28800  0.81530  0.97900  1.0000 0.3999528196
C   C47       1.0  0.21200  0.18470  0.47900  1.0000 0.3999528196
C   C48       1.0  0.78800  0.18470  0.52100  1.0000 0.3999528196
C   C49       1.0  0.32510  0.48930  0.28360  1.0000 0.5595516842
C   C50       1.0  0.67490  0.48930  0.71640  1.0000 0.5595516842
C   C51       1.0  0.82510  0.51070  0.21640  1.0000 0.5595516842
C   C52       1.0  0.17490  0.51070  0.78360  1.0000 0.5595516842
N   N1        1.0  0.56860  0.84310  0.17100  1.0000 -0.3606439624
N   N2        1.0  0.43140  0.84310  0.82900  1.0000 -0.3606439624
N   N3        1.0  0.06860  0.15690  0.32900  1.0000 -0.3606439624
N   N4        1.0  0.93140  0.15690  0.67100  1.0000 -0.3606439624
N   N5        1.0  0.48860  0.69250  0.27510  1.0000 -0.1954450402
N   N6        1.0  0.51140  0.69250  0.72490  1.0000 -0.1954450402
N   N7        1.0  0.98860  0.30750  0.22490  1.0000 -0.1954450402
N   N8        1.0  0.01140  0.30750  0.77510  1.0000 -0.1954450402
N   N9        1.0  0.16900  0.17380  0.18370  1.0000 -0.1806089859
N   N10       1.0  0.83100  0.17380  0.81630  1.0000 -0.1806089859
N   N11       1.0  0.66900  0.82620  0.31630  1.0000 -0.1806089859
N   N12       1.0  0.33100  0.82620  0.68370  1.0000 -0.1806089859
N   N13       1.0  0.56550  0.91660  0.06990  1.0000 -0.3307385537
N   N14       1.0  0.43450  0.91660  0.93010  1.0000 -0.3307385537
N   N15       1.0  0.06550  0.08340  0.43010  1.0000 -0.3307385537
N   N16       1.0  0.93450  0.08340  0.56990  1.0000 -0.3307385537
N   N17       1.0  0.55940  0.62610  0.25540  1.0000 -0.1806089859
N   N18       1.0  0.44060  0.62610  0.74460  1.0000 -0.1806089859
N   N19       1.0  0.05940  0.37390  0.24460  1.0000 -0.1806089859
N   N20       1.0  0.94060  0.37390  0.75540  1.0000 -0.1806089859
N   N21       1.0  0.23770  0.24210  0.19890  1.0000 -0.1658933479
N   N22       1.0  0.76230  0.24210  0.80110  1.0000 -0.1658933479
N   N23       1.0  0.73770  0.75790  0.30110  1.0000 -0.1658933479
N   N24       1.0  0.26230  0.75790  0.69890  1.0000 -0.1658933479
N   N25       1.0  0.70070  0.72770  0.14430  1.0000 -0.3606439624
N   N26       1.0  0.29930  0.72770  0.85570  1.0000 -0.3606439624
N   N27       1.0  0.20070  0.27230  0.35570  1.0000 -0.3606439624
N   N28       1.0  0.79930  0.27230  0.64430  1.0000 -0.3606439624
N   N29       1.0  0.72580  0.86120  0.96210  1.0000 -0.5530840192
N   N30       1.0  0.27420  0.86120  0.03790  1.0000 -0.5530840192
N   N31       1.0  0.22580  0.13880  0.53790  1.0000 -0.5530840192
N   N32       1.0  0.77420  0.13880  0.46210  1.0000 -0.5530840192
N   N33       1.0  0.77330  0.74500  0.03500  1.0000 -0.3874101434
N   N34       1.0  0.22670  0.74500  0.96500  1.0000 -0.3874101434
N   N35       1.0  0.27330  0.25500  0.46500  1.0000 -0.3874101434
N   N36       1.0  0.72670  0.25500  0.53500  1.0000 -0.3874101434
O   O1        1.0  0.36920  0.03810  0.04740  1.0000 -0.5530840192
O   O2        1.0  0.63080  0.03810  0.95260  1.0000 -0.5550177488
O   O3        1.0  0.86920  0.96190  0.45260  1.0000 -0.5550177488
O   O4        1.0  0.13080  0.96190  0.54740  1.0000 -0.5530840192
O   O5        1.0  0.34550  0.40680  0.26600  1.0000 -0.5290847364
O   O6        1.0  0.65450  0.40680  0.73400  1.0000 -0.5290847364
O   O7        1.0  0.84550  0.59320  0.23400  1.0000 -0.5290847364
O   O8        1.0  0.15450  0.59320  0.76600  1.0000 -0.5290847364
O   O9        1.0  0.23350  0.50710  0.30500  1.0000 -0.5530840192
O   O10       1.0  0.76650  0.50710  0.69500  1.0000 -0.5530840192
O   O11       1.0  0.73350  0.49290  0.19500  1.0000 -0.5530840192
O   O12       1.0  0.26650  0.49290  0.80500  1.0000 -0.5530840192
O   O13       1.0  0.48160  0.13740  0.07960  1.0000 -0.4597090352
O   O14       1.0  0.51840  0.13740  0.92040  1.0000 -0.4597090352
O   O15       1.0  0.98160  0.86260  0.42040  1.0000 -0.4597090352
O   O16       1.0  0.01840  0.86260  0.57960  1.0000 -0.4597090352
