# DDEC6 charges by PACMAN v1.1 (https://github.com/mtap-research/PACMAN-charge/)
data_2015[Ga][nan]3[ASR]1
_chemical_formula_sum              "Ga8 P16 H16 C8 O76"
_cell_length_a       6.2152
_cell_length_b       18.8391
_cell_length_c       16.6568
_cell_angle_alpha    90
_cell_angle_beta     92.2293
_cell_angle_gamma    90

_symmetry_space_group_name_H-M    "P 1"
_symmetry_Int_Tables_number       1

loop_
  _symmetry_equiv_pos_as_xyz
  'x, y, z'

loop_
  _atom_site_type_symbol
  _atom_site_label
  _atom_site_symmetry_multiplicity
  _atom_site_fract_x
  _atom_site_fract_y
  _atom_site_fract_z
  _atom_site_occupancy
  _atom_site_charge
Ga  Ga1       1.0  0.76622  0.44239  0.59936  1.0000 1.4347131916
Ga  Ga2       1.0  0.71663  0.65609  0.87929  1.0000 1.4604799219
Ga  Ga3       1.0  0.73379  0.94239  0.90065  1.0000 1.4363161988
Ga  Ga4       1.0  0.78358  0.15613  0.62076  1.0000 1.4604799219
Ga  Ga5       1.0  0.23378  0.55764  0.40063  1.0000 1.4363161988
Ga  Ga6       1.0  0.28339  0.34393  0.12070  1.0000 1.4604799219
Ga  Ga7       1.0  0.26623  0.05756  0.09938  1.0000 1.4347131916
Ga  Ga8       1.0  0.21662  0.84400  0.37939  1.0000 1.4604799219
P   P1        1.0  0.74165  0.55817  0.45066  1.0000 1.5986319251
P   P2        1.0  0.83628  0.53652  0.75651  1.0000 1.6110594042
P   P3        1.0  0.22331  0.69269  0.92218  1.0000 1.6110594042
P   P4        1.0  0.82284  0.52531  0.01615  1.0000 1.5576207407
P   P5        1.0  0.75836  0.05816  0.04933  1.0000 1.5986319251
P   P6        1.0  0.66363  0.03651  0.74345  1.0000 1.6110594042
P   P7        1.0  0.27678  0.19270  0.57784  1.0000 1.6110594042
P   P8        1.0  0.67764  0.02560  0.48431  1.0000 1.5576207407
P   P9        1.0  0.25834  0.44186  0.54932  1.0000 1.5986319251
P   P10       1.0  0.16373  0.46349  0.24350  1.0000 1.6110594042
P   P11       1.0  0.77668  0.30730  0.07783  1.0000 1.6110594042
P   P12       1.0  0.17716  0.47471  0.98385  1.0000 1.5576207407
P   P13       1.0  0.24166  0.94185  0.95067  1.0000 1.5986319251
P   P14       1.0  0.33629  0.96346  0.25662  1.0000 1.6110594042
P   P15       1.0  0.72325  0.80735  0.42213  1.0000 1.6110594042
P   P16       1.0  0.32175  0.97502  0.51613  1.0000 1.5576207407
H   H1        1.0  0.72797  0.67086  0.47659  1.0000 0.4294819775
H   H2        1.0  0.85234  0.46546  0.86192  1.0000 0.4221377365
H   H3        1.0  0.13811  0.57564  0.81151  1.0000 0.4294819775
H   H4        1.0  0.23326  0.62548  0.02775  1.0000 0.4294819775
H   H5        1.0  0.77206  0.17085  0.02341  1.0000 0.4294819775
H   H6        1.0  0.64779  0.96578  0.63781  1.0000 0.4221377365
H   H7        1.0  0.36178  0.07565  0.68850  1.0000 0.4294819775
H   H8        1.0  0.26825  0.12568  0.47217  1.0000 0.4294819775
H   H9        1.0  0.27199  0.32919  0.52344  1.0000 0.4294819775
H   H10       1.0  0.14766  0.53455  0.13808  1.0000 0.4221377365
H   H11       1.0  0.86190  0.42437  0.18849  1.0000 0.4294819775
H   H12       1.0  0.76674  0.37453  0.97225  1.0000 0.4294819775
H   H13       1.0  0.22795  0.82916  0.97659  1.0000 0.4294819775
H   H14       1.0  0.35261  0.03479  0.36202  1.0000 0.4221377365
H   H15       1.0  0.63803  0.92431  0.31155  1.0000 0.4294819775
H   H16       1.0  0.73349  0.87468  0.52761  1.0000 0.4294819775
C   C1        1.0  0.73345  0.80035  0.84215  1.0000 0.5188870646
C   C2        1.0  0.73646  0.79455  0.94015  1.0000 0.5095895894
C   C3        1.0  0.76661  0.30040  0.65784  1.0000 0.5188870646
C   C4        1.0  0.76361  0.29463  0.55988  1.0000 0.5095895894
C   C5        1.0  0.26655  0.19965  0.15784  1.0000 0.5188870646
C   C6        1.0  0.26353  0.20545  0.05987  1.0000 0.5095895894
C   C7        1.0  0.23342  0.69964  0.34218  1.0000 0.5188870646
C   C8        1.0  0.23645  0.70551  0.44007  1.0000 0.5095895894
O   O1        1.0  0.75518  0.48930  0.49829  1.0000 -0.7224895738
O   O2        1.0  0.77504  0.52158  0.66933  1.0000 -0.6822284393
O   O3        1.0  0.46186  0.44164  0.60378  1.0000 -0.7142806433
O   O4        1.0  0.07205  0.43674  0.60697  1.0000 -0.744045832
O   O5        1.0  0.76690  0.36254  0.68403  1.0000 -0.4152491522
O   O6        1.0  0.75618  0.35303  0.52524  1.0000 -0.4043233327
O   O7        1.0  0.74435  0.62323  0.50914  1.0000 -0.6099227674
O   O8        1.0  0.69745  0.59617  0.78856  1.0000 -0.7255097262
O   O9        1.0  0.79694  0.46614  0.80499  1.0000 -0.6157999121
O   O10       1.0  0.08232  0.55451  0.76063  1.0000 -0.6099227674
O   O11       1.0  0.41151  0.66426  0.87474  1.0000 -0.7475966148
O   O12       1.0  0.73059  0.58255  0.96327  1.0000 -0.7255097262
O   O13       1.0  0.72566  0.74210  0.80593  1.0000 -0.4281250022
O   O14       1.0  0.72346  0.73249  0.96731  1.0000 -0.445677979
O   O15       1.0  0.02664  0.65117  0.88798  1.0000 -0.7921024344
O   O16       1.0  0.25465  0.67601  0.01512  1.0000 -0.592448347
O   O17       1.0  0.19848  0.77281  0.91578  1.0000 -0.7224895738
O   O18       1.0  0.91732  0.45923  0.95898  1.0000 -0.6304868989
O   O19       1.0  0.70653  0.49875  0.08550  1.0000 -0.6858428451
O   O20       1.0  0.74482  0.98930  0.00170  1.0000 -0.7224895738
O   O21       1.0  0.72492  0.02148  0.83058  1.0000 -0.6822284393
O   O22       1.0  0.03812  0.94164  0.89622  1.0000 -0.7142806433
O   O23       1.0  0.42797  0.93673  0.89303  1.0000 -0.744045832
O   O24       1.0  0.73306  0.86251  0.81595  1.0000 -0.4152491522
O   O25       1.0  0.74380  0.85300  0.97478  1.0000 -0.4087356957
O   O26       1.0  0.75565  0.12323  0.99085  1.0000 -0.6099227674
O   O27       1.0  0.80252  0.09617  0.71150  1.0000 -0.7255097262
O   O28       1.0  0.70276  0.96618  0.69481  1.0000 -0.6157999121
O   O29       1.0  0.41762  0.05450  0.73936  1.0000 -0.6099227674
O   O30       1.0  0.08881  0.16436  0.62551  1.0000 -0.7475966148
O   O31       1.0  0.77023  0.08279  0.53679  1.0000 -0.7255097262
O   O32       1.0  0.77441  0.24216  0.69410  1.0000 -0.4281250022
O   O33       1.0  0.77663  0.23254  0.53272  1.0000 -0.445677979
O   O34       1.0  0.47356  0.15113  0.61180  1.0000 -0.7921024344
O   O35       1.0  0.24470  0.17613  0.48497  1.0000 -0.592448347
O   O36       1.0  0.30146  0.27285  0.58432  1.0000 -0.7224895738
O   O37       1.0  0.41692  0.04157  0.45888  1.0000 -0.6304868989
O   O38       1.0  0.79344  0.99907  0.41434  1.0000 -0.6858428451
O   O39       1.0  0.24480  0.51073  0.50170  1.0000 -0.7224895738
O   O40       1.0  0.22494  0.47844  0.33067  1.0000 -0.6822284393
O   O41       1.0  0.53814  0.55837  0.39621  1.0000 -0.7142806433
O   O42       1.0  0.92795  0.56326  0.39303  1.0000 -0.744045832
O   O43       1.0  0.23306  0.63745  0.31598  1.0000 -0.4152491522
O   O44       1.0  0.24375  0.64704  0.47480  1.0000 -0.4087356957
O   O45       1.0  0.25569  0.37679  0.49085  1.0000 -0.6099227674
O   O46       1.0  0.30254  0.40385  0.21144  1.0000 -0.7255097262
O   O47       1.0  0.20307  0.53387  0.19500  1.0000 -0.6157999121
O   O48       1.0  0.91768  0.44551  0.23936  1.0000 -0.6099227674
O   O49       1.0  0.58850  0.33574  0.12524  1.0000 -0.7475966148
O   O50       1.0  0.26941  0.41747  0.03673  1.0000 -0.7255097262
O   O51       1.0  0.27434  0.25790  0.19407  1.0000 -0.4281250022
O   O52       1.0  0.27654  0.26751  0.03269  1.0000 -0.4444805018
O   O53       1.0  0.97336  0.34883  0.11202  1.0000 -0.7921024344
O   O54       1.0  0.74535  0.32400  0.98488  1.0000 -0.592448347
O   O55       1.0  0.80153  0.22721  0.08421  1.0000 -0.7224895738
O   O56       1.0  0.08268  0.54078  0.04102  1.0000 -0.6304868989
O   O57       1.0  0.29347  0.50126  0.91450  1.0000 -0.6858428451
O   O58       1.0  0.25521  0.01072  0.99829  1.0000 -0.7224895738
O   O59       1.0  0.27513  0.97848  0.16946  1.0000 -0.6822284393
O   O60       1.0  0.96190  0.05839  0.10377  1.0000 -0.7142806433
O   O61       1.0  0.57204  0.06327  0.10696  1.0000 -0.744045832
O   O62       1.0  0.26696  0.13750  0.18406  1.0000 -0.4087356957
O   O63       1.0  0.25622  0.14701  0.02523  1.0000 -0.4043233327
O   O64       1.0  0.24435  0.87678  0.00915  1.0000 -0.6099227674
O   O65       1.0  0.19747  0.90378  0.28853  1.0000 -0.7255097262
O   O66       1.0  0.29665  0.03385  0.30502  1.0000 -0.6157999121
O   O67       1.0  0.58241  0.94557  0.26072  1.0000 -0.6099227674
O   O68       1.0  0.91150  0.83576  0.37473  1.0000 -0.7475966148
O   O69       1.0  0.22985  0.91765  0.46273  1.0000 -0.7255097262
O   O70       1.0  0.22569  0.75785  0.30590  1.0000 -0.4281250022
O   O71       1.0  0.22360  0.76754  0.46725  1.0000 -0.445677979
O   O72       1.0  0.52667  0.84893  0.38805  1.0000 -0.7921024344
O   O73       1.0  0.75459  0.82414  0.51512  1.0000 -0.592448347
O   O74       1.0  0.69850  0.72725  0.41584  1.0000 -0.7224895738
O   O75       1.0  0.58284  0.95953  0.54107  1.0000 -0.6304868989
O   O76       1.0  0.20552  0.00141  0.58564  1.0000 -0.6822284393
