# DDEC6 charges by PACMAN v1.1 (https://github.com/mtap-research/PACMAN-charge/)
data_2015[Co][nan]3[ASR]6
_chemical_formula_sum              "Co4 H88 C124 N40 O8"
_cell_length_a       15.6359
_cell_length_b       15.6359
_cell_length_c       21.6016
_cell_angle_alpha    77.9306
_cell_angle_beta     102.069
_cell_angle_gamma    132.703

_symmetry_space_group_name_H-M    "P 1"
_symmetry_Int_Tables_number       1

loop_
  _symmetry_equiv_pos_as_xyz
  'x, y, z'

loop_
  _atom_site_type_symbol
  _atom_site_label
  _atom_site_symmetry_multiplicity
  _atom_site_fract_x
  _atom_site_fract_y
  _atom_site_fract_z
  _atom_site_occupancy
  _atom_site_charge
Co  Co1       1.0  0.09865  0.53479  0.66223  1.0000 0.5624837446
Co  Co2       1.0  0.53479  0.09865  0.83777  1.0000 0.5624837446
Co  Co3       1.0  0.90135  0.46521  0.33777  1.0000 0.5624837446
Co  Co4       1.0  0.46521  0.90135  0.16223  1.0000 0.5624837446
H   H1        1.0  0.37380  0.78280  0.64950  1.0000 0.1097917726
H   H2        1.0  0.78280  0.37380  0.85050  1.0000 0.1097917726
H   H3        1.0  0.62620  0.21720  0.35050  1.0000 0.1097917726
H   H4        1.0  0.21720  0.62620  0.14950  1.0000 0.1097917726
H   H5        1.0  0.26890  0.49590  0.74840  1.0000 0.1214630895
H   H6        1.0  0.49590  0.26890  0.75160  1.0000 0.1214630895
H   H7        1.0  0.73110  0.50410  0.25160  1.0000 0.1214630895
H   H8        1.0  0.50410  0.73110  0.24840  1.0000 0.1214630895
H   H9        1.0  0.25080  0.91600  0.83270  1.0000 0.1287239583
H   H10       1.0  0.91600  0.25080  0.66730  1.0000 0.1287239583
H   H11       1.0  0.74920  0.08400  0.16730  1.0000 0.1287239583
H   H12       1.0  0.08400  0.74920  0.33270  1.0000 0.1287239583
H   H13       1.0  0.46570  0.18670  0.92770  1.0000 0.1097917726
H   H14       1.0  0.18670  0.46570  0.57230  1.0000 0.1097917726
H   H15       1.0  0.53430  0.81330  0.07230  1.0000 0.1097917726
H   H16       1.0  0.81330  0.53430  0.42770  1.0000 0.1097917726
H   H17       1.0  0.50480  0.10520  0.21520  1.0000 0.1097917726
H   H18       1.0  0.10520  0.50480  0.28480  1.0000 0.1097917726
H   H19       1.0  0.49520  0.89480  0.78480  1.0000 0.1097917726
H   H20       1.0  0.89480  0.49520  0.71520  1.0000 0.1097917726
H   H21       1.0  0.58350  0.13070  0.05160  1.0000 0.1214630895
H   H22       1.0  0.13070  0.58350  0.44840  1.0000 0.1214630895
H   H23       1.0  0.41650  0.86930  0.94840  1.0000 0.1214630895
H   H24       1.0  0.86930  0.41650  0.55160  1.0000 0.1214630895
H   H25       1.0  0.40120  0.47080  0.79480  1.0000 0.1214630895
H   H26       1.0  0.47080  0.40120  0.70520  1.0000 0.1214630895
H   H27       1.0  0.59880  0.52920  0.20520  1.0000 0.1214630895
H   H28       1.0  0.52920  0.59880  0.29480  1.0000 0.1214630895
H   H29       1.0  0.52420  0.45860  0.86690  1.0000 0.1214630895
H   H30       1.0  0.45860  0.52420  0.63310  1.0000 0.1214630895
H   H31       1.0  0.47580  0.54140  0.13310  1.0000 0.1214630895
H   H32       1.0  0.54140  0.47580  0.36690  1.0000 0.1214630895
H   H33       1.0  0.76540  0.80800  0.86140  1.0000 0.1287239583
H   H34       1.0  0.80800  0.76540  0.63860  1.0000 0.1287239583
H   H35       1.0  0.23460  0.19200  0.13860  1.0000 0.1287239583
H   H36       1.0  0.19200  0.23460  0.36140  1.0000 0.1287239583
H   H37       1.0  0.63890  0.81950  0.79150  1.0000 0.1287239583
H   H38       1.0  0.81950  0.63890  0.70850  1.0000 0.1287239583
H   H39       1.0  0.36110  0.18050  0.20850  1.0000 0.1287239583
H   H40       1.0  0.18050  0.36110  0.29150  1.0000 0.1287239583
H   H41       1.0  0.05110  0.85950  0.80500  1.0000 0.1287239583
H   H42       1.0  0.85950  0.05110  0.69500  1.0000 0.1287239583
H   H43       1.0  0.94890  0.14050  0.19500  1.0000 0.1287239583
H   H44       1.0  0.14050  0.94890  0.30500  1.0000 0.1287239583
H   H45       1.0  0.85180  0.71500  0.81370  1.0000 0.1287239583
H   H46       1.0  0.71500  0.85180  0.68630  1.0000 0.1287239583
H   H47       1.0  0.14820  0.28500  0.18630  1.0000 0.1287239583
H   H48       1.0  0.28500  0.14820  0.31370  1.0000 0.1287239583
H   H49       1.0  0.90770  0.74450  0.00020  1.0000 0.137419099
H   H50       1.0  0.74450  0.90770  0.49980  1.0000 0.137419099
H   H51       1.0  0.09230  0.25550  0.99980  1.0000 0.137419099
H   H52       1.0  0.25550  0.09230  0.50020  1.0000 0.137419099
H   H53       1.0  0.10710  0.88570  0.99240  1.0000 0.1287239583
H   H54       1.0  0.88570  0.10710  0.50760  1.0000 0.1287239583
H   H55       1.0  0.89290  0.11430  0.00760  1.0000 0.1287239583
H   H56       1.0  0.11430  0.89290  0.49240  1.0000 0.1287239583
H   H57       1.0  0.78920  0.49720  0.93010  1.0000 0.1214630895
H   H58       1.0  0.49720  0.78920  0.56990  1.0000 0.1214630895
H   H59       1.0  0.21080  0.50280  0.06990  1.0000 0.1214630895
H   H60       1.0  0.50280  0.21080  0.43010  1.0000 0.1214630895
H   H61       1.0  0.72690  0.33730  0.00260  1.0000 0.1214630895
H   H62       1.0  0.33730  0.72690  0.49740  1.0000 0.1214630895
H   H63       1.0  0.27310  0.66270  0.99740  1.0000 0.1214630895
H   H64       1.0  0.66270  0.27310  0.50260  1.0000 0.1214630895
H   H65       1.0  0.52970  0.36470  0.07110  1.0000 0.1287239583
H   H66       1.0  0.36470  0.52970  0.42890  1.0000 0.1287239583
H   H67       1.0  0.47030  0.63530  0.92890  1.0000 0.1287239583
H   H68       1.0  0.63530  0.47030  0.57110  1.0000 0.1287239583
H   H69       1.0  0.59150  0.52390  0.99930  1.0000 0.1214630895
H   H70       1.0  0.52390  0.59150  0.50070  1.0000 0.1287239583
H   H71       1.0  0.40850  0.47610  0.00070  1.0000 0.1287239583
H   H72       1.0  0.47610  0.40850  0.49930  1.0000 0.1287239583
H   H73       1.0  0.00450  0.36210  0.87330  1.0000 0.1214630895
H   H74       1.0  0.36210  0.00450  0.62670  1.0000 0.1214630895
H   H75       1.0  0.99550  0.63790  0.12670  1.0000 0.1214630895
H   H76       1.0  0.63790  0.99550  0.37330  1.0000 0.1214630895
H   H77       1.0  0.96510  0.34730  0.97370  1.0000 0.1097917726
H   H78       1.0  0.34730  0.96510  0.52630  1.0000 0.1097917726
H   H79       1.0  0.03490  0.65270  0.02630  1.0000 0.1097917726
H   H80       1.0  0.65270  0.03490  0.47370  1.0000 0.1097917726
H   H81       1.0  0.05590  0.65890  0.93510  1.0000 0.1040599141
H   H82       1.0  0.65890  0.05590  0.56490  1.0000 0.1040599141
H   H83       1.0  0.94410  0.34110  0.06490  1.0000 0.1040599141
H   H84       1.0  0.34110  0.94410  0.43510  1.0000 0.1040599141
H   H85       1.0  0.09480  0.67240  0.83530  1.0000 0.1097917726
H   H86       1.0  0.67240  0.09480  0.66470  1.0000 0.1097917726
H   H87       1.0  0.90520  0.32760  0.16470  1.0000 0.1097917726
H   H88       1.0  0.32760  0.90520  0.33530  1.0000 0.1097917726
C   C1        1.0  0.37453  0.72927  0.67745  1.0000 0.137419099
C   C2        1.0  0.72927  0.37453  0.82255  1.0000 0.137419099
C   C3        1.0  0.62547  0.27073  0.32255  1.0000 0.137419099
C   C4        1.0  0.27073  0.62547  0.17745  1.0000 0.137419099
C   C5        1.0  0.31556  0.57284  0.73033  1.0000 0.0897633005
C   C6        1.0  0.57284  0.31556  0.76967  1.0000 0.0897633005
C   C7        1.0  0.68444  0.42716  0.26967  1.0000 0.0897633005
C   C8        1.0  0.42716  0.68444  0.23033  1.0000 0.0897633005
C   C9        1.0  0.28215  0.97245  0.85953  1.0000 0.0682833076
C   C10       1.0  0.97245  0.28215  0.64047  1.0000 0.0682833076
C   C11       1.0  0.71785  0.02755  0.14047  1.0000 0.0682833076
C   C12       1.0  0.02755  0.71785  0.35953  1.0000 0.0682833076
C   C13       1.0  0.39664  0.11816  0.91148  1.0000 0.1214630895
C   C14       1.0  0.11816  0.39664  0.58852  1.0000 0.1214630895
C   C15       1.0  0.60336  0.88184  0.08852  1.0000 0.1214630895
C   C16       1.0  0.88184  0.60336  0.41148  1.0000 0.1214630895
C   C17       1.0  0.52746  0.13314  0.17410  1.0000 0.1587684073
C   C18       1.0  0.13314  0.52746  0.32590  1.0000 0.1587684073
C   C19       1.0  0.47254  0.86686  0.82590  1.0000 0.1587684073
C   C20       1.0  0.86686  0.47254  0.67410  1.0000 0.1587684073
C   C21       1.0  0.56882  0.14458  0.08618  1.0000 0.0682833076
C   C22       1.0  0.14458  0.56882  0.41382  1.0000 0.0682833076
C   C23       1.0  0.43118  0.85542  0.91382  1.0000 0.0682833076
C   C24       1.0  0.85542  0.43118  0.58618  1.0000 0.0682833076
C   C25       1.0  0.50808  0.64592  0.78584  1.0000 0.1097917726
C   C26       1.0  0.64592  0.50808  0.71416  1.0000 0.1097917726
C   C27       1.0  0.49192  0.35408  0.21416  1.0000 0.1097917726
C   C28       1.0  0.35408  0.49192  0.28584  1.0000 0.1097917726
C   C29       1.0  0.47438  0.53862  0.80844  1.0000 -0.1873799693
C   C30       1.0  0.53862  0.47438  0.69156  1.0000 -0.1873799693
C   C31       1.0  0.52562  0.46138  0.19156  1.0000 -0.1873799693
C   C32       1.0  0.46138  0.52562  0.30844  1.0000 -0.1873799693
C   C33       1.0  0.54839  0.53141  0.85113  1.0000 -0.17923381
C   C34       1.0  0.53141  0.54839  0.64887  1.0000 -0.17923381
C   C35       1.0  0.45161  0.46859  0.14887  1.0000 -0.17923381
C   C36       1.0  0.46859  0.45161  0.35113  1.0000 -0.17923381
C   C37       1.0  0.65974  0.63266  0.87111  1.0000 0.1718045193
C   C38       1.0  0.63266  0.65974  0.62889  1.0000 0.1718045193
C   C39       1.0  0.34026  0.36734  0.12889  1.0000 0.1718045193
C   C40       1.0  0.36734  0.34026  0.37111  1.0000 0.1718045193
C   C41       1.0  0.69198  0.73982  0.84825  1.0000 -0.17923381
C   C42       1.0  0.73982  0.69198  0.65175  1.0000 -0.17923381
C   C43       1.0  0.30802  0.26018  0.15175  1.0000 -0.17923381
C   C44       1.0  0.26018  0.30802  0.34825  1.0000 -0.17923381
C   C45       1.0  0.61658  0.74702  0.80607  1.0000 -0.1622116398
C   C46       1.0  0.74702  0.61658  0.69393  1.0000 -0.1622116398
C   C47       1.0  0.38342  0.25298  0.19393  1.0000 -0.1622116398
C   C48       1.0  0.25298  0.38342  0.30607  1.0000 -0.1622116398
C   C49       1.0  0.09730  0.88710  0.89765  1.0000 0.1097917726
C   C50       1.0  0.88710  0.09730  0.60235  1.0000 0.1097917726
C   C51       1.0  0.90270  0.11290  0.10235  1.0000 0.1097917726
C   C52       1.0  0.11290  0.90270  0.39765  1.0000 0.1097917726
C   C53       1.0  0.02217  0.83623  0.84431  1.0000 -0.17923381
C   C54       1.0  0.83623  0.02217  0.65569  1.0000 -0.17923381
C   C55       1.0  0.97783  0.16377  0.15569  1.0000 -0.17923381
C   C56       1.0  0.16377  0.97783  0.34431  1.0000 -0.17923381
C   C57       1.0  0.90310  0.75010  0.84956  1.0000 -0.1622116398
C   C58       1.0  0.75010  0.90310  0.65044  1.0000 -0.1622116398
C   C59       1.0  0.09690  0.24990  0.15044  1.0000 -0.1622116398
C   C60       1.0  0.24990  0.09690  0.34956  1.0000 -0.1622116398
C   C61       1.0  0.86056  0.71624  0.90753  1.0000 0.1587684073
C   C62       1.0  0.71624  0.86056  0.59247  1.0000 0.1587684073
C   C63       1.0  0.13944  0.28376  0.09247  1.0000 0.1587684073
C   C64       1.0  0.28376  0.13944  0.40753  1.0000 0.1587684073
C   C65       1.0  0.93667  0.76733  0.96103  1.0000 -0.1705083503
C   C66       1.0  0.76733  0.93667  0.53897  1.0000 -0.1705083503
C   C67       1.0  0.06333  0.23267  0.03897  1.0000 -0.1705083503
C   C68       1.0  0.23267  0.06333  0.46103  1.0000 -0.1705083503
C   C69       1.0  0.05556  0.85224  0.95632  1.0000 -0.1530653034
C   C70       1.0  0.85224  0.05556  0.54368  1.0000 -0.1530653034
C   C71       1.0  0.94444  0.14776  0.04368  1.0000 -0.1530653034
C   C72       1.0  0.14776  0.94444  0.45632  1.0000 -0.1530653034
C   C73       1.0  0.69782  0.52778  0.95716  1.0000 0.1587684073
C   C74       1.0  0.52778  0.69782  0.54284  1.0000 0.1587684073
C   C75       1.0  0.30218  0.47222  0.04284  1.0000 0.1587684073
C   C76       1.0  0.47222  0.30218  0.45716  1.0000 0.1587684073
C   C77       1.0  0.73699  0.47101  0.95860  1.0000 -0.1705083503
C   C78       1.0  0.47101  0.73699  0.54140  1.0000 -0.1705083503
C   C79       1.0  0.26301  0.52899  0.04140  1.0000 -0.1705083503
C   C80       1.0  0.52899  0.26301  0.45860  1.0000 -0.1705083503
C   C81       1.0  0.69970  0.37510  0.00187  1.0000 -0.1705083503
C   C82       1.0  0.37510  0.69970  0.49813  1.0000 -0.1705083503
C   C83       1.0  0.30030  0.62490  0.99813  1.0000 -0.1705083503
C   C84       1.0  0.62490  0.30030  0.50187  1.0000 -0.1705083503
C   C85       1.0  0.62258  0.33662  0.04352  1.0000 0.1097917726
C   C86       1.0  0.33662  0.62258  0.45648  1.0000 0.1097917726
C   C87       1.0  0.37742  0.66338  0.95648  1.0000 0.1097917726
C   C88       1.0  0.66338  0.37742  0.54352  1.0000 0.1097917726
C   C89       1.0  0.58232  0.39168  0.04260  1.0000 -0.1622116398
C   C90       1.0  0.39168  0.58232  0.45740  1.0000 -0.1622116398
C   C91       1.0  0.41768  0.60832  0.95740  1.0000 -0.1622116398
C   C92       1.0  0.60832  0.41768  0.54260  1.0000 -0.1622116398
C   C93       1.0  0.61926  0.48674  0.99980  1.0000 -0.1705083503
C   C94       1.0  0.48674  0.61926  0.50020  1.0000 -0.1705083503
C   C95       1.0  0.38074  0.51326  0.00020  1.0000 -0.1705083503
C   C96       1.0  0.51326  0.38074  0.49980  1.0000 -0.1705083503
C   C97       1.0  0.07652  0.52608  0.77775  1.0000 0.523694681
C   C98       1.0  0.52608  0.07652  0.72225  1.0000 0.523694681
C   C99       1.0  0.92348  0.47392  0.22225  1.0000 0.523694681
C   C100      1.0  0.47392  0.92348  0.27775  1.0000 0.523694681
C   C101      1.0  0.05456  0.51904  0.84368  1.0000 -0.0213765987
C   C102      1.0  0.51904  0.05456  0.65632  1.0000 -0.0213765987
C   C103      1.0  0.94544  0.48096  0.15632  1.0000 -0.0213765987
C   C104      1.0  0.48096  0.94544  0.34368  1.0000 -0.0213765987
C   C105      1.0  0.01567  0.42273  0.88572  1.0000 -0.1151136142
C   C106      1.0  0.42273  0.01567  0.61428  1.0000 -0.1151136142
C   C107      1.0  0.98433  0.57727  0.11428  1.0000 -0.1151136142
C   C108      1.0  0.57727  0.98433  0.38572  1.0000 -0.1151136142
C   C109      1.0  0.99276  0.41424  0.94640  1.0000 -0.1622116398
C   C110      1.0  0.41424  0.99276  0.55360  1.0000 -0.1622116398
C   C111      1.0  0.00724  0.58576  0.05360  1.0000 -0.1622116398
C   C112      1.0  0.58576  0.00724  0.44640  1.0000 -0.1622116398
C   C113      1.0  0.01032  0.50368  0.96704  1.0000 0.0682833076
C   C114      1.0  0.50368  0.01032  0.53296  1.0000 0.0682833076
C   C115      1.0  0.98968  0.49632  0.03296  1.0000 0.0682833076
C   C116      1.0  0.49632  0.98968  0.46704  1.0000 0.0682833076
C   C117      1.0  0.04662  0.59878  0.92346  1.0000 -0.17923381
C   C118      1.0  0.59878  0.04662  0.57654  1.0000 -0.17923381
C   C119      1.0  0.95338  0.40122  0.07654  1.0000 -0.17923381
C   C120      1.0  0.40122  0.95338  0.42346  1.0000 -0.17923381
C   C121      1.0  0.06922  0.60658  0.86322  1.0000 -0.1298380922
C   C122      1.0  0.60658  0.06922  0.63678  1.0000 -0.1298380922
C   C123      1.0  0.93078  0.39342  0.13678  1.0000 -0.1298380922
C   C124      1.0  0.39342  0.93078  0.36322  1.0000 -0.1298380922
N   N1        1.0  0.27684  0.61756  0.68875  1.0000 -0.312522253
N   N2        1.0  0.61756  0.27684  0.81125  1.0000 -0.312522253
N   N3        1.0  0.72316  0.38244  0.31125  1.0000 -0.312522253
N   N4        1.0  0.38244  0.72316  0.18875  1.0000 -0.312522253
N   N5        1.0  0.43074  0.65382  0.74247  1.0000 0.1097917726
N   N6        1.0  0.65382  0.43074  0.75753  1.0000 0.1097917726
N   N7        1.0  0.56926  0.34618  0.25753  1.0000 0.1097917726
N   N8        1.0  0.34618  0.56926  0.24247  1.0000 0.1097917726
N   N9        1.0  0.47071  0.75729  0.70850  1.0000 -0.2595309671
N   N10       1.0  0.75729  0.47071  0.79150  1.0000 -0.2595309671
N   N11       1.0  0.52929  0.24271  0.29150  1.0000 -0.2595309671
N   N12       1.0  0.24271  0.52929  0.20850  1.0000 -0.2595309671
N   N13       1.0  0.39458  0.06362  0.87003  1.0000 -0.3184378278
N   N14       1.0  0.06362  0.39458  0.62997  1.0000 -0.3184378278
N   N15       1.0  0.60542  0.93638  0.12997  1.0000 -0.3184378278
N   N16       1.0  0.93638  0.60542  0.37003  1.0000 -0.3184378278
N   N17       1.0  0.22038  0.97302  0.89284  1.0000 0.1214630895
N   N18       1.0  0.97302  0.22038  0.60716  1.0000 0.1214630895
N   N19       1.0  0.77962  0.02698  0.10716  1.0000 0.1214630895
N   N20       1.0  0.02698  0.77962  0.39284  1.0000 0.1214630895
N   N21       1.0  0.29340  0.06720  0.92744  1.0000 -0.2595309671
N   N22       1.0  0.06720  0.29340  0.57256  1.0000 -0.2595309671
N   N23       1.0  0.70660  0.93280  0.07256  1.0000 -0.2595309671
N   N24       1.0  0.93280  0.70660  0.42744  1.0000 -0.2595309671
N   N25       1.0  0.52958  0.07382  0.13866  1.0000 -0.312522253
N   N26       1.0  0.07382  0.52958  0.36134  1.0000 -0.312522253
N   N27       1.0  0.47042  0.92618  0.86134  1.0000 -0.312522253
N   N28       1.0  0.92618  0.47042  0.63866  1.0000 -0.312522253
N   N29       1.0  0.55932  0.23308  0.14692  1.0000 -0.2329809051
N   N30       1.0  0.23308  0.55932  0.35308  1.0000 -0.2329809051
N   N31       1.0  0.44068  0.76692  0.85308  1.0000 -0.2329809051
N   N32       1.0  0.76692  0.44068  0.64692  1.0000 -0.2329809051
N   N33       1.0  0.58479  0.23881  0.08911  1.0000 0.1097917726
N   N34       1.0  0.23881  0.58479  0.41089  1.0000 0.1097917726
N   N35       1.0  0.41521  0.76119  0.91089  1.0000 0.1097917726
N   N36       1.0  0.76119  0.41521  0.58911  1.0000 0.1214630895
N   N37       1.0  0.73768  0.62712  0.91338  1.0000 -0.1873799693
N   N38       1.0  0.62712  0.73768  0.58662  1.0000 -0.1873799693
N   N39       1.0  0.26232  0.37288  0.08662  1.0000 -0.1873799693
N   N40       1.0  0.37288  0.26232  0.41338  1.0000 -0.1873799693
O   O1        1.0  0.11739  0.61719  0.74022  1.0000 -0.5402976107
O   O2        1.0  0.61719  0.11739  0.75978  1.0000 -0.5402976107
O   O3        1.0  0.88261  0.38281  0.25978  1.0000 -0.5402976107
O   O4        1.0  0.38281  0.88261  0.24022  1.0000 -0.5402976107
O   O5        1.0  0.04936  0.43878  0.75846  1.0000 -0.5519877803
O   O6        1.0  0.43878  0.04936  0.74154  1.0000 -0.5519877803
O   O7        1.0  0.95064  0.56122  0.24154  1.0000 -0.5519877803
O   O8        1.0  0.56122  0.95064  0.25846  1.0000 -0.5519877803
