# DDEC6 charges by PACMAN v1.1 (https://github.com/mtap-research/PACMAN-charge/)
data_2015[Cd][nan]3[ASR]27
_chemical_formula_sum              "Cd4 H22 C48 N12 O42"
_cell_length_a       12.177
_cell_length_b       13.175
_cell_length_c       15.814
_cell_angle_alpha    113.972
_cell_angle_beta     92.751
_cell_angle_gamma    89.986

_symmetry_space_group_name_H-M    "P 1"
_symmetry_Int_Tables_number       1

loop_
  _symmetry_equiv_pos_as_xyz
  'x, y, z'

loop_
  _atom_site_type_symbol
  _atom_site_label
  _atom_site_symmetry_multiplicity
  _atom_site_fract_x
  _atom_site_fract_y
  _atom_site_fract_z
  _atom_site_occupancy
  _atom_site_charge
Cd  Cd1       1.0  0.48000  0.68489  0.46936  1.0000 1.1058840183
Cd  Cd2       1.0  0.69751  0.92939  0.60559  1.0000 1.0300336507
Cd  Cd3       1.0  0.97792  0.85628  0.52316  1.0000 1.0593889383
Cd  Cd4       1.0  0.26320  0.87867  0.45528  1.0000 1.0132984546
H   H1        1.0  0.77000  0.53440  0.36830  1.0000 0.0907645699
H   H2        1.0  0.68340  0.52630  0.23160  1.0000 0.1506906421
H   H3        1.0  0.77150  0.62330  0.26800  1.0000 0.1589068261
H   H4        1.0  0.64650  0.64950  0.28210  1.0000 0.1589068261
H   H5        1.0  0.81650  0.95790  0.86020  1.0000 0.1589068261
H   H6        1.0  0.06940  0.76280  0.77010  1.0000 0.1506906421
H   H7        1.0  0.89950  0.76590  0.21150  1.0000 0.1506906421
H   H8        1.0  0.14980  0.98950  0.27380  1.0000 0.1289651644
H   H9        1.0  0.08100  0.08430  0.81330  1.0000 0.1506906421
H   H10       1.0  0.32470  0.19650  0.71180  1.0000 0.1506906421
H   H11       1.0  0.42970  0.48180  0.20090  1.0000 0.1394226094
H   H12       1.0  0.17060  0.63960  0.15370  1.0000 0.1506906421
H   H13       1.0  0.99160  0.09780  0.50090  1.0000 0.1506906421
H   H14       1.0  0.88570  0.29670  0.74540  1.0000 0.1589068261
H   H15       1.0  0.01410  0.61930  0.49230  1.0000 0.1394226094
H   H16       1.0  0.29970  0.62720  0.63350  1.0000 0.1506906421
H   H17       1.0  0.49330  0.04460  0.39680  1.0000 0.0907645699
H   H18       1.0  0.38810  0.19560  0.48570  1.0000 0.1394226094
H   H19       1.0  0.49350  0.18660  0.54290  1.0000 0.1589068261
H   H20       1.0  0.37890  0.14600  0.56000  1.0000 0.1394226094
H   H21       1.0  0.59470  0.47520  0.37570  1.0000 0.3799980608
H   H22       1.0  0.31750  0.00060  0.34250  1.0000 0.3702912656
C   C1        1.0  0.74350  0.69860  0.44720  1.0000 0.5901265172
C   C2        1.0  0.71280  0.58770  0.37070  1.0000 0.0772130666
C   C3        1.0  0.70260  0.59760  0.28000  1.0000 -0.4516695711
C   C4        1.0  0.90700  0.84790  0.70510  1.0000 0.6001636115
C   C5        1.0  0.93830  0.86090  0.80120  1.0000 0.0020179557
C   C6        1.0  0.87820  0.92230  0.87080  1.0000 -0.1097219783
C   C7        1.0  0.90970  0.93310  0.96310  1.0000 0.0506028467
C   C8        1.0  0.98690  0.87320  0.98250  1.0000 0.0097339353
C   C9        1.0  0.04970  0.80590  0.90560  1.0000 0.0281500676
C   C10       1.0  0.02550  0.80390  0.81840  1.0000 -0.1097219783
C   C11       1.0  0.00470  0.86990  0.07460  1.0000 -0.0191466143
C   C12       1.0  0.93580  0.80470  0.10600  1.0000 0.0281500676
C   C13       1.0  0.94640  0.80870  0.19380  1.0000 -0.1318362278
C   C14       1.0  0.02610  0.87550  0.25620  1.0000 0.0281500676
C   C15       1.0  0.09700  0.94220  0.23180  1.0000 -0.1318362278
C   C16       1.0  0.08360  0.93320  0.14100  1.0000 0.0506028467
C   C17       1.0  0.03120  0.87910  0.35290  1.0000 0.5778147804
C   C18       1.0  0.17340  0.03400  0.65040  1.0000 0.5901265172
C   C19       1.0  0.19950  0.13070  0.74630  1.0000 0.0097339353
C   C20       1.0  0.13750  0.13570  0.82190  1.0000 -0.1363970312
C   C21       1.0  0.16240  0.21550  0.90520  1.0000 0.0411772107
C   C22       1.0  0.24070  0.30110  0.92330  1.0000 0.0097339353
C   C23       1.0  0.29740  0.29580  0.84900  1.0000 0.0411772107
C   C24       1.0  0.27970  0.20410  0.75980  1.0000 -0.1203474748
C   C25       1.0  0.25950  0.39940  0.01570  1.0000 0.0097339353
C   C26       1.0  0.34740  0.39480  0.07410  1.0000 0.0281500676
C   C27       1.0  0.36990  0.48370  0.16270  1.0000 -0.1481139484
C   C28       1.0  0.30010  0.57230  0.18970  1.0000 0.0184797281
C   C29       1.0  0.21570  0.57820  0.13430  1.0000 -0.1097219783
C   C30       1.0  0.19630  0.49320  0.04920  1.0000 0.0411772107
C   C31       1.0  0.32660  0.66790  0.28600  1.0000 0.6001636115
C   C32       1.0  0.85030  0.08800  0.62170  1.0000 0.5778147804
C   C33       1.0  0.92500  0.18080  0.62130  1.0000 0.0281500676
C   C34       1.0  0.98720  0.16720  0.54960  1.0000 -0.1203474748
C   C35       1.0  0.04540  0.25830  0.54900  1.0000 0.0281500676
C   C36       1.0  0.04170  0.36460  0.61890  1.0000 -0.0191466143
C   C37       1.0  0.97800  0.37280  0.69140  1.0000 0.0411772107
C   C38       1.0  0.92490  0.28660  0.69360  1.0000 -0.1046872037
C   C39       1.0  0.08360  0.46090  0.60440  1.0000 -0.0149181523
C   C40       1.0  0.01760  0.50210  0.55100  1.0000 -0.00294584
C   C41       1.0  0.05940  0.58970  0.52520  1.0000 -0.1318362278
C   C42       1.0  0.16820  0.62790  0.55060  1.0000 0.0184797281
C   C43       1.0  0.23160  0.59340  0.60920  1.0000 -0.1203474748
C   C44       1.0  0.19500  0.51220  0.63040  1.0000 0.0411772107
C   C45       1.0  0.20700  0.71920  0.52130  1.0000 0.5901265172
C   C46       1.0  0.50350  0.96700  0.48890  1.0000 0.5778147804
C   C47       1.0  0.44380  0.03690  0.44100  1.0000 0.1289651644
C   C48       1.0  0.42430  0.15180  0.51410  1.0000 -0.4867787632
N   N1        1.0  0.96480  0.48250  0.76410  1.0000 0.5114919741
N   N2        1.0  0.84130  0.01110  0.03860  1.0000 0.5114919741
N   N3        1.0  0.13740  0.74120  0.92060  1.0000 0.5185474781
N   N4        1.0  0.84770  0.73130  0.04280  1.0000 0.5114919741
N   N5        1.0  0.15840  0.00670  0.11770  1.0000 0.5114919741
N   N6        1.0  0.10550  0.20750  0.98390  1.0000 0.5114919741
N   N7        1.0  0.42480  0.30430  0.05350  1.0000 0.5114919741
N   N8        1.0  0.10070  0.49610  0.99250  1.0000 0.5026146201
N   N9        1.0  0.38880  0.37450  0.85490  1.0000 0.5026146201
N   N10       1.0  0.26340  0.47620  0.69180  1.0000 0.5026146201
N   N11       1.0  0.90860  0.46380  0.51820  1.0000 0.4754511443
N   N12       1.0  0.10900  0.24180  0.46870  1.0000 0.5114919741
O   O1        1.0  0.66140  0.75840  0.48950  1.0000 -0.6116746041
O   O2        1.0  0.84170  0.72020  0.46570  1.0000 -0.509451327
O   O3        1.0  0.60930  0.55030  0.39210  1.0000 -0.509451327
O   O4        1.0  0.81190  0.87960  0.69510  1.0000 -0.5581597361
O   O5        1.0  0.97640  0.81300  0.64640  1.0000 -0.5299058728
O   O6        1.0  0.74800  0.02810  0.01750  1.0000 -0.2798784572
O   O7        1.0  0.88700  0.05940  0.11190  1.0000 -0.2916650844
O   O8        1.0  0.21360  0.71990  0.86470  1.0000 -0.3282348039
O   O9        1.0  0.13870  0.70940  0.98190  1.0000 -0.3057718846
O   O10       1.0  0.82880  0.73410  0.97160  1.0000 -0.2601634684
O   O11       1.0  0.80780  0.66210  0.06490  1.0000 -0.2726272913
O   O12       1.0  0.20160  0.96450  0.04270  1.0000 -0.3282348039
O   O13       1.0  0.17760  0.09960  0.17640  1.0000 -0.2916650844
O   O14       1.0  0.10500  0.94550  0.41060  1.0000 -0.6249581548
O   O15       1.0  0.96170  0.82270  0.37080  1.0000 -0.509451327
O   O16       1.0  0.08010  0.99670  0.63380  1.0000 -0.5209196183
O   O17       1.0  0.25570  0.01290  0.59740  1.0000 -0.5581597361
O   O18       1.0  0.06860  0.12350  0.97530  1.0000 -0.2459668788
O   O19       1.0  0.07600  0.29570  0.04360  1.0000 -0.2979709777
O   O20       1.0  0.38140  0.46920  0.91340  1.0000 -0.3282348039
O   O21       1.0  0.45950  0.34170  0.80210  1.0000 -0.2798784572
O   O22       1.0  0.38170  0.20830  0.01360  1.0000 -0.3458192023
O   O23       1.0  0.51880  0.31780  0.06540  1.0000 -0.2798784572
O   O24       1.0  0.09590  0.44870  0.90880  1.0000 -0.2798784572
O   O25       1.0  0.02690  0.55080  0.03250  1.0000 -0.2423897805
O   O26       1.0  0.25400  0.73790  0.31370  1.0000 -0.5299058728
O   O27       1.0  0.41560  0.66080  0.32980  1.0000 -0.601110098
O   O28       1.0  0.78060  0.10890  0.68090  1.0000 -0.509451327
O   O29       1.0  0.85290  0.99380  0.55280  1.0000 -0.5882146927
O   O30       1.0  0.88130  0.49570  0.81320  1.0000 -0.3282348039
O   O31       1.0  0.03420  0.55550  0.77900  1.0000 -0.3282348039
O   O32       1.0  0.05860  0.18040  0.39150  1.0000 -0.3437637958
O   O33       1.0  0.19620  0.28770  0.48010  1.0000 -0.2979709777
O   O34       1.0  0.23980  0.39440  0.70280  1.0000 -0.2916650844
O   O35       1.0  0.35030  0.52340  0.71840  1.0000 -0.2118754509
O   O36       1.0  0.84630  0.48090  0.58170  1.0000 -0.3282348039
O   O37       1.0  0.88370  0.42120  0.44190  1.0000 -0.2601634684
O   O38       1.0  0.30810  0.74180  0.53320  1.0000 -0.5822268697
O   O39       1.0  0.13870  0.75860  0.48410  1.0000 -0.5299058728
O   O40       1.0  0.45220  0.88420  0.48950  1.0000 -0.5882146927
O   O41       1.0  0.60080  0.99920  0.52010  1.0000 -0.5352228853
O   O42       1.0  0.34650  0.98950  0.39350  1.0000 -0.459353474
