# DDEC6 charges by PACMAN v1.1 (https://github.com/mtap-research/PACMAN-charge/)
data_2015[Ce][nan]3[ASR]1
_chemical_formula_sum              "Ce3 H36 C63 N3 O18"
_cell_length_a       14.6366
_cell_length_b       14.6366
_cell_length_c       14.6366
_cell_angle_alpha    111.438
_cell_angle_beta     111.438
_cell_angle_gamma    111.438

_symmetry_space_group_name_H-M    "P 1"
_symmetry_Int_Tables_number       1

loop_
  _symmetry_equiv_pos_as_xyz
  'x, y, z'

loop_
  _atom_site_type_symbol
  _atom_site_label
  _atom_site_symmetry_multiplicity
  _atom_site_fract_x
  _atom_site_fract_y
  _atom_site_fract_z
  _atom_site_occupancy
  _atom_site_charge
Ce  Ce1       1.0  0.31586  0.68414  0.00000  1.0000 1.9932128873
Ce  Ce2       1.0  0.68414  0.00000  0.31586  1.0000 1.9932128873
Ce  Ce3       1.0  0.00000  0.31586  0.68414  1.0000 1.9932128873
H   H1        1.0  0.72620  0.74730  0.14360  1.0000 0.1322311001
H   H2        1.0  0.74730  0.14360  0.72620  1.0000 0.1322311001
H   H3        1.0  0.14360  0.72620  0.74730  1.0000 0.1322311001
H   H4        1.0  0.27380  0.85640  0.25270  1.0000 0.1322311001
H   H5        1.0  0.25270  0.27380  0.85640  1.0000 0.1322311001
H   H6        1.0  0.85640  0.25270  0.27380  1.0000 0.1322311001
H   H7        1.0  0.84080  0.67320  0.16250  1.0000 0.1322311001
H   H8        1.0  0.67320  0.16250  0.84080  1.0000 0.1322311001
H   H9        1.0  0.16250  0.84080  0.67320  1.0000 0.1322311001
H   H10       1.0  0.15920  0.83750  0.32680  1.0000 0.1322311001
H   H11       1.0  0.32680  0.15920  0.83750  1.0000 0.1322311001
H   H12       1.0  0.83750  0.32680  0.15920  1.0000 0.1322311001
H   H13       1.0  0.50350  0.51280  0.16220  1.0000 0.1199819078
H   H14       1.0  0.51280  0.16220  0.50350  1.0000 0.1199819078
H   H15       1.0  0.16220  0.50350  0.51280  1.0000 0.1199819078
H   H16       1.0  0.49650  0.83780  0.48720  1.0000 0.1199819078
H   H17       1.0  0.48720  0.49650  0.83780  1.0000 0.1199819078
H   H18       1.0  0.83780  0.48720  0.49650  1.0000 0.1199819078
H   H19       1.0  0.62010  0.43560  0.18670  1.0000 0.1199819078
H   H20       1.0  0.43560  0.18670  0.62010  1.0000 0.1199819078
H   H21       1.0  0.18670  0.62010  0.43560  1.0000 0.1199819078
H   H22       1.0  0.37990  0.81330  0.56440  1.0000 0.1199819078
H   H23       1.0  0.56440  0.37990  0.81330  1.0000 0.1199819078
H   H24       1.0  0.81330  0.56440  0.37990  1.0000 0.1199819078
H   H25       1.0  0.72270  0.41060  0.95910  1.0000 0.1199819078
H   H26       1.0  0.41060  0.95910  0.72270  1.0000 0.1199819078
H   H27       1.0  0.95910  0.72270  0.41060  1.0000 0.1199819078
H   H28       1.0  0.27730  0.04090  0.58940  1.0000 0.1199819078
H   H29       1.0  0.58940  0.27730  0.04090  1.0000 0.1199819078
H   H30       1.0  0.04090  0.58940  0.27730  1.0000 0.1199819078
H   H31       1.0  0.81710  0.39660  0.86490  1.0000 0.1199819078
H   H32       1.0  0.39660  0.86490  0.81710  1.0000 0.1199819078
H   H33       1.0  0.86490  0.81710  0.39660  1.0000 0.1199819078
H   H34       1.0  0.18290  0.13510  0.60340  1.0000 0.1199819078
H   H35       1.0  0.60340  0.18290  0.13510  1.0000 0.1199819078
H   H36       1.0  0.13510  0.60340  0.18290  1.0000 0.1199819078
C   C1        1.0  0.74060  0.54590  0.17580  1.0000 0.1816018831
C   C2        1.0  0.54590  0.17580  0.74060  1.0000 0.1816018831
C   C3        1.0  0.17580  0.74060  0.54590  1.0000 0.1816018831
C   C4        1.0  0.25940  0.82420  0.45410  1.0000 0.1816018831
C   C5        1.0  0.45410  0.25940  0.82420  1.0000 0.1816018831
C   C6        1.0  0.82420  0.45410  0.25940  1.0000 0.1816018831
C   C7        1.0  0.70420  0.68460  0.15240  1.0000 -0.0697635313
C   C8        1.0  0.68460  0.15240  0.70420  1.0000 -0.0697635313
C   C9        1.0  0.15240  0.70420  0.68460  1.0000 -0.0697635313
C   C10       1.0  0.29580  0.84760  0.31540  1.0000 -0.0697635313
C   C11       1.0  0.31540  0.29580  0.84760  1.0000 -0.0697635313
C   C12       1.0  0.84760  0.31540  0.29580  1.0000 -0.0697635313
C   C13       1.0  0.77380  0.64060  0.16340  1.0000 -0.1999990568
C   C14       1.0  0.64060  0.16340  0.77380  1.0000 -0.1999990568
C   C15       1.0  0.16340  0.77380  0.64060  1.0000 -0.1999990568
C   C16       1.0  0.22620  0.83660  0.35940  1.0000 -0.1999990568
C   C17       1.0  0.35940  0.22620  0.83660  1.0000 -0.1999990568
C   C18       1.0  0.83660  0.35940  0.22620  1.0000 -0.1999990568
C   C19       1.0  0.60720  0.64250  0.15380  1.0000 -0.0629592191
C   C20       1.0  0.64250  0.15380  0.60720  1.0000 -0.0629592191
C   C21       1.0  0.15380  0.60720  0.64250  1.0000 -0.0629592191
C   C22       1.0  0.39280  0.84620  0.35750  1.0000 -0.0629592191
C   C23       1.0  0.35750  0.39280  0.84620  1.0000 -0.0629592191
C   C24       1.0  0.84620  0.35750  0.39280  1.0000 -0.0629592191
C   C25       1.0  0.57240  0.54590  0.16400  1.0000 -0.0629592191
C   C26       1.0  0.54590  0.16400  0.57240  1.0000 -0.0629592191
C   C27       1.0  0.16400  0.57240  0.54590  1.0000 -0.0629592191
C   C28       1.0  0.42760  0.83600  0.45410  1.0000 -0.0629592191
C   C29       1.0  0.45410  0.42760  0.83600  1.0000 -0.0629592191
C   C30       1.0  0.83600  0.45410  0.42760  1.0000 -0.0629592191
C   C31       1.0  0.64160  0.49790  0.17730  1.0000 -0.2163113642
C   C32       1.0  0.49790  0.17730  0.64160  1.0000 -0.2163113642
C   C33       1.0  0.17730  0.64160  0.49790  1.0000 -0.2163113642
C   C34       1.0  0.35840  0.82270  0.50210  1.0000 -0.2163113642
C   C35       1.0  0.50210  0.35840  0.82270  1.0000 -0.2163113642
C   C36       1.0  0.82270  0.50210  0.35840  1.0000 -0.2163113642
C   C37       1.0  0.53040  0.68600  0.14090  1.0000 0.5910762634
C   C38       1.0  0.68600  0.14090  0.53040  1.0000 0.5910762634
C   C39       1.0  0.14090  0.53040  0.68600  1.0000 0.5910762634
C   C40       1.0  0.46960  0.85910  0.31400  1.0000 0.5910762634
C   C41       1.0  0.31400  0.46960  0.85910  1.0000 0.5910762634
C   C42       1.0  0.85910  0.31400  0.46960  1.0000 0.5910762634
C   C43       1.0  0.87075  0.50000  0.12925  1.0000 0.186828309
C   C44       1.0  0.50000  0.12925  0.87075  1.0000 0.186828309
C   C45       1.0  0.12925  0.87075  0.50000  1.0000 0.186828309
C   C46       1.0  0.80450  0.44410  0.00340  1.0000 -0.1999990568
C   C47       1.0  0.44410  0.00340  0.80450  1.0000 -0.1999990568
C   C48       1.0  0.00340  0.80450  0.44410  1.0000 -0.1999990568
C   C49       1.0  0.19550  0.99660  0.55590  1.0000 -0.1999990568
C   C50       1.0  0.55590  0.19550  0.99660  1.0000 -0.1999990568
C   C51       1.0  0.99660  0.55590  0.19550  1.0000 -0.1999990568
C   C52       1.0  0.86170  0.44010  0.94810  1.0000 -0.0801869321
C   C53       1.0  0.44010  0.94810  0.86170  1.0000 -0.0801869321
C   C54       1.0  0.94810  0.86170  0.44010  1.0000 -0.0801869321
C   C55       1.0  0.13830  0.05190  0.55990  1.0000 -0.0801869321
C   C56       1.0  0.55990  0.13830  0.05190  1.0000 -0.0801869321
C   C57       1.0  0.05190  0.55990  0.13830  1.0000 -0.0801869321
C   C58       1.0  0.98585  0.50000  0.01415  1.0000 -0.0373182186
C   C59       1.0  0.50000  0.01415  0.98585  1.0000 -0.0373182186
C   C60       1.0  0.01415  0.98585  0.50000  1.0000 -0.0373182186
C   C61       1.0  0.04815  0.50000  0.95185  1.0000 0.6265533851
C   C62       1.0  0.50000  0.95185  0.04815  1.0000 0.6265533851
C   C63       1.0  0.95185  0.04815  0.50000  1.0000 0.6265533851
N   N1        1.0  0.81025  0.50000  0.18975  1.0000 -0.1742024484
N   N2        1.0  0.50000  0.18975  0.81025  1.0000 -0.1742024484
N   N3        1.0  0.18975  0.81025  0.50000  1.0000 -0.1742024484
O   O1        1.0  0.42860  0.62820  0.12080  1.0000 -0.5754349742
O   O2        1.0  0.62820  0.12080  0.42860  1.0000 -0.5754349742
O   O3        1.0  0.12080  0.42860  0.62820  1.0000 -0.5754349742
O   O4        1.0  0.57140  0.87920  0.37180  1.0000 -0.5754349742
O   O5        1.0  0.37180  0.57140  0.87920  1.0000 -0.5754349742
O   O6        1.0  0.87920  0.37180  0.57140  1.0000 -0.5754349742
O   O7        1.0  0.57000  0.78470  0.14690  1.0000 -0.7054411087
O   O8        1.0  0.78470  0.14690  0.57000  1.0000 -0.7054411087
O   O9        1.0  0.14690  0.57000  0.78470  1.0000 -0.7054411087
O   O10       1.0  0.43000  0.85310  0.21530  1.0000 -0.7054411087
O   O11       1.0  0.21530  0.43000  0.85310  1.0000 -0.7054411087
O   O12       1.0  0.85310  0.21530  0.43000  1.0000 -0.7054411087
O   O13       1.0  0.98380  0.42480  0.83950  1.0000 -0.6415504727
O   O14       1.0  0.42480  0.83950  0.98380  1.0000 -0.6415504727
O   O15       1.0  0.83950  0.98380  0.42480  1.0000 -0.6415504727
O   O16       1.0  0.01620  0.16050  0.57520  1.0000 -0.6415504727
O   O17       1.0  0.57520  0.01620  0.16050  1.0000 -0.6415504727
O   O18       1.0  0.16050  0.57520  0.01620  1.0000 -0.6415504727
