# DDEC6 charges by PACMAN v1.1 (https://github.com/mtap-research/PACMAN-charge/)
data_2015[La][nan]3[ASR]1
_chemical_formula_sum              "La4 H24 C24 O24"
_cell_length_a       7.976
_cell_length_b       12.006
_cell_length_c       12.284
_cell_angle_alpha    112.01
_cell_angle_beta     90.05
_cell_angle_gamma    100.58

_symmetry_space_group_name_H-M    "P 1"
_symmetry_Int_Tables_number       1

loop_
  _symmetry_equiv_pos_as_xyz
  'x, y, z'

loop_
  _atom_site_type_symbol
  _atom_site_label
  _atom_site_symmetry_multiplicity
  _atom_site_fract_x
  _atom_site_fract_y
  _atom_site_fract_z
  _atom_site_occupancy
  _atom_site_charge
La  La1       1.0  0.99112  0.14308  0.85318  1.0000 1.88024956
La  La2       1.0  0.00888  0.85692  0.14682  1.0000 1.88024956
La  La3       1.0  0.49133  0.14293  0.75029  1.0000 1.8855606319
La  La4       1.0  0.50867  0.85707  0.24971  1.0000 1.8855606319
H   H1        1.0  0.53450  0.10750  0.16240  1.0000 0.1395147771
H   H2        1.0  0.46550  0.89250  0.83760  1.0000 0.1395147771
H   H3        1.0  0.56720  0.24650  0.18170  1.0000 0.1338507237
H   H4        1.0  0.43280  0.75350  0.81830  1.0000 0.1338507237
H   H5        1.0  0.86990  0.25640  0.21170  1.0000 0.1395147771
H   H6        1.0  0.13010  0.74360  0.78830  1.0000 0.1395147771
H   H7        1.0  0.76520  0.22910  0.30980  1.0000 0.1395147771
H   H8        1.0  0.23480  0.77090  0.69020  1.0000 0.1395147771
H   H9        1.0  0.73260  0.76830  0.63890  1.0000 0.1395147771
H   H10       1.0  0.26740  0.23170  0.36110  1.0000 0.1395147771
H   H11       1.0  0.62900  0.74210  0.52050  1.0000 0.1395147771
H   H12       1.0  0.37100  0.25790  0.47950  1.0000 0.1395147771
H   H13       1.0  0.88290  0.55410  0.16310  1.0000 0.1395147771
H   H14       1.0  0.11710  0.44590  0.83690  1.0000 0.1395147771
H   H15       1.0  0.72030  0.47450  0.18970  1.0000 0.1395147771
H   H16       1.0  0.27970  0.52550  0.81030  1.0000 0.1395147771
H   H17       1.0  0.95700  0.89050  0.58490  1.0000 0.1395147771
H   H18       1.0  0.04300  0.10950  0.41510  1.0000 0.1395147771
H   H19       1.0  0.92630  0.75140  0.50330  1.0000 0.1338507237
H   H20       1.0  0.07370  0.24860  0.49670  1.0000 0.1338507237
H   H21       1.0  0.73210  0.51330  0.97620  1.0000 0.1494011285
H   H22       1.0  0.26790  0.48670  0.02380  1.0000 0.1494011285
H   H23       1.0  0.59550  0.41700  0.00260  1.0000 0.1338507237
H   H24       1.0  0.40450  0.58300  0.99740  1.0000 0.1338507237
C   C1        1.0  0.63520  0.13980  0.02230  1.0000 0.6604934038
C   C2        1.0  0.36480  0.86020  0.97770  1.0000 0.6604934038
C   C3        1.0  0.61530  0.17310  0.15200  1.0000 -0.2842306493
C   C4        1.0  0.38470  0.82690  0.84800  1.0000 -0.2842306493
C   C5        1.0  0.78540  0.19590  0.22700  1.0000 -0.2899822208
C   C6        1.0  0.21460  0.80410  0.77300  1.0000 -0.2899822208
C   C7        1.0  0.85560  0.08180  0.20100  1.0000 0.6533265116
C   C8        1.0  0.14440  0.91820  0.79900  1.0000 0.6533265116
C   C9        1.0  0.64430  0.91780  0.63880  1.0000 0.6604934038
C   C10       1.0  0.35570  0.08220  0.36120  1.0000 0.6604934038
C   C11       1.0  0.71340  0.80210  0.58070  1.0000 -0.2899822208
C   C12       1.0  0.28660  0.19790  0.41930  1.0000 -0.2899822208
C   C13       1.0  0.76010  0.52620  0.14660  1.0000 -0.2986373204
C   C14       1.0  0.23990  0.47380  0.85340  1.0000 -0.2986373204
C   C15       1.0  0.67290  0.63290  0.18170  1.0000 0.6419681312
C   C16       1.0  0.32710  0.36710  0.81830  1.0000 0.6419681312
C   C17       1.0  0.86190  0.85690  0.41870  1.0000 0.6671892704
C   C18       1.0  0.13810  0.14310  0.58130  1.0000 0.6671892704
C   C19       1.0  0.87740  0.82440  0.52580  1.0000 -0.2899822208
C   C20       1.0  0.12260  0.17560  0.47420  1.0000 -0.2899822208
C   C21       1.0  0.71580  0.45550  0.01500  1.0000 -0.2899822208
C   C22       1.0  0.28420  0.54450  0.98500  1.0000 -0.2986373204
C   C23       1.0  0.81970  0.35690  0.95600  1.0000 0.6419681312
C   C24       1.0  0.18030  0.64310  0.04400  1.0000 0.6419681312
O   O1        1.0  0.77140  0.27790  0.85040  1.0000 -0.6990414558
O   O2        1.0  0.22860  0.72210  0.14960  1.0000 -0.6990414558
O   O3        1.0  0.94900  0.35510  0.01060  1.0000 -0.5506501196
O   O4        1.0  0.05100  0.64490  0.98940  1.0000 -0.5506501196
O   O5        1.0  0.76650  0.98720  0.20870  1.0000 -0.645926386
O   O6        1.0  0.23350  0.01280  0.79130  1.0000 -0.645926386
O   O7        1.0  0.00990  0.07910  0.17550  1.0000 -0.6038281618
O   O8        1.0  0.99010  0.92090  0.82450  1.0000 -0.6038281618
O   O9        1.0  0.54770  0.63950  0.24390  1.0000 -0.5854457615
O   O10       1.0  0.45230  0.36050  0.75610  1.0000 -0.5854457615
O   O11       1.0  0.72720  0.72170  0.14450  1.0000 -0.7256293295
O   O12       1.0  0.27280  0.27830  0.85550  1.0000 -0.7256293295
O   O13       1.0  0.51580  0.14980  0.96180  1.0000 -0.6221546926
O   O14       1.0  0.48420  0.85020  0.03820  1.0000 -0.6221546926
O   O15       1.0  0.76770  0.10140  0.97980  1.0000 -0.6221546926
O   O16       1.0  0.23230  0.89860  0.02020  1.0000 -0.6221546926
O   O17       1.0  0.98280  0.84730  0.35020  1.0000 -0.6429183481
O   O18       1.0  0.01720  0.15270  0.64980  1.0000 -0.6429183481
O   O19       1.0  0.73100  0.89630  0.40510  1.0000 -0.6221546926
O   O20       1.0  0.26900  0.10370  0.59490  1.0000 -0.6221546926
O   O21       1.0  0.73520  0.01380  0.71620  1.0000 -0.6771434842
O   O22       1.0  0.26480  0.98620  0.28380  1.0000 -0.6771434842
O   O23       1.0  0.48880  0.91960  0.61620  1.0000 -0.6141490338
O   O24       1.0  0.51120  0.08040  0.38380  1.0000 -0.6141490338
