# DDEC6 charges by PACMAN v1.1 (https://github.com/mtap-research/PACMAN-charge/)
data_2015[Cu][nan]3[ASR]20
_chemical_formula_sum              "Cu6 H6 C24 O18"
_cell_length_a       15.0856
_cell_length_b       15.0856
_cell_length_c       15.0856
_cell_angle_alpha    118.117
_cell_angle_beta     118.117
_cell_angle_gamma    118.117

_symmetry_space_group_name_H-M    "P 1"
_symmetry_Int_Tables_number       1

loop_
  _symmetry_equiv_pos_as_xyz
  'x, y, z'

loop_
  _atom_site_type_symbol
  _atom_site_label
  _atom_site_symmetry_multiplicity
  _atom_site_fract_x
  _atom_site_fract_y
  _atom_site_fract_z
  _atom_site_occupancy
  _atom_site_charge
Cu  Cu1       1.0  0.66420  0.92530  0.34750  1.0000 0.9378610054
Cu  Cu2       1.0  0.92530  0.34750  0.66420  1.0000 0.9378610054
Cu  Cu3       1.0  0.34750  0.66420  0.92530  1.0000 0.9378610054
Cu  Cu4       1.0  0.33580  0.07470  0.65250  1.0000 0.9378610054
Cu  Cu5       1.0  0.07470  0.65250  0.33580  1.0000 0.9378610054
Cu  Cu6       1.0  0.65250  0.33580  0.07470  1.0000 0.9378610054
H   H1        1.0  0.10970  0.67430  0.12400  1.0000 0.1556139439
H   H2        1.0  0.67430  0.12400  0.10970  1.0000 0.1556139439
H   H3        1.0  0.12400  0.10970  0.67430  1.0000 0.1556139439
H   H4        1.0  0.89030  0.32570  0.87600  1.0000 0.1556139439
H   H5        1.0  0.32570  0.87600  0.89030  1.0000 0.1556139439
H   H6        1.0  0.87600  0.89030  0.32570  1.0000 0.1556139439
C   C1        1.0  0.29020  0.71740  0.12540  1.0000 0.6180019379
C   C2        1.0  0.71740  0.12540  0.29020  1.0000 0.6180019379
C   C3        1.0  0.12540  0.29020  0.71740  1.0000 0.6180019379
C   C4        1.0  0.70980  0.28260  0.87460  1.0000 0.6180019379
C   C5        1.0  0.28260  0.87460  0.70980  1.0000 0.6180019379
C   C6        1.0  0.87460  0.70980  0.28260  1.0000 0.6180019379
C   C7        1.0  0.27060  0.81160  0.28180  1.0000 -0.1831250489
C   C8        1.0  0.81160  0.28180  0.27060  1.0000 -0.1831250489
C   C9        1.0  0.28180  0.27060  0.81160  1.0000 -0.1831250489
C   C10       1.0  0.72940  0.18840  0.71820  1.0000 -0.1831250489
C   C11       1.0  0.18840  0.71820  0.72940  1.0000 -0.1831250489
C   C12       1.0  0.71820  0.72940  0.18840  1.0000 -0.1831250489
C   C13       1.0  0.41230  0.87690  0.32980  1.0000 -0.1311408033
C   C14       1.0  0.87690  0.32980  0.41230  1.0000 -0.1311408033
C   C15       1.0  0.32980  0.41230  0.87690  1.0000 -0.1311408033
C   C16       1.0  0.58770  0.12310  0.67020  1.0000 -0.1311408033
C   C17       1.0  0.12310  0.67020  0.58770  1.0000 -0.1311408033
C   C18       1.0  0.67020  0.58770  0.12310  1.0000 -0.1311408033
C   C19       1.0  0.64500  0.07180  0.54420  1.0000 0.2836254537
C   C20       1.0  0.07180  0.54420  0.64500  1.0000 0.2836254537
C   C21       1.0  0.54420  0.64500  0.07180  1.0000 0.2836254537
C   C22       1.0  0.35500  0.92820  0.45580  1.0000 0.2836254537
C   C23       1.0  0.92820  0.45580  0.35500  1.0000 0.2836254537
C   C24       1.0  0.45580  0.35500  0.92820  1.0000 0.2836254537
O   O1        1.0  0.10340  0.58260  0.94000  1.0000 -0.4993150234
O   O2        1.0  0.58260  0.94000  0.10340  1.0000 -0.4993150234
O   O3        1.0  0.94000  0.10340  0.58260  1.0000 -0.4993150234
O   O4        1.0  0.89660  0.41740  0.06000  1.0000 -0.4993150234
O   O5        1.0  0.41740  0.06000  0.89660  1.0000 -0.4993150234
O   O6        1.0  0.06000  0.89660  0.41740  1.0000 -0.4993150234
O   O7        1.0  0.36270  0.70460  0.11070  1.0000 -0.5907607327
O   O8        1.0  0.70460  0.11070  0.36270  1.0000 -0.5907607327
O   O9        1.0  0.11070  0.36270  0.70460  1.0000 -0.5907607327
O   O10       1.0  0.63730  0.29540  0.88930  1.0000 -0.5907607327
O   O11       1.0  0.29540  0.88930  0.63730  1.0000 -0.5907607327
O   O12       1.0  0.88930  0.63730  0.29540  1.0000 -0.5907607327
O   O13       1.0  0.76300  0.11640  0.56160  1.0000 -0.5907607327
O   O14       1.0  0.11640  0.56160  0.76300  1.0000 -0.5907607327
O   O15       1.0  0.56160  0.76300  0.11640  1.0000 -0.5907607327
O   O16       1.0  0.23700  0.88360  0.43840  1.0000 -0.5907607327
O   O17       1.0  0.88360  0.43840  0.23700  1.0000 -0.5907607327
O   O18       1.0  0.43840  0.23700  0.88360  1.0000 -0.5907607327
