# DDEC6 charges by PACMAN v1.1 (https://github.com/mtap-research/PACMAN-charge/)
data_2015[Cd][nan]3[ASR]10
_chemical_formula_sum              "Cd8 H120 C184 N16 O24"
_cell_length_a       18.9587
_cell_length_b       18.9587
_cell_length_c       18.9587
_cell_angle_alpha    108.987
_cell_angle_beta     108.987
_cell_angle_gamma    110.444

_symmetry_space_group_name_H-M    "P 1"
_symmetry_Int_Tables_number       1

loop_
  _symmetry_equiv_pos_as_xyz
  'x, y, z'

loop_
  _atom_site_type_symbol
  _atom_site_label
  _atom_site_symmetry_multiplicity
  _atom_site_fract_x
  _atom_site_fract_y
  _atom_site_fract_z
  _atom_site_occupancy
  _atom_site_charge
Cd  Cd1       1.0  0.27749  0.88157  0.01686  1.0000 0.8463027911
Cd  Cd2       1.0  0.73937  0.72251  0.60408  1.0000 0.8463027911
Cd  Cd3       1.0  0.86471  0.26063  0.98314  1.0000 0.8463027911
Cd  Cd4       1.0  0.11843  0.13529  0.39592  1.0000 0.8463027911
Cd  Cd5       1.0  0.38529  0.86843  0.89592  1.0000 0.8463027911
Cd  Cd6       1.0  0.97251  0.48937  0.10408  1.0000 0.8463027911
Cd  Cd7       1.0  0.51063  0.61471  0.48314  1.0000 0.8463027911
Cd  Cd8       1.0  0.13157  0.02749  0.51686  1.0000 0.8463027911
H   H1        1.0  0.27510  0.64840  0.81070  1.0000 0.1494889991
H   H2        1.0  0.53560  0.72490  0.37330  1.0000 0.1494889991
H   H3        1.0  0.83770  0.46440  0.18930  1.0000 0.1494889991
H   H4        1.0  0.35160  0.16230  0.62670  1.0000 0.1494889991
H   H5        1.0  0.41230  0.10160  0.12670  1.0000 0.1494889991
H   H6        1.0  0.97490  0.28560  0.87330  1.0000 0.1494889991
H   H7        1.0  0.71440  0.58770  0.68930  1.0000 0.1494889991
H   H8        1.0  0.89840  0.02510  0.31070  1.0000 0.1494889991
H   H9        1.0  0.16540  0.50530  0.74290  1.0000 0.1202936612
H   H10       1.0  0.57750  0.83460  0.33990  1.0000 0.1202936612
H   H11       1.0  0.76240  0.42250  0.25710  1.0000 0.1202936612
H   H12       1.0  0.49470  0.23760  0.66010  1.0000 0.1202936612
H   H13       1.0  0.48760  0.24470  0.16010  1.0000 0.1202936612
H   H14       1.0  0.08460  0.32750  0.83990  1.0000 0.1202936612
H   H15       1.0  0.67250  0.51240  0.75710  1.0000 0.1202936612
H   H16       1.0  0.75530  0.91540  0.24290  1.0000 0.1202936612
H   H17       1.0  0.05500  0.46850  0.76890  1.0000 0.1202936612
H   H18       1.0  0.71390  0.94500  0.41350  1.0000 0.1202936612
H   H19       1.0  0.69960  0.28610  0.23110  1.0000 0.1202936612
H   H20       1.0  0.53150  0.30040  0.58650  1.0000 0.1202936612
H   H21       1.0  0.55040  0.28150  0.08650  1.0000 0.1202936612
H   H22       1.0  0.19500  0.46390  0.91350  1.0000 0.1202936612
H   H23       1.0  0.53610  0.44960  0.73110  1.0000 0.1202936612
H   H24       1.0  0.71850  0.80500  0.26890  1.0000 0.1202936612
H   H25       1.0  0.98450  0.51440  0.85490  1.0000 0.1310065282
H   H26       1.0  0.87040  0.01550  0.52990  1.0000 0.1310065282
H   H27       1.0  0.65950  0.12960  0.14510  1.0000 0.1310065282
H   H28       1.0  0.48560  0.34050  0.47010  1.0000 0.1310065282
H   H29       1.0  0.59050  0.23560  0.97010  1.0000 0.1310065282
H   H30       1.0  0.26550  0.62040  0.02990  1.0000 0.1310065282
H   H31       1.0  0.37960  0.40950  0.64510  1.0000 0.1310065282
H   H32       1.0  0.76440  0.73450  0.35490  1.0000 0.1310065282
H   H33       1.0  0.98950  0.62390  0.96120  1.0000 0.1426249617
H   H34       1.0  0.97170  0.01050  0.63440  1.0000 0.1426249617
H   H35       1.0  0.66270  0.02830  0.03880  1.0000 0.1426249617
H   H36       1.0  0.37610  0.33730  0.36560  1.0000 0.1426249617
H   H37       1.0  0.58730  0.12610  0.86560  1.0000 0.1426249617
H   H38       1.0  0.26050  0.72170  0.13440  1.0000 0.1426249617
H   H39       1.0  0.27830  0.41270  0.53880  1.0000 0.1426249617
H   H40       1.0  0.87390  0.73950  0.46120  1.0000 0.1426249617
H   H41       1.0  0.15840  0.84930  0.07470  1.0000 0.1202936612
H   H42       1.0  0.91630  0.84160  0.69090  1.0000 0.1202936612
H   H43       1.0  0.77460  0.08370  0.92530  1.0000 0.1202936612
H   H44       1.0  0.15070  0.22540  0.30910  1.0000 0.1202936612
H   H45       1.0  0.47540  0.90070  0.80910  1.0000 0.1202936612
H   H46       1.0  0.09160  0.66630  0.19090  1.0000 0.1202936612
H   H47       1.0  0.33370  0.52460  0.42530  1.0000 0.1202936612
H   H48       1.0  0.09930  0.90840  0.57470  1.0000 0.1202936612
H   H49       1.0  0.99750  0.74660  0.04770  1.0000 0.1202936612
H   H50       1.0  0.05020  0.00250  0.74910  1.0000 0.1202936612
H   H51       1.0  0.69890  0.94980  0.95230  1.0000 0.1202936612
H   H52       1.0  0.25340  0.30110  0.25090  1.0000 0.1202936612
H   H53       1.0  0.55110  0.00340  0.75090  1.0000 0.1202936612
H   H54       1.0  0.25250  0.80020  0.24910  1.0000 0.1202936612
H   H55       1.0  0.19980  0.44890  0.45230  1.0000 0.1202936612
H   H56       1.0  0.99660  0.74750  0.54770  1.0000 0.1202936612
H   H57       1.0  0.94250  0.82400  0.12310  1.0000 0.1310065282
H   H58       1.0  0.18060  0.05750  0.88150  1.0000 0.1310065282
H   H59       1.0  0.70090  0.81940  0.87690  1.0000 0.1310065282
H   H60       1.0  0.17600  0.29910  0.11850  1.0000 0.1310065282
H   H61       1.0  0.54910  0.92600  0.61850  1.0000 0.1310065282
H   H62       1.0  0.30750  0.93060  0.38150  1.0000 0.1310065282
H   H63       1.0  0.06940  0.45090  0.37690  1.0000 0.1310065282
H   H64       1.0  0.07400  0.69250  0.62310  1.0000 0.1310065282
H   H65       1.0  0.96290  0.94790  0.22540  1.0000 0.108236492
H   H66       1.0  0.26250  0.03710  0.98500  1.0000 0.108236492
H   H67       1.0  0.72250  0.73750  0.77460  1.0000 0.108236492
H   H68       1.0  0.05210  0.27750  0.01500  1.0000 0.108236492
H   H69       1.0  0.52750  0.80210  0.51500  1.0000 0.108236492
H   H70       1.0  0.28710  0.01250  0.48500  1.0000 0.108236492
H   H71       1.0  0.98750  0.47250  0.27460  1.0000 0.108236492
H   H72       1.0  0.19790  0.71290  0.72540  1.0000 0.108236492
H   H73       1.0  0.20700  0.06890  0.29650  1.0000 0.108236492
H   H74       1.0  0.08950  0.79300  0.86190  1.0000 0.108236492
H   H75       1.0  0.77240  0.91050  0.70350  1.0000 0.108236492
H   H76       1.0  0.93110  0.22760  0.13810  1.0000 0.108236492
H   H77       1.0  0.47760  0.68110  0.63810  1.0000 0.108236492
H   H78       1.0  0.04300  0.83950  0.36190  1.0000 0.108236492
H   H79       1.0  0.16050  0.52240  0.20350  1.0000 0.108236492
H   H80       1.0  0.31890  0.95700  0.79650  1.0000 0.108236492
H   H81       1.0  0.19000  0.95720  0.18620  1.0000 0.1426249617
H   H82       1.0  0.99620  0.81000  0.76720  1.0000 0.1426249617
H   H83       1.0  0.77100  0.00380  0.81380  1.0000 0.1426249617
H   H84       1.0  0.04280  0.22900  0.23280  1.0000 0.1426249617
H   H85       1.0  0.47900  0.79280  0.73280  1.0000 0.1426249617
H   H86       1.0  0.06000  0.74620  0.26720  1.0000 0.1426249617
H   H87       1.0  0.25380  0.52100  0.31380  1.0000 0.1426249617
H   H88       1.0  0.20720  0.94000  0.68620  1.0000 0.1426249617
H   H89       1.0  0.42000  0.86050  0.26150  1.0000 0.1202936612
H   H90       1.0  0.84150  0.58000  0.44050  1.0000 0.1202936612
H   H91       1.0  0.59900  0.15850  0.73850  1.0000 0.1202936612
H   H92       1.0  0.13950  0.40100  0.55950  1.0000 0.1202936612
H   H93       1.0  0.65100  0.88950  0.05950  1.0000 0.1202936612
H   H94       1.0  0.83000  0.59150  0.94050  1.0000 0.1202936612
H   H95       1.0  0.40850  0.34900  0.23850  1.0000 0.1202936612
H   H96       1.0  0.11050  0.17000  0.76150  1.0000 0.1202936612
H   H97       1.0  0.50670  0.90830  0.40600  1.0000 0.108236492
H   H98       1.0  0.89930  0.49330  0.40160  1.0000 0.108236492
H   H99       1.0  0.50230  0.10070  0.59400  1.0000 0.108236492
H   H100      1.0  0.09170  0.49770  0.59840  1.0000 0.108236492
H   H101      1.0  0.74770  0.84170  0.09840  1.0000 0.108236492
H   H102      1.0  0.74330  0.64930  0.90160  1.0000 0.108236492
H   H103      1.0  0.35070  0.25230  0.09400  1.0000 0.108236492
H   H104      1.0  0.15830  0.25670  0.90600  1.0000 0.108236492
H   H105      1.0  0.48600  0.12140  0.47300  1.0000 0.108236492
H   H106      1.0  0.98700  0.51400  0.63540  1.0000 0.108236492
H   H107      1.0  0.64840  0.01300  0.52700  1.0000 0.108236492
H   H108      1.0  0.87860  0.35160  0.36460  1.0000 0.108236492
H   H109      1.0  0.60160  0.62860  0.86460  1.0000 0.108236492
H   H110      1.0  0.76400  0.73700  0.13540  1.0000 0.108236492
H   H111      1.0  0.26300  0.39840  0.02700  1.0000 0.108236492
H   H112      1.0  0.37140  0.23600  0.97300  1.0000 0.108236492
H   H113      1.0  0.40070  0.07460  0.32810  1.0000 0.1202936612
H   H114      1.0  0.92740  0.59930  0.67390  1.0000 0.1202936612
H   H115      1.0  0.74650  0.07260  0.67190  1.0000 0.1202936612
H   H116      1.0  0.92540  0.25350  0.32610  1.0000 0.1202936612
H   H117      1.0  0.50350  0.67540  0.82610  1.0000 0.1202936612
H   H118      1.0  0.84930  0.67740  0.17390  1.0000 0.1202936612
H   H119      1.0  0.32260  0.49650  0.17190  1.0000 0.1202936612
H   H120      1.0  0.32460  0.15070  0.82810  1.0000 0.1202936612
C   C1        1.0  0.22940  0.70270  0.88170  1.0000 0.2678570883
C   C2        1.0  0.65230  0.77060  0.47330  1.0000 0.2678570883
C   C3        1.0  0.82100  0.34770  0.11830  1.0000 0.2678570883
C   C4        1.0  0.29730  0.17900  0.52670  1.0000 0.2678570883
C   C5        1.0  0.42900  0.04730  0.02670  1.0000 0.2678570883
C   C6        1.0  0.02060  0.40230  0.97330  1.0000 0.2678570883
C   C7        1.0  0.59770  0.57100  0.61830  1.0000 0.2678570883
C   C8        1.0  0.95270  0.97940  0.38170  1.0000 0.2678570883
C   C9        1.0  0.22970  0.63560  0.82330  1.0000 -0.2549840672
C   C10       1.0  0.59360  0.77030  0.40590  1.0000 -0.255970983
C   C11       1.0  0.81230  0.40640  0.17670  1.0000 -0.255970983
C   C12       1.0  0.36440  0.18770  0.59410  1.0000 -0.255970983
C   C13       1.0  0.43770  0.11440  0.09410  1.0000 -0.255970983
C   C14       1.0  0.02030  0.34360  0.90590  1.0000 -0.2549840672
C   C15       1.0  0.65640  0.56230  0.67670  1.0000 -0.2549840672
C   C16       1.0  0.88560  0.97970  0.32330  1.0000 -0.255970983
C   C17       1.0  0.16340  0.54890  0.78250  1.0000 -0.0905663419
C   C18       1.0  0.61910  0.83660  0.38550  1.0000 -0.0905663419
C   C19       1.0  0.76640  0.38090  0.21750  1.0000 -0.0905663419
C   C20       1.0  0.45110  0.23360  0.61450  1.0000 -0.0905663419
C   C21       1.0  0.48360  0.20110  0.11450  1.0000 -0.0905663419
C   C22       1.0  0.08660  0.36910  0.88550  1.0000 -0.0905663419
C   C23       1.0  0.63090  0.51640  0.71750  1.0000 -0.0905663419
C   C24       1.0  0.79890  0.91340  0.28250  1.0000 -0.0905663419
C   C25       1.0  0.09860  0.52700  0.79800  1.0000 -0.2023262767
C   C26       1.0  0.69940  0.90140  0.42840  1.0000 -0.2023262767
C   C27       1.0  0.72900  0.30060  0.20200  1.0000 -0.2023262767
C   C28       1.0  0.47300  0.27100  0.57160  1.0000 -0.2023262767
C   C29       1.0  0.52100  0.22300  0.07160  1.0000 -0.2023262767
C   C30       1.0  0.15140  0.44940  0.92840  1.0000 -0.2023262767
C   C31       1.0  0.55060  0.47900  0.70200  1.0000 -0.2023262767
C   C32       1.0  0.77700  0.84860  0.29800  1.0000 -0.2023262767
C   C33       1.0  0.09360  0.59050  0.85810  1.0000 0.0474557169
C   C34       1.0  0.76450  0.90640  0.49690  1.0000 0.0474557169
C   C35       1.0  0.73240  0.23550  0.14190  1.0000 0.0474557169
C   C36       1.0  0.40950  0.26760  0.50310  1.0000 0.0474557169
C   C37       1.0  0.51760  0.15950  0.00310  1.0000 0.0474557169
C   C38       1.0  0.15640  0.51450  0.99690  1.0000 0.0474557169
C   C39       1.0  0.48550  0.48240  0.64190  1.0000 0.0474557169
C   C40       1.0  0.84050  0.84360  0.35810  1.0000 0.0474557169
C   C41       1.0  0.16000  0.67820  0.90040  1.0000 0.0704884224
C   C42       1.0  0.74040  0.84000  0.51820  1.0000 0.0704884224
C   C43       1.0  0.77780  0.25960  0.09960  1.0000 0.0704884224
C   C44       1.0  0.32180  0.22220  0.48180  1.0000 0.0704884224
C   C45       1.0  0.47220  0.07180  0.98180  1.0000 0.0704884224
C   C46       1.0  0.09000  0.49040  0.01820  1.0000 0.0704884224
C   C47       1.0  0.50960  0.52780  0.59960  1.0000 0.0704884224
C   C48       1.0  0.92820  0.91000  0.40040  1.0000 0.0704884224
C   C49       1.0  0.02960  0.57190  0.88190  1.0000 -0.0905663419
C   C50       1.0  0.85230  0.97040  0.54230  1.0000 -0.0905663419
C   C51       1.0  0.69000  0.14770  0.11810  1.0000 -0.0905663419
C   C52       1.0  0.42810  0.31000  0.45770  1.0000 -0.0955956741
C   C53       1.0  0.56000  0.17810  0.95770  1.0000 -0.0955956741
C   C54       1.0  0.22040  0.60230  0.04230  1.0000 -0.0955956741
C   C55       1.0  0.39770  0.44000  0.61810  1.0000 -0.0905663419
C   C56       1.0  0.82190  0.77960  0.38190  1.0000 -0.0905663419
C   C57       1.0  0.03170  0.63700  0.94430  1.0000 -0.171867059
C   C58       1.0  0.91260  0.96830  0.60530  1.0000 -0.171867059
C   C59       1.0  0.69270  0.08740  0.05570  1.0000 -0.171867059
C   C60       1.0  0.36300  0.30730  0.39470  1.0000 -0.171867059
C   C61       1.0  0.55730  0.11300  0.89470  1.0000 -0.171867059
C   C62       1.0  0.21830  0.66260  0.10530  1.0000 -0.171867059
C   C63       1.0  0.33740  0.44270  0.55570  1.0000 -0.171867059
C   C64       1.0  0.88700  0.78170  0.44430  1.0000 -0.171867059
C   C65       1.0  0.09750  0.72260  0.98190  1.0000 0.2416624786
C   C66       1.0  0.88440  0.90250  0.62510  1.0000 0.2416624786
C   C67       1.0  0.74070  0.11560  0.01810  1.0000 0.2416624786
C   C68       1.0  0.27740  0.25930  0.37490  1.0000 0.2416624786
C   C69       1.0  0.50930  0.02740  0.87490  1.0000 0.2416624786
C   C70       1.0  0.15250  0.63440  0.12510  1.0000 0.2416624786
C   C71       1.0  0.36560  0.49070  0.51810  1.0000 0.2416624786
C   C72       1.0  0.97260  0.84750  0.48190  1.0000 0.2416624786
C   C73       1.0  0.10650  0.79650  0.04780  1.0000 -0.1580822481
C   C74       1.0  0.94130  0.89350  0.69000  1.0000 -0.1580822481
C   C75       1.0  0.74870  0.05870  0.95220  1.0000 -0.1580822481
C   C76       1.0  0.20350  0.25130  0.31000  1.0000 -0.1580822481
C   C77       1.0  0.50130  0.95350  0.81000  1.0000 -0.1580822481
C   C78       1.0  0.14350  0.69130  0.19000  1.0000 -0.1580822481
C   C79       1.0  0.30870  0.49870  0.45220  1.0000 -0.1580822481
C   C80       1.0  0.04650  0.85650  0.54780  1.0000 -0.1580822481
C   C81       1.0  0.05030  0.79850  0.07460  1.0000 -0.1224123998
C   C82       1.0  0.02430  0.94970  0.74820  1.0000 -0.1224123998
C   C83       1.0  0.72390  0.97570  0.92540  1.0000 -0.1224123998
C   C84       1.0  0.20150  0.27610  0.25180  1.0000 -0.1224123998
C   C85       1.0  0.52610  0.95150  0.75180  1.0000 -0.1224123998
C   C86       1.0  0.19970  0.77430  0.24820  1.0000 -0.1224123998
C   C87       1.0  0.22570  0.47390  0.42540  1.0000 -0.1224123998
C   C88       1.0  0.04850  0.80030  0.57460  1.0000 -0.1224123998
C   C89       1.0  0.06370  0.87440  0.14210  1.0000 0.157238199
C   C90       1.0  0.07840  0.93630  0.81070  1.0000 0.157238199
C   C91       1.0  0.73230  0.92160  0.85790  1.0000 0.157238199
C   C92       1.0  0.12560  0.26770  0.18930  1.0000 0.157238199
C   C93       1.0  0.51770  0.87560  0.68930  1.0000 0.157238199
C   C94       1.0  0.18630  0.82840  0.31070  1.0000 0.157238199
C   C95       1.0  0.17160  0.48230  0.35790  1.0000 0.157238199
C   C96       1.0  0.12440  0.81370  0.64210  1.0000 0.157238199
C   C97       1.0  0.99750  0.87460  0.15630  1.0000 -0.1898148818
C   C98       1.0  0.15880  0.00250  0.87710  1.0000 -0.1898148818
C   C99       1.0  0.71830  0.84120  0.84370  1.0000 -0.1898148818
C   C100      1.0  0.12540  0.28170  0.12290  1.0000 -0.1898148818
C   C101      1.0  0.53170  0.87540  0.62290  1.0000 -0.1898148818
C   C102      1.0  0.25250  0.90880  0.37710  1.0000 -0.1898148818
C   C103      1.0  0.09120  0.46830  0.34370  1.0000 -0.1898148818
C   C104      1.0  0.12460  0.74750  0.65630  1.0000 -0.1898148818
C   C105      1.0  0.01060  0.94900  0.21960  1.0000 0.0704884224
C   C106      1.0  0.20900  0.98940  0.93840  1.0000 0.0704884224
C   C107      1.0  0.72940  0.79100  0.78040  1.0000 0.0704884224
C   C108      1.0  0.05100  0.27060  0.06160  1.0000 0.0704884224
C   C109      1.0  0.52060  0.80100  0.56160  1.0000 0.0704884224
C   C110      1.0  0.23940  0.95900  0.43840  1.0000 0.0704884224
C   C111      1.0  0.04100  0.47940  0.28040  1.0000 0.0704884224
C   C112      1.0  0.19900  0.76060  0.71960  1.0000 0.0704884224
C   C113      1.0  0.15120  0.01960  0.25880  1.0000 0.0785905054
C   C114      1.0  0.10760  0.84880  0.86840  1.0000 0.0785905054
C   C115      1.0  0.76080  0.89240  0.74120  1.0000 0.0785905054
C   C116      1.0  0.98040  0.23920  0.13160  1.0000 0.0785905054
C   C117      1.0  0.48920  0.73040  0.63160  1.0000 0.0785905054
C   C118      1.0  0.09880  0.85760  0.36840  1.0000 0.0785905054
C   C119      1.0  0.14240  0.51080  0.24120  1.0000 0.0785905054
C   C120      1.0  0.26960  0.90120  0.75880  1.0000 0.0785905054
C   C121      1.0  0.14260  0.95170  0.19470  1.0000 -0.1898148818
C   C122      1.0  0.05210  0.85740  0.80910  1.0000 -0.1898148818
C   C123      1.0  0.75700  0.94790  0.80530  1.0000 -0.1898148818
C   C124      1.0  0.04830  0.24300  0.19090  1.0000 -0.1898148818
C   C125      1.0  0.49300  0.79830  0.69090  1.0000 -0.1898148818
C   C126      1.0  0.10740  0.80210  0.30910  1.0000 -0.1898148818
C   C127      1.0  0.19790  0.50700  0.30530  1.0000 -0.1898148818
C   C128      1.0  0.20170  0.89260  0.69470  1.0000 -0.1898148818
C   C129      1.0  0.35420  0.93410  0.18650  1.0000 0.541974424
C   C130      1.0  0.83230  0.64580  0.57990  1.0000 0.541974424
C   C131      1.0  0.74760  0.16770  0.81350  1.0000 0.541974424
C   C132      1.0  0.06590  0.25240  0.42010  1.0000 0.541974424
C   C133      1.0  0.50240  0.81590  0.92010  1.0000 0.541974424
C   C134      1.0  0.89580  0.58230  0.07990  1.0000 0.541974424
C   C135      1.0  0.41770  0.49760  0.31350  1.0000 0.541974424
C   C136      1.0  0.18410  0.10420  0.68650  1.0000 0.541974424
C   C137      1.0  0.40540  0.96500  0.28120  1.0000 -0.0232972821
C   C138      1.0  0.87580  0.59460  0.55960  1.0000 -0.0232972821
C   C139      1.0  0.68380  0.12420  0.71880  1.0000 -0.0232972821
C   C140      1.0  0.03500  0.31620  0.44040  1.0000 -0.0232972821
C   C141      1.0  0.56620  0.78500  0.94040  1.0000 -0.0232972821
C   C142      1.0  0.84460  0.62580  0.05960  1.0000 -0.0232972821
C   C143      1.0  0.37420  0.43380  0.21880  1.0000 -0.0232972821
C   C144      1.0  0.21500  0.15540  0.78120  1.0000 -0.0232972821
C   C145      1.0  0.43500  0.91410  0.30410  1.0000 -0.1099940128
C   C146      1.0  0.86910  0.56500  0.47910  1.0000 -0.1099940128
C   C147      1.0  0.61000  0.13090  0.69590  1.0000 -0.1099940128
C   C148      1.0  0.08590  0.39000  0.52090  1.0000 -0.1099940128
C   C149      1.0  0.64000  0.83590  0.02090  1.0000 -0.1099940128
C   C150      1.0  0.81500  0.61910  0.97910  1.0000 -0.1099940128
C   C151      1.0  0.38090  0.36000  0.19590  1.0000 -0.1099940128
C   C152      1.0  0.16410  0.18500  0.80410  1.0000 -0.1099940128
C   C153      1.0  0.48670  0.94280  0.39050  1.0000 -0.1580822481
C   C154      1.0  0.90380  0.51330  0.45610  1.0000 -0.1580822481
C   C155      1.0  0.55230  0.09620  0.60950  1.0000 -0.1580822481
C   C156      1.0  0.05720  0.44770  0.54390  1.0000 -0.1580822481
C   C157      1.0  0.69770  0.80720  0.04390  1.0000 -0.1580822481
C   C158      1.0  0.76330  0.65380  0.95610  1.0000 -0.1580822481
C   C159      1.0  0.34620  0.30230  0.10950  1.0000 -0.1580822481
C   C160      1.0  0.19280  0.23670  0.89050  1.0000 -0.1580822481
C   C161      1.0  0.50920  0.02300  0.45460  1.0000 0.0704884224
C   C162      1.0  0.94540  0.49080  0.51380  1.0000 0.0704884224
C   C163      1.0  0.56840  0.05460  0.54540  1.0000 0.0704884224
C   C164      1.0  0.97700  0.43160  0.48620  1.0000 0.0704884224
C   C165      1.0  0.68160  0.72700  0.98620  1.0000 0.0704884224
C   C166      1.0  0.74080  0.69540  0.01380  1.0000 0.0704884224
C   C167      1.0  0.30460  0.31840  0.04540  1.0000 0.0704884224
C   C168      1.0  0.27300  0.25920  0.95460  1.0000 0.0704884224
C   C169      1.0  0.47480  0.06980  0.43060  1.0000 -0.1580822481
C   C170      1.0  0.95580  0.52520  0.59500  1.0000 -0.1580822481
C   C171      1.0  0.63920  0.04420  0.56940  1.0000 -0.1580822481
C   C172      1.0  0.93020  0.36080  0.40500  1.0000 -0.1580822481
C   C173      1.0  0.61080  0.68020  0.90500  1.0000 -0.1580822481
C   C174      1.0  0.77520  0.70580  0.09500  1.0000 -0.1580822481
C   C175      1.0  0.29420  0.38920  0.06940  1.0000 -0.1580822481
C   C176      1.0  0.31980  0.22480  0.93060  1.0000 -0.1580822481
C   C177      1.0  0.42310  0.04150  0.34360  1.0000 -0.1099940128
C   C178      1.0  0.92050  0.57690  0.61840  1.0000 -0.1099940128
C   C179      1.0  0.69790  0.07950  0.65640  1.0000 -0.1099940128
C   C180      1.0  0.95850  0.30210  0.38160  1.0000 -0.1099940128
C   C181      1.0  0.55210  0.70850  0.88160  1.0000 -0.1099940128
C   C182      1.0  0.82690  0.67050  0.11840  1.0000 -0.1099940128
C   C183      1.0  0.32950  0.44790  0.15640  1.0000 -0.1099940128
C   C184      1.0  0.29150  0.17310  0.84360  1.0000 -0.1099940128
N   N1        1.0  0.16030  0.74264  0.95994  1.0000 -0.3452708287
N   N2        1.0  0.79964  0.83970  0.58234  1.0000 -0.3447528346
N   N3        1.0  0.78270  0.20036  0.04006  1.0000 -0.3452708287
N   N4        1.0  0.25736  0.21730  0.41766  1.0000 -0.3452708287
N   N5        1.0  0.46730  0.00736  0.91766  1.0000 -0.3447528346
N   N6        1.0  0.08970  0.54964  0.08234  1.0000 -0.3452708287
N   N7        1.0  0.45036  0.53270  0.54006  1.0000 -0.3447528346
N   N8        1.0  0.99264  0.91030  0.45994  1.0000 -0.3447528346
N   N9        1.0  0.08840  0.02190  0.27230  1.0000 -0.238276658
N   N10       1.0  0.18390  0.91160  0.93350  1.0000 -0.238276658
N   N11       1.0  0.74960  0.81610  0.72770  1.0000 -0.238276658
N   N12       1.0  0.97810  0.25040  0.06650  1.0000 -0.238276658
N   N13       1.0  0.50040  0.72810  0.56650  1.0000 -0.238276658
N   N14       1.0  0.16160  0.93390  0.43350  1.0000 -0.238276658
N   N15       1.0  0.06610  0.49960  0.22770  1.0000 -0.238276658
N   N16       1.0  0.27190  0.83840  0.77230  1.0000 -0.238276658
O   O1        1.0  0.28820  0.78448  0.92008  1.0000 -0.5262004162
O   O2        1.0  0.63188  0.71180  0.49628  1.0000 -0.5262004162
O   O3        1.0  0.86440  0.36812  0.07992  1.0000 -0.5262004162
O   O4        1.0  0.21552  0.13560  0.50372  1.0000 -0.5262004162
O   O5        1.0  0.38560  0.96552  0.00372  1.0000 -0.5262004162
O   O6        1.0  0.96180  0.38188  0.99628  1.0000 -0.5262004162
O   O7        1.0  0.61812  0.61440  0.57992  1.0000 -0.5262004162
O   O8        1.0  0.03448  0.03820  0.42008  1.0000 -0.5262004162
O   O9        1.0  0.32197  0.97660  0.16337  1.0000 -0.5764566524
O   O10       1.0  0.84140  0.67803  0.65463  1.0000 -0.5764566524
O   O11       1.0  0.81323  0.15860  0.83663  1.0000 -0.5764566524
O   O12       1.0  0.02340  0.18677  0.34537  1.0000 -0.5764566524
O   O13       1.0  0.43677  0.77340  0.84537  1.0000 -0.5764566524
O   O14       1.0  0.92803  0.59140  0.15463  1.0000 -0.5764566524
O   O15       1.0  0.40860  0.56323  0.33663  1.0000 -0.5764566524
O   O16       1.0  0.22660  0.07197  0.66337  1.0000 -0.5764566524
O   O17       1.0  0.34600  0.86770  0.13370  1.0000 -0.5247958465
O   O18       1.0  0.78770  0.65400  0.52170  1.0000 -0.5262004162
O   O19       1.0  0.73400  0.21230  0.86630  1.0000 -0.5262004162
O   O20       1.0  0.13230  0.26600  0.47830  1.0000 -0.5247958465
O   O21       1.0  0.51600  0.88230  0.97830  1.0000 -0.5262004162
O   O22       1.0  0.90400  0.53770  0.02170  1.0000 -0.5247958465
O   O23       1.0  0.46230  0.48400  0.36630  1.0000 -0.5262004162
O   O24       1.0  0.11770  0.09600  0.63370  1.0000 -0.5262004162
