# DDEC6 charges by PACMAN v1.1 (https://github.com/mtap-research/PACMAN-charge/)
data_2015[Co][nan]3[ASR]2
_chemical_formula_sum              "Co3 H72 C120 N24"
_cell_length_a       19.1575
_cell_length_b       19.1575
_cell_length_c       19.1575
_cell_angle_alpha    117.427
_cell_angle_beta     117.427
_cell_angle_gamma    117.427

_symmetry_space_group_name_H-M    "P 1"
_symmetry_Int_Tables_number       1

loop_
  _symmetry_equiv_pos_as_xyz
  'x, y, z'

loop_
  _atom_site_type_symbol
  _atom_site_label
  _atom_site_symmetry_multiplicity
  _atom_site_fract_x
  _atom_site_fract_y
  _atom_site_fract_z
  _atom_site_occupancy
  _atom_site_charge
Co  Co1       1.0  0.00000  0.50000  0.00000  1.0000 0.4822711611
Co  Co2       1.0  0.50000  0.00000  0.00000  1.0000 0.4822711611
Co  Co3       1.0  0.00000  0.00000  0.50000  1.0000 0.4822711611
H   H1        1.0  0.47462  0.90070  0.25400  1.0000 0.1313291633
H   H2        1.0  0.90070  0.25400  0.47462  1.0000 0.1313291633
H   H3        1.0  0.25400  0.47462  0.90070  1.0000 0.1313291633
H   H4        1.0  0.52538  0.09930  0.74600  1.0000 0.1313291633
H   H5        1.0  0.09930  0.74600  0.52538  1.0000 0.1313291633
H   H6        1.0  0.74600  0.52538  0.09930  1.0000 0.1313291633
H   H7        1.0  0.56122  0.92290  0.41610  1.0000 0.1206846802
H   H8        1.0  0.92290  0.41610  0.56122  1.0000 0.1206846802
H   H9        1.0  0.41610  0.56122  0.92290  1.0000 0.1206846802
H   H10       1.0  0.43878  0.07710  0.58390  1.0000 0.1206846802
H   H11       1.0  0.07710  0.58390  0.43878  1.0000 0.1206846802
H   H12       1.0  0.58390  0.43878  0.07710  1.0000 0.1206846802
H   H13       1.0  0.70022  0.35270  0.58680  1.0000 0.1206846802
H   H14       1.0  0.35270  0.58680  0.70022  1.0000 0.1206846802
H   H15       1.0  0.58680  0.70022  0.35270  1.0000 0.1206846802
H   H16       1.0  0.29978  0.64730  0.41320  1.0000 0.1206846802
H   H17       1.0  0.64730  0.41320  0.29978  1.0000 0.1206846802
H   H18       1.0  0.41320  0.29978  0.64730  1.0000 0.1206846802
H   H19       1.0  0.95732  0.55600  0.75370  1.0000 0.1206846802
H   H20       1.0  0.55600  0.75370  0.95732  1.0000 0.1206846802
H   H21       1.0  0.75370  0.95732  0.55600  1.0000 0.1206846802
H   H22       1.0  0.04268  0.44400  0.24630  1.0000 0.1206846802
H   H23       1.0  0.44400  0.24630  0.04268  1.0000 0.1206846802
H   H24       1.0  0.24630  0.04268  0.44400  1.0000 0.1206846802
H   H25       1.0  0.39562  0.97450  0.38160  1.0000 0.1313291633
H   H26       1.0  0.97450  0.38160  0.39562  1.0000 0.1313291633
H   H27       1.0  0.38160  0.39562  0.97450  1.0000 0.1313291633
H   H28       1.0  0.60438  0.02550  0.61840  1.0000 0.1313291633
H   H29       1.0  0.02550  0.61840  0.60438  1.0000 0.1313291633
H   H30       1.0  0.61840  0.60438  0.02550  1.0000 0.1313291633
H   H31       1.0  0.18382  0.84310  0.17250  1.0000 0.1064837266
H   H32       1.0  0.84310  0.17250  0.18382  1.0000 0.1064837266
H   H33       1.0  0.17250  0.18382  0.84310  1.0000 0.1064837266
H   H34       1.0  0.81618  0.15690  0.82750  1.0000 0.1064837266
H   H35       1.0  0.15690  0.82750  0.81618  1.0000 0.1064837266
H   H36       1.0  0.82750  0.81618  0.15690  1.0000 0.1064837266
H   H37       1.0  0.34682  0.19140  0.40280  1.0000 0.1004292482
H   H38       1.0  0.19140  0.40280  0.34682  1.0000 0.1004292482
H   H39       1.0  0.40280  0.34682  0.19140  1.0000 0.1004292482
H   H40       1.0  0.65318  0.80860  0.59720  1.0000 0.1004292482
H   H41       1.0  0.80860  0.59720  0.65318  1.0000 0.1004292482
H   H42       1.0  0.59720  0.65318  0.80860  1.0000 0.1004292482
H   H43       1.0  0.57362  0.34480  0.62710  1.0000 0.1313291633
H   H44       1.0  0.34480  0.62710  0.57362  1.0000 0.1313291633
H   H45       1.0  0.62710  0.57362  0.34480  1.0000 0.1313291633
H   H46       1.0  0.42638  0.65520  0.37290  1.0000 0.1313291633
H   H47       1.0  0.65520  0.37290  0.42638  1.0000 0.1313291633
H   H48       1.0  0.37290  0.42638  0.65520  1.0000 0.1313291633
H   H49       1.0  0.15922  0.58330  0.84220  1.0000 0.1431757846
H   H50       1.0  0.58330  0.84220  0.15922  1.0000 0.1431757846
H   H51       1.0  0.84220  0.15922  0.58330  1.0000 0.1431757846
H   H52       1.0  0.84078  0.41670  0.15780  1.0000 0.1431757846
H   H53       1.0  0.41670  0.15780  0.84078  1.0000 0.1431757846
H   H54       1.0  0.15780  0.84078  0.41670  1.0000 0.1431757846
H   H55       1.0  0.26182  0.68900  0.82890  1.0000 0.1064837266
H   H56       1.0  0.68900  0.82890  0.26182  1.0000 0.1064837266
H   H57       1.0  0.82890  0.26182  0.68900  1.0000 0.1064837266
H   H58       1.0  0.73818  0.31100  0.17110  1.0000 0.1064837266
H   H59       1.0  0.31100  0.17110  0.73818  1.0000 0.1064837266
H   H60       1.0  0.17110  0.73818  0.31100  1.0000 0.1064837266
H   H61       1.0  0.43632  0.03650  0.12680  1.0000 0.1064837266
H   H62       1.0  0.03650  0.12680  0.43632  1.0000 0.1064837266
H   H63       1.0  0.12680  0.43632  0.03650  1.0000 0.1064837266
H   H64       1.0  0.56368  0.96350  0.87320  1.0000 0.1064837266
H   H65       1.0  0.96350  0.87320  0.56368  1.0000 0.1064837266
H   H66       1.0  0.87320  0.56368  0.96350  1.0000 0.1064837266
H   H67       1.0  0.34202  0.94350  0.15150  1.0000 0.1431757846
H   H68       1.0  0.94350  0.15150  0.34202  1.0000 0.1431757846
H   H69       1.0  0.15150  0.34202  0.94350  1.0000 0.1431757846
H   H70       1.0  0.65798  0.05650  0.84850  1.0000 0.1431757846
H   H71       1.0  0.05650  0.84850  0.65798  1.0000 0.1431757846
H   H72       1.0  0.84850  0.65798  0.05650  1.0000 0.1431757846
C   C1        1.0  0.73952  0.26900  0.87540  1.0000 0.1658627355
C   C2        1.0  0.26900  0.87540  0.73952  1.0000 0.1658627355
C   C3        1.0  0.87540  0.73952  0.26900  1.0000 0.1658627355
C   C4        1.0  0.26048  0.73100  0.12460  1.0000 0.1658627355
C   C5        1.0  0.73100  0.12460  0.26048  1.0000 0.1658627355
C   C6        1.0  0.12460  0.26048  0.73100  1.0000 0.1658627355
C   C7        1.0  0.41672  0.84530  0.24190  1.0000 -0.1939786
C   C8        1.0  0.84530  0.24190  0.41672  1.0000 -0.1939786
C   C9        1.0  0.24190  0.41672  0.84530  1.0000 -0.1939786
C   C10       1.0  0.58328  0.15470  0.75810  1.0000 -0.1939786
C   C11       1.0  0.15470  0.75810  0.58328  1.0000 -0.1939786
C   C12       1.0  0.75810  0.58328  0.15470  1.0000 -0.1939786
C   C13       1.0  0.46452  0.85820  0.33120  1.0000 -0.1990961985
C   C14       1.0  0.85820  0.33120  0.46452  1.0000 -0.1990961985
C   C15       1.0  0.33120  0.46452  0.85820  1.0000 -0.1990961985
C   C16       1.0  0.53548  0.14180  0.66880  1.0000 -0.1990961985
C   C17       1.0  0.14180  0.66880  0.53548  1.0000 -0.1990961985
C   C18       1.0  0.66880  0.53548  0.14180  1.0000 -0.1990961985
C   C19       1.0  0.33722  0.75250  0.27080  1.0000 0.1633287037
C   C20       1.0  0.75250  0.27080  0.33722  1.0000 0.1633287037
C   C21       1.0  0.27080  0.33722  0.75250  1.0000 0.1633287037
C   C22       1.0  0.66278  0.24750  0.72920  1.0000 0.1633287037
C   C23       1.0  0.24750  0.72920  0.66278  1.0000 0.1633287037
C   C24       1.0  0.72920  0.66278  0.24750  1.0000 0.1633287037
C   C25       1.0  0.34032  0.72760  0.32950  1.0000 -0.0971023178
C   C26       1.0  0.72760  0.32950  0.34032  1.0000 -0.0971023178
C   C27       1.0  0.32950  0.34032  0.72760  1.0000 -0.0971023178
C   C28       1.0  0.65968  0.27240  0.67050  1.0000 -0.0971023178
C   C29       1.0  0.27240  0.67050  0.65968  1.0000 -0.0971023178
C   C30       1.0  0.67050  0.65968  0.27240  1.0000 -0.0971023178
C   C31       1.0  0.21422  0.61700  0.26230  1.0000 0.1549513304
C   C32       1.0  0.61700  0.26230  0.21422  1.0000 0.1549513304
C   C33       1.0  0.26230  0.21422  0.61700  1.0000 0.1549513304
C   C34       1.0  0.78578  0.38300  0.73770  1.0000 0.1549513304
C   C35       1.0  0.38300  0.73770  0.78578  1.0000 0.1549513304
C   C36       1.0  0.73770  0.78578  0.38300  1.0000 0.1549513304
C   C37       1.0  0.78362  0.40580  0.67440  1.0000 -0.1990961985
C   C38       1.0  0.40580  0.67440  0.78362  1.0000 -0.1990961985
C   C39       1.0  0.67440  0.78362  0.40580  1.0000 -0.1990961985
C   C40       1.0  0.21638  0.59420  0.32560  1.0000 -0.1990961985
C   C41       1.0  0.59420  0.32560  0.21638  1.0000 -0.1990961985
C   C42       1.0  0.32560  0.21638  0.59420  1.0000 -0.1990961985
C   C43       1.0  0.92482  0.51790  0.76640  1.0000 -0.1939786
C   C44       1.0  0.51790  0.76640  0.92482  1.0000 -0.1939786
C   C45       1.0  0.76640  0.92482  0.51790  1.0000 -0.1939786
C   C46       1.0  0.07518  0.48210  0.23360  1.0000 -0.1939786
C   C47       1.0  0.48210  0.23360  0.07518  1.0000 -0.1939786
C   C48       1.0  0.23360  0.07518  0.48210  1.0000 -0.1939786
C   C49       1.0  0.01662  0.56800  0.88910  1.0000 0.1658627355
C   C50       1.0  0.56800  0.88910  0.01662  1.0000 0.1658627355
C   C51       1.0  0.88910  0.01662  0.56800  1.0000 0.1658627355
C   C52       1.0  0.98338  0.43200  0.11090  1.0000 0.1658627355
C   C53       1.0  0.43200  0.11090  0.98338  1.0000 0.1658627355
C   C54       1.0  0.11090  0.98338  0.43200  1.0000 0.1658627355
C   C55       1.0  0.82992  0.31830  0.99370  1.0000 -0.0931051409
C   C56       1.0  0.31830  0.99370  0.82992  1.0000 -0.0931051409
C   C57       1.0  0.99370  0.82992  0.31830  1.0000 -0.0931051409
C   C58       1.0  0.17008  0.68170  0.00630  1.0000 -0.0931051409
C   C59       1.0  0.68170  0.00630  0.17008  1.0000 -0.0931051409
C   C60       1.0  0.00630  0.17008  0.68170  1.0000 -0.0931051409
C   C61       1.0  0.51412  0.17840  0.53080  1.0000 0.1313291633
C   C62       1.0  0.17840  0.53080  0.51412  1.0000 0.1313291633
C   C63       1.0  0.53080  0.51412  0.17840  1.0000 0.1313291633
C   C64       1.0  0.48588  0.82160  0.46920  1.0000 0.1313291633
C   C65       1.0  0.82160  0.46920  0.48588  1.0000 0.1313291633
C   C66       1.0  0.46920  0.48588  0.82160  1.0000 0.1313291633
C   C67       1.0  0.39082  0.02340  0.39030  1.0000 -0.1990961985
C   C68       1.0  0.02340  0.39030  0.39082  1.0000 -0.1990961985
C   C69       1.0  0.39030  0.39082  0.02340  1.0000 -0.1990961985
C   C70       1.0  0.60918  0.97660  0.60970  1.0000 -0.1990961985
C   C71       1.0  0.97660  0.60970  0.60918  1.0000 -0.1990961985
C   C72       1.0  0.60970  0.60918  0.97660  1.0000 -0.1990961985
C   C73       1.0  0.26282  0.94500  0.26550  1.0000 0.0689256491
C   C74       1.0  0.94500  0.26550  0.26282  1.0000 0.0689256491
C   C75       1.0  0.26550  0.26282  0.94500  1.0000 0.0689256491
C   C76       1.0  0.73718  0.05500  0.73450  1.0000 0.0689256491
C   C77       1.0  0.05500  0.73450  0.73718  1.0000 0.0689256491
C   C78       1.0  0.73450  0.73718  0.05500  1.0000 0.0689256491
C   C79       1.0  0.35832  0.14840  0.39980  1.0000 0.0788711441
C   C80       1.0  0.14840  0.39980  0.35832  1.0000 0.0788711441
C   C81       1.0  0.39980  0.35832  0.14840  1.0000 0.0788711441
C   C82       1.0  0.64168  0.85160  0.60020  1.0000 0.0788711441
C   C83       1.0  0.85160  0.60020  0.64168  1.0000 0.0788711441
C   C84       1.0  0.60020  0.64168  0.85160  1.0000 0.0788711441
C   C85       1.0  0.49662  0.24300  0.53650  1.0000 -0.209296692
C   C86       1.0  0.24300  0.53650  0.49662  1.0000 -0.209296692
C   C87       1.0  0.53650  0.49662  0.24300  1.0000 -0.209296692
C   C88       1.0  0.50338  0.75700  0.46350  1.0000 -0.209296692
C   C89       1.0  0.75700  0.46350  0.50338  1.0000 -0.209296692
C   C90       1.0  0.46350  0.50338  0.75700  1.0000 -0.209296692
C   C91       1.0  0.76112  0.24890  0.00140  1.0000 0.1313291633
C   C92       1.0  0.24890  0.00140  0.76112  1.0000 0.1313291633
C   C93       1.0  0.00140  0.76112  0.24890  1.0000 0.1313291633
C   C94       1.0  0.23888  0.75110  0.99860  1.0000 0.1313291633
C   C95       1.0  0.75110  0.99860  0.23888  1.0000 0.1313291633
C   C96       1.0  0.99860  0.23888  0.75110  1.0000 0.1313291633
C   C97       1.0  0.78382  0.32320  0.09790  1.0000 -0.1990961985
C   C98       1.0  0.32320  0.09790  0.78382  1.0000 -0.1990961985
C   C99       1.0  0.09790  0.78382  0.32320  1.0000 -0.1990961985
C   C100      1.0  0.21618  0.67680  0.90210  1.0000 -0.1990961985
C   C101      1.0  0.67680  0.90210  0.21618  1.0000 -0.1990961985
C   C102      1.0  0.90210  0.21618  0.67680  1.0000 -0.1990961985
C   C103      1.0  0.72242  0.25960  0.10590  1.0000 0.0641518349
C   C104      1.0  0.25960  0.10590  0.72242  1.0000 0.0641518349
C   C105      1.0  0.10590  0.72242  0.25960  1.0000 0.0641518349
C   C106      1.0  0.27758  0.74040  0.89410  1.0000 0.0641518349
C   C107      1.0  0.74040  0.89410  0.27758  1.0000 0.0641518349
C   C108      1.0  0.89410  0.27758  0.74040  1.0000 0.0641518349
C   C109      1.0  0.37972  0.94370  0.06860  1.0000 0.0788711441
C   C110      1.0  0.94370  0.06860  0.37972  1.0000 0.0788711441
C   C111      1.0  0.06860  0.37972  0.94370  1.0000 0.0788711441
C   C112      1.0  0.62028  0.05630  0.93140  1.0000 0.0788711441
C   C113      1.0  0.05630  0.93140  0.62028  1.0000 0.0788711441
C   C114      1.0  0.93140  0.62028  0.05630  1.0000 0.0788711441
C   C115      1.0  0.32332  0.88880  0.08450  1.0000 -0.1990961985
C   C116      1.0  0.88880  0.08450  0.32332  1.0000 -0.1990961985
C   C117      1.0  0.08450  0.32332  0.88880  1.0000 -0.1990961985
C   C118      1.0  0.67668  0.11120  0.91550  1.0000 -0.1990961985
C   C119      1.0  0.11120  0.91550  0.67668  1.0000 -0.1990961985
C   C120      1.0  0.91550  0.67668  0.11120  1.0000 -0.1990961985
N   N1        1.0  0.78682  0.32330  0.85510  1.0000 -0.330572266
N   N2        1.0  0.32330  0.85510  0.78682  1.0000 -0.330572266
N   N3        1.0  0.85510  0.78682  0.32330  1.0000 -0.330572266
N   N4        1.0  0.21318  0.67670  0.14490  1.0000 -0.330572266
N   N5        1.0  0.67670  0.14490  0.21318  1.0000 -0.330572266
N   N6        1.0  0.14490  0.21318  0.67670  1.0000 -0.330572266
N   N7        1.0  0.06882  0.51380  0.12840  1.0000 -0.330572266
N   N8        1.0  0.51380  0.12840  0.06882  1.0000 -0.330572266
N   N9        1.0  0.12840  0.06882  0.51380  1.0000 -0.330572266
N   N10       1.0  0.93118  0.48620  0.87160  1.0000 -0.330572266
N   N11       1.0  0.48620  0.87160  0.93118  1.0000 -0.330572266
N   N12       1.0  0.87160  0.93118  0.48620  1.0000 -0.330572266
N   N13       1.0  0.24392  0.00350  0.26820  1.0000 -0.2637096381
N   N14       1.0  0.00350  0.26820  0.24392  1.0000 -0.2637096381
N   N15       1.0  0.26820  0.24392  0.00350  1.0000 -0.2637096381
N   N16       1.0  0.75608  0.99650  0.73180  1.0000 -0.2637096381
N   N17       1.0  0.99650  0.73180  0.75608  1.0000 -0.2637096381
N   N18       1.0  0.73180  0.75608  0.99650  1.0000 -0.2637096381
N   N19       1.0  0.64092  0.12600  0.02280  1.0000 -0.1990961985
N   N20       1.0  0.12600  0.02280  0.64092  1.0000 -0.1990961985
N   N21       1.0  0.02280  0.64092  0.12600  1.0000 -0.1990961985
N   N22       1.0  0.35908  0.87400  0.97720  1.0000 -0.1990961985
N   N23       1.0  0.87400  0.97720  0.35908  1.0000 -0.1990961985
N   N24       1.0  0.97720  0.35908  0.87400  1.0000 -0.1990961985
