# DDEC6 charges by PACMAN v1.1 (https://github.com/mtap-research/PACMAN-charge/)
data_2015[ZnTb][nan]3[ASR]1
_chemical_formula_sum              "Tb4 Zn2 H36 C72 N12 O24"
_cell_length_a       12.0231
_cell_length_b       12.0231
_cell_length_c       20.3385
_cell_angle_alpha    77.2427
_cell_angle_beta     102.757
_cell_angle_gamma    90.5034

_symmetry_space_group_name_H-M    "P 1"
_symmetry_Int_Tables_number       1

loop_
  _symmetry_equiv_pos_as_xyz
  'x, y, z'

loop_
  _atom_site_type_symbol
  _atom_site_label
  _atom_site_symmetry_multiplicity
  _atom_site_fract_x
  _atom_site_fract_y
  _atom_site_fract_z
  _atom_site_occupancy
  _atom_site_charge
Tb  Tb1       1.0  0.44350  0.43240  0.41765  1.0000 2.0599958296
Tb  Tb2       1.0  0.43240  0.44350  0.08235  1.0000 2.0599958296
Tb  Tb3       1.0  0.55650  0.56760  0.58235  1.0000 2.0599958296
Tb  Tb4       1.0  0.56760  0.55650  0.91765  1.0000 2.0599958296
Zn  Zn1       1.0  0.94007  0.94007  0.25000  1.0000 0.488253891
Zn  Zn2       1.0  0.05993  0.05993  0.75000  1.0000 0.488253891
H   H1        1.0  0.27930  0.05890  0.39900  1.0000 0.1403572288
H   H2        1.0  0.05890  0.27930  0.10100  1.0000 0.1403572288
H   H3        1.0  0.72070  0.94110  0.60100  1.0000 0.1403572288
H   H4        1.0  0.94110  0.72070  0.89900  1.0000 0.1403572288
H   H5        1.0  0.91790  0.19490  0.28200  1.0000 0.0922759469
H   H6        1.0  0.19490  0.91790  0.21800  1.0000 0.0922759469
H   H7        1.0  0.08210  0.80510  0.71800  1.0000 0.0922759469
H   H8        1.0  0.80510  0.08210  0.78200  1.0000 0.0922759469
H   H9        1.0  0.04760  0.32020  0.32170  1.0000 0.1403572288
H   H10       1.0  0.32020  0.04760  0.17830  1.0000 0.1403572288
H   H11       1.0  0.95240  0.67980  0.67830  1.0000 0.1403572288
H   H12       1.0  0.67980  0.95240  0.82170  1.0000 0.1403572288
H   H13       1.0  0.28020  0.87260  0.44720  1.0000 0.1403572288
H   H14       1.0  0.87260  0.28020  0.05280  1.0000 0.1403572288
H   H15       1.0  0.71980  0.12740  0.55280  1.0000 0.1403572288
H   H16       1.0  0.12740  0.71980  0.94720  1.0000 0.1403572288
H   H17       1.0  0.17460  0.57940  0.39400  1.0000 0.1489870842
H   H18       1.0  0.57940  0.17460  0.10600  1.0000 0.1489870842
H   H19       1.0  0.82540  0.42060  0.60600  1.0000 0.1489870842
H   H20       1.0  0.42060  0.82540  0.89400  1.0000 0.1489870842
H   H21       1.0  0.03160  0.68300  0.30910  1.0000 0.0989020835
H   H22       1.0  0.68300  0.03160  0.19090  1.0000 0.0989020835
H   H23       1.0  0.96840  0.31700  0.69090  1.0000 0.0989020835
H   H24       1.0  0.31700  0.96840  0.80910  1.0000 0.0989020835
H   H25       1.0  0.83550  0.95690  0.37780  1.0000 0.0989020835
H   H26       1.0  0.95690  0.83550  0.12220  1.0000 0.0989020835
H   H27       1.0  0.16450  0.04310  0.62220  1.0000 0.0989020835
H   H28       1.0  0.04310  0.16450  0.87780  1.0000 0.0989020835
H   H29       1.0  0.72430  0.84950  0.44420  1.0000 0.1403572288
H   H30       1.0  0.84950  0.72430  0.05580  1.0000 0.1403572288
H   H31       1.0  0.27570  0.15050  0.55580  1.0000 0.1403572288
H   H32       1.0  0.15050  0.27570  0.94420  1.0000 0.1403572288
H   H33       1.0  0.65480  0.65620  0.30200  1.0000 0.1330156695
H   H34       1.0  0.65620  0.65480  0.19800  1.0000 0.1330156695
H   H35       1.0  0.34520  0.34380  0.69800  1.0000 0.1330156695
H   H36       1.0  0.34380  0.34520  0.80200  1.0000 0.1330156695
C   C1        1.0  0.17930  0.20370  0.36150  1.0000 0.0351743955
C   C2        1.0  0.20370  0.17930  0.13850  1.0000 0.0351743955
C   C3        1.0  0.82070  0.79630  0.63850  1.0000 0.0351743955
C   C4        1.0  0.79630  0.82070  0.86150  1.0000 0.0351743955
C   C5        1.0  0.20650  0.08790  0.37530  1.0000 -0.1925101235
C   C6        1.0  0.08790  0.20650  0.12470  1.0000 -0.1925101235
C   C7        1.0  0.79350  0.91210  0.62470  1.0000 -0.1925101235
C   C8        1.0  0.91210  0.79350  0.87530  1.0000 -0.1925101235
C   C9        1.0  0.12240  0.01620  0.35290  1.0000 0.1403572288
C   C10       1.0  0.01620  0.12240  0.14710  1.0000 0.1403572288
C   C11       1.0  0.87760  0.98380  0.64710  1.0000 0.1403572288
C   C12       1.0  0.98380  0.87760  0.85290  1.0000 0.1403572288
C   C13       1.0  0.99130  0.16730  0.30570  1.0000 0.0491184712
C   C14       1.0  0.16730  0.99130  0.19430  1.0000 0.0491184712
C   C15       1.0  0.00870  0.83270  0.69430  1.0000 0.0491184712
C   C16       1.0  0.83270  0.00870  0.80570  1.0000 0.0491184712
C   C17       1.0  0.06890  0.24370  0.32850  1.0000 -0.17611111
C   C18       1.0  0.24370  0.06890  0.17150  1.0000 -0.17611111
C   C19       1.0  0.93110  0.75630  0.67150  1.0000 -0.17611111
C   C20       1.0  0.75630  0.93110  0.82850  1.0000 -0.17611111
C   C21       1.0  0.14370  0.89170  0.36620  1.0000 0.1403572288
C   C22       1.0  0.89170  0.14370  0.13380  1.0000 0.1403572288
C   C23       1.0  0.85630  0.10830  0.63380  1.0000 0.1403572288
C   C24       1.0  0.10830  0.85630  0.86620  1.0000 0.1403572288
C   C25       1.0  0.23140  0.83360  0.41870  1.0000 -0.1925101235
C   C26       1.0  0.83360  0.23140  0.08130  1.0000 -0.1925101235
C   C27       1.0  0.76860  0.16640  0.58130  1.0000 -0.1925101235
C   C28       1.0  0.16640  0.76860  0.91870  1.0000 -0.1925101235
C   C29       1.0  0.24490  0.71690  0.42790  1.0000 0.0308752359
C   C30       1.0  0.71690  0.24490  0.07210  1.0000 0.0308752359
C   C31       1.0  0.75510  0.28310  0.57210  1.0000 0.0308752359
C   C32       1.0  0.28310  0.75510  0.92790  1.0000 0.0308752359
C   C33       1.0  0.16840  0.65840  0.38720  1.0000 -0.1704476927
C   C34       1.0  0.65840  0.16840  0.11280  1.0000 -0.1704476927
C   C35       1.0  0.83160  0.34160  0.61280  1.0000 -0.1704476927
C   C36       1.0  0.34160  0.83160  0.88720  1.0000 -0.1704476927
C   C37       1.0  0.08340  0.72100  0.33670  1.0000 0.0491184712
C   C38       1.0  0.72100  0.08340  0.16330  1.0000 0.0491184712
C   C39       1.0  0.91660  0.27900  0.66330  1.0000 0.0491184712
C   C40       1.0  0.27900  0.91660  0.83670  1.0000 0.0491184712
C   C41       1.0  0.79930  0.89510  0.36320  1.0000 0.0491184712
C   C42       1.0  0.89510  0.79930  0.13680  1.0000 0.0491184712
C   C43       1.0  0.20070  0.10490  0.63680  1.0000 0.0491184712
C   C44       1.0  0.10490  0.20070  0.86320  1.0000 0.0491184712
C   C45       1.0  0.73260  0.83120  0.40340  1.0000 -0.17611111
C   C46       1.0  0.83120  0.73260  0.09660  1.0000 -0.17611111
C   C47       1.0  0.26740  0.16880  0.59660  1.0000 -0.17611111
C   C48       1.0  0.16880  0.26740  0.90340  1.0000 -0.17611111
C   C49       1.0  0.67760  0.73820  0.38130  1.0000 0.0308752359
C   C50       1.0  0.73820  0.67760  0.11870  1.0000 0.0308752359
C   C51       1.0  0.32240  0.26180  0.61870  1.0000 0.0308752359
C   C52       1.0  0.26180  0.32240  0.88130  1.0000 0.0308752359
C   C53       1.0  0.69190  0.71570  0.31870  1.0000 -0.1925101235
C   C54       1.0  0.71570  0.69190  0.18130  1.0000 -0.1925101235
C   C55       1.0  0.30810  0.28430  0.68130  1.0000 -0.1925101235
C   C56       1.0  0.28430  0.30810  0.81870  1.0000 -0.1925101235
C   C57       1.0  0.76150  0.78310  0.28250  1.0000 0.1330156695
C   C58       1.0  0.78310  0.76150  0.21750  1.0000 0.1330156695
C   C59       1.0  0.23850  0.21690  0.71750  1.0000 0.1330156695
C   C60       1.0  0.21690  0.23850  0.78250  1.0000 0.1330156695
C   C61       1.0  0.60580  0.66200  0.42280  1.0000 0.6304044719
C   C62       1.0  0.66200  0.60580  0.07720  1.0000 0.6304044719
C   C63       1.0  0.39420  0.33800  0.57720  1.0000 0.6304044719
C   C64       1.0  0.33800  0.39420  0.92280  1.0000 0.6304044719
C   C65       1.0  0.34600  0.65380  0.48160  1.0000 0.60830453
C   C66       1.0  0.65380  0.34600  0.01840  1.0000 0.60830453
C   C67       1.0  0.65400  0.34620  0.51840  1.0000 0.60830453
C   C68       1.0  0.34620  0.65400  0.98160  1.0000 0.60830453
C   C69       1.0  0.26920  0.28560  0.38140  1.0000 0.5492027994
C   C70       1.0  0.28560  0.26920  0.11860  1.0000 0.5492027994
C   C71       1.0  0.73080  0.71440  0.61860  1.0000 0.5492027994
C   C72       1.0  0.71440  0.73080  0.88140  1.0000 0.5492027994
N   N1        1.0  0.01660  0.05540  0.31600  1.0000 -0.2737981606
N   N2        1.0  0.05540  0.01660  0.18400  1.0000 -0.2737981606
N   N3        1.0  0.98340  0.94460  0.68400  1.0000 -0.2737981606
N   N4        1.0  0.94460  0.98340  0.81600  1.0000 -0.2737981606
N   N5        1.0  0.07160  0.83520  0.32530  1.0000 -0.2530196686
N   N6        1.0  0.83520  0.07160  0.17470  1.0000 -0.2530196686
N   N7        1.0  0.92840  0.16480  0.67470  1.0000 -0.2530196686
N   N8        1.0  0.16480  0.92840  0.82530  1.0000 -0.2530196686
N   N9        1.0  0.81460  0.87220  0.30410  1.0000 -0.2530196686
N   N10       1.0  0.87220  0.81460  0.19590  1.0000 -0.2530196686
N   N11       1.0  0.18540  0.12780  0.69590  1.0000 -0.2530196686
N   N12       1.0  0.12780  0.18540  0.80410  1.0000 -0.2530196686
O   O1        1.0  0.24010  0.38130  0.38880  1.0000 -0.6624151472
O   O2        1.0  0.38130  0.24010  0.11120  1.0000 -0.6624151472
O   O3        1.0  0.75990  0.61870  0.61120  1.0000 -0.6624151472
O   O4        1.0  0.61870  0.75990  0.88880  1.0000 -0.6624151472
O   O5        1.0  0.37230  0.25530  0.38930  1.0000 -0.6400076081
O   O6        1.0  0.25530  0.37230  0.11070  1.0000 -0.6400076081
O   O7        1.0  0.62770  0.74470  0.61070  1.0000 -0.6400076081
O   O8        1.0  0.74470  0.62770  0.88930  1.0000 -0.6400076081
O   O9        1.0  0.38890  0.69590  0.53330  1.0000 -0.6291897748
O   O10       1.0  0.69590  0.38890  0.96670  1.0000 -0.6291897748
O   O11       1.0  0.61110  0.30410  0.46670  1.0000 -0.6291897748
O   O12       1.0  0.30410  0.61110  0.03330  1.0000 -0.6291897748
O   O13       1.0  0.38430  0.56270  0.47420  1.0000 -0.7312363539
O   O14       1.0  0.56270  0.38430  0.02580  1.0000 -0.7312363539
O   O15       1.0  0.61570  0.43730  0.52580  1.0000 -0.7312363539
O   O16       1.0  0.43730  0.61570  0.97420  1.0000 -0.7312363539
O   O17       1.0  0.56090  0.58350  0.39570  1.0000 -0.7006624941
O   O18       1.0  0.58350  0.56090  0.10430  1.0000 -0.7006624941
O   O19       1.0  0.43910  0.41650  0.60430  1.0000 -0.7006624941
O   O20       1.0  0.41650  0.43910  0.89570  1.0000 -0.7006624941
O   O21       1.0  0.59840  0.68020  0.48020  1.0000 -0.6400076081
O   O22       1.0  0.68020  0.59840  0.01980  1.0000 -0.6400076081
O   O23       1.0  0.40160  0.31980  0.51980  1.0000 -0.6400076081
O   O24       1.0  0.31980  0.40160  0.98020  1.0000 -0.6400076081
