# DDEC6 charges by PACMAN v1.1 (https://github.com/mtap-research/PACMAN-charge/)
data_2015[Cu][bcu]3[ASR]1
_chemical_formula_sum              "Cu6 H8 C8 N32 Cl4"
_cell_length_a       8.6116
_cell_length_b       8.8761
_cell_length_c       11.6119
_cell_angle_alpha    90
_cell_angle_beta     90
_cell_angle_gamma    90

_symmetry_space_group_name_H-M    "P 1"
_symmetry_Int_Tables_number       1

loop_
  _symmetry_equiv_pos_as_xyz
  'x, y, z'

loop_
  _atom_site_type_symbol
  _atom_site_label
  _atom_site_symmetry_multiplicity
  _atom_site_fract_x
  _atom_site_fract_y
  _atom_site_fract_z
  _atom_site_occupancy
  _atom_site_charge
Cu  Cu1       1.0  0.50000  0.50000  0.50000  1.0000 0.5604019641
Cu  Cu2       1.0  0.00000  0.00000  0.00000  1.0000 0.5604019641
Cu  Cu3       1.0  0.75605  0.50000  0.73167  1.0000 0.5731476276
Cu  Cu4       1.0  0.24395  0.50000  0.26833  1.0000 0.5731476276
Cu  Cu5       1.0  0.25605  0.00000  0.76833  1.0000 0.5731476276
Cu  Cu6       1.0  0.74395  0.00000  0.23167  1.0000 0.5731476276
H   H1        1.0  0.57120  0.80500  0.85270  1.0000 0.1354914486
H   H2        1.0  0.42880  0.80500  0.14730  1.0000 0.1354914486
H   H3        1.0  0.07120  0.69500  0.64730  1.0000 0.1354914486
H   H4        1.0  0.92880  0.69500  0.35270  1.0000 0.1354914486
H   H5        1.0  0.42880  0.19500  0.14730  1.0000 0.1354914486
H   H6        1.0  0.57120  0.19500  0.85270  1.0000 0.1354914486
H   H7        1.0  0.92880  0.30500  0.35270  1.0000 0.1354914486
H   H8        1.0  0.07120  0.30500  0.64730  1.0000 0.1354914486
C   C1        1.0  0.53070  0.77430  0.78220  1.0000 0.1623675554
C   C2        1.0  0.46930  0.77430  0.21780  1.0000 0.1623675554
C   C3        1.0  0.03070  0.72570  0.71780  1.0000 0.1623675554
C   C4        1.0  0.96930  0.72570  0.28220  1.0000 0.1623675554
C   C5        1.0  0.46930  0.22570  0.21780  1.0000 0.1623675554
C   C6        1.0  0.53070  0.22570  0.78220  1.0000 0.1623675554
C   C7        1.0  0.96930  0.27430  0.28220  1.0000 0.1623675554
C   C8        1.0  0.03070  0.27430  0.71780  1.0000 0.1623675554
N   N1        1.0  0.58470  0.66050  0.71980  1.0000 -0.1928089642
N   N2        1.0  0.41530  0.66050  0.28020  1.0000 -0.1928089642
N   N3        1.0  0.08470  0.83950  0.78020  1.0000 -0.1928089642
N   N4        1.0  0.91530  0.83950  0.21980  1.0000 -0.1928089642
N   N5        1.0  0.41530  0.33950  0.28020  1.0000 -0.1928089642
N   N6        1.0  0.58470  0.33950  0.71980  1.0000 -0.1928089642
N   N7        1.0  0.91530  0.16050  0.21980  1.0000 -0.1928089642
N   N8        1.0  0.08470  0.16050  0.78020  1.0000 -0.1928089642
N   N9        1.0  0.49300  0.65760  0.62560  1.0000 -0.0187135582
N   N10       1.0  0.50700  0.65760  0.37440  1.0000 -0.0187135582
N   N11       1.0  0.99300  0.84240  0.87440  1.0000 -0.0187135582
N   N12       1.0  0.00700  0.84240  0.12560  1.0000 -0.0187135582
N   N13       1.0  0.50700  0.34240  0.37440  1.0000 -0.0187135582
N   N14       1.0  0.49300  0.34240  0.62560  1.0000 -0.0187135582
N   N15       1.0  0.00700  0.15760  0.12560  1.0000 -0.0187135582
N   N16       1.0  0.99300  0.15760  0.87440  1.0000 -0.0187135582
N   N17       1.0  0.38890  0.76330  0.63060  1.0000 -0.0187135582
N   N18       1.0  0.61110  0.76330  0.36940  1.0000 -0.0187135582
N   N19       1.0  0.88890  0.73670  0.86940  1.0000 -0.0187135582
N   N20       1.0  0.11110  0.73670  0.13060  1.0000 -0.0187135582
N   N21       1.0  0.61110  0.23670  0.36940  1.0000 -0.0187135582
N   N22       1.0  0.38890  0.23670  0.63060  1.0000 -0.0187135582
N   N23       1.0  0.11110  0.26330  0.13060  1.0000 -0.0187135582
N   N24       1.0  0.88890  0.26330  0.86940  1.0000 -0.0187135582
N   N25       1.0  0.41050  0.83810  0.72960  1.0000 -0.1928089642
N   N26       1.0  0.58950  0.83810  0.27040  1.0000 -0.1928089642
N   N27       1.0  0.91050  0.66190  0.77040  1.0000 -0.1928089642
N   N28       1.0  0.08950  0.66190  0.22960  1.0000 -0.1928089642
N   N29       1.0  0.58950  0.16190  0.27040  1.0000 -0.1928089642
N   N30       1.0  0.41050  0.16190  0.72960  1.0000 -0.1928089642
N   N31       1.0  0.08950  0.33810  0.22960  1.0000 -0.1928089642
N   N32       1.0  0.91050  0.33810  0.77040  1.0000 -0.1928089642
Cl  Cl1       1.0  0.80114  0.50000  0.52122  1.0000 -0.6029765279
Cl  Cl2       1.0  0.19886  0.50000  0.47878  1.0000 -0.6029765279
Cl  Cl3       1.0  0.30114  0.00000  0.97878  1.0000 -0.6029765279
Cl  Cl4       1.0  0.69886  0.00000  0.02122  1.0000 -0.6029765279
