# DDEC6 charges by PACMAN v1.1 (https://github.com/mtap-research/PACMAN-charge/)
data_2015[Zn][sab]3[ASR]1
_chemical_formula_sum              "Zn20 H32 C72 O56"
_cell_length_a       17.0208
_cell_length_b       17.0208
_cell_length_c       17.0208
_cell_angle_alpha    105.886
_cell_angle_beta     105.886
_cell_angle_gamma    116.908

_symmetry_space_group_name_H-M    "P 1"
_symmetry_Int_Tables_number       1

loop_
  _symmetry_equiv_pos_as_xyz
  'x, y, z'

loop_
  _atom_site_type_symbol
  _atom_site_label
  _atom_site_symmetry_multiplicity
  _atom_site_fract_x
  _atom_site_fract_y
  _atom_site_fract_z
  _atom_site_occupancy
  _atom_site_charge
Zn  Zn1       1.0  0.58987  0.45184  0.37693  1.0000 0.767128619
Zn  Zn2       1.0  0.07491  0.21294  0.62307  1.0000 0.767128619
Zn  Zn3       1.0  0.21294  0.58987  0.13803  1.0000 0.767128619
Zn  Zn4       1.0  0.45184  0.07491  0.86197  1.0000 0.767128619
Zn  Zn5       1.0  0.57491  0.95184  0.86197  1.0000 0.767128619
Zn  Zn6       1.0  0.08987  0.71294  0.13803  1.0000 0.767128619
Zn  Zn7       1.0  0.95184  0.08987  0.37693  1.0000 0.767128619
Zn  Zn8       1.0  0.71294  0.57491  0.62307  1.0000 0.767128619
Zn  Zn9       1.0  0.82171  0.63433  0.50000  1.0000 0.9779773229
Zn  Zn10      1.0  0.13433  0.32171  0.50000  1.0000 0.9779773229
Zn  Zn11      1.0  0.32171  0.82171  0.18738  1.0000 0.9779773229
Zn  Zn12      1.0  0.63433  0.13433  0.81262  1.0000 0.9779773229
Zn  Zn13      1.0  0.65284  0.39023  0.42379  1.0000 0.5925851041
Zn  Zn14      1.0  0.96644  0.22905  0.57621  1.0000 0.5925851041
Zn  Zn15      1.0  0.22905  0.65284  0.26261  1.0000 0.5925851041
Zn  Zn16      1.0  0.39023  0.96644  0.73739  1.0000 0.5925851041
Zn  Zn17      1.0  0.46644  0.89023  0.73739  1.0000 0.5925851041
Zn  Zn18      1.0  0.15284  0.72905  0.26261  1.0000 0.5925851041
Zn  Zn19      1.0  0.89023  0.15284  0.42379  1.0000 0.5925851041
Zn  Zn20      1.0  0.72905  0.46644  0.57621  1.0000 0.5925851041
H   H1        1.0  0.69130  0.30890  0.50000  1.0000 0.3494649777
H   H2        1.0  0.80890  0.19130  0.50000  1.0000 0.3494649777
H   H3        1.0  0.19130  0.69130  0.38240  1.0000 0.3494649777
H   H4        1.0  0.30890  0.80890  0.61760  1.0000 0.3494649777
H   H5        1.0  0.77790  0.37650  0.50000  1.0000 0.3214549744
H   H6        1.0  0.87650  0.27790  0.50000  1.0000 0.3214549744
H   H7        1.0  0.27790  0.77790  0.40140  1.0000 0.3214549744
H   H8        1.0  0.37650  0.87650  0.59860  1.0000 0.3214549744
H   H9        1.0  0.39280  0.09310  0.31510  1.0000 0.1275056972
H   H10       1.0  0.77800  0.07770  0.68490  1.0000 0.1275056972
H   H11       1.0  0.07770  0.39280  0.29970  1.0000 0.1275056972
H   H12       1.0  0.09310  0.77800  0.70030  1.0000 0.1275056972
H   H13       1.0  0.27800  0.59310  0.70030  1.0000 0.1275056972
H   H14       1.0  0.89280  0.57770  0.29970  1.0000 0.1275056972
H   H15       1.0  0.59310  0.89280  0.31510  1.0000 0.1275056972
H   H16       1.0  0.57770  0.27800  0.68490  1.0000 0.1275056972
H   H17       1.0  0.12900  0.98560  0.31440  1.0000 0.1275056972
H   H18       1.0  0.67120  0.81460  0.68560  1.0000 0.1275056972
H   H19       1.0  0.81460  0.12900  0.14340  1.0000 0.1275056972
H   H20       1.0  0.98560  0.67120  0.85660  1.0000 0.1275056972
H   H21       1.0  0.17120  0.48560  0.85660  1.0000 0.1275056972
H   H22       1.0  0.62900  0.31460  0.14340  1.0000 0.1275056972
H   H23       1.0  0.48560  0.62900  0.31440  1.0000 0.1275056972
H   H24       1.0  0.31460  0.17120  0.68560  1.0000 0.1275056972
H   H25       1.0  0.30870  0.27570  0.38960  1.0000 0.1275056972
H   H26       1.0  0.88610  0.91910  0.61040  1.0000 0.1275056972
H   H27       1.0  0.91910  0.30870  0.03300  1.0000 0.1275056972
H   H28       1.0  0.27570  0.88610  0.96700  1.0000 0.1275056972
H   H29       1.0  0.38610  0.77570  0.96700  1.0000 0.1275056972
H   H30       1.0  0.80870  0.41910  0.03300  1.0000 0.1275056972
H   H31       1.0  0.77570  0.80870  0.38960  1.0000 0.1275056972
H   H32       1.0  0.41910  0.38610  0.61040  1.0000 0.1275056972
C   C1        1.0  0.45860  0.28040  0.36440  1.0000 0.5564262593
C   C2        1.0  0.91600  0.09420  0.63560  1.0000 0.5564262593
C   C3        1.0  0.09420  0.45860  0.17820  1.0000 0.5564262593
C   C4        1.0  0.28040  0.91600  0.82180  1.0000 0.5564262593
C   C5        1.0  0.41600  0.78040  0.82180  1.0000 0.5564262593
C   C6        1.0  0.95860  0.59420  0.17820  1.0000 0.5564262593
C   C7        1.0  0.78040  0.95860  0.36440  1.0000 0.5564262593
C   C8        1.0  0.59420  0.41600  0.63560  1.0000 0.5564262593
C   C9        1.0  0.36470  0.19720  0.35390  1.0000 -0.039227704
C   C10       1.0  0.84330  0.01080  0.64610  1.0000 -0.039227704
C   C11       1.0  0.01080  0.36470  0.16750  1.0000 -0.039227704
C   C12       1.0  0.19720  0.84330  0.83250  1.0000 -0.039227704
C   C13       1.0  0.34330  0.69720  0.83250  1.0000 -0.039227704
C   C14       1.0  0.86470  0.51080  0.16750  1.0000 -0.039227704
C   C15       1.0  0.69720  0.86470  0.35390  1.0000 -0.039227704
C   C16       1.0  0.51080  0.34330  0.64610  1.0000 -0.039227704
C   C17       1.0  0.34570  0.10264  0.32414  1.0000 -0.1108717066
C   C18       1.0  0.77850  0.02156  0.67586  1.0000 -0.1108717066
C   C19       1.0  0.02156  0.34570  0.24306  1.0000 -0.1108717066
C   C20       1.0  0.10264  0.77850  0.75694  1.0000 -0.1108717066
C   C21       1.0  0.27850  0.60264  0.75694  1.0000 -0.1108717066
C   C22       1.0  0.84570  0.52156  0.24306  1.0000 -0.1108717066
C   C23       1.0  0.60264  0.84570  0.32414  1.0000 -0.1108717066
C   C24       1.0  0.52156  0.27850  0.67586  1.0000 -0.1108717066
C   C25       1.0  0.25610  0.02231  0.30801  1.0000 -0.0329362095
C   C26       1.0  0.71430  0.94809  0.69199  1.0000 -0.0329362095
C   C27       1.0  0.94809  0.25610  0.23379  1.0000 -0.0329362095
C   C28       1.0  0.02231  0.71430  0.76621  1.0000 -0.0329362095
C   C29       1.0  0.21430  0.52231  0.76621  1.0000 -0.0329362095
C   C30       1.0  0.75610  0.44809  0.23379  1.0000 -0.0329362095
C   C31       1.0  0.52231  0.75610  0.30801  1.0000 -0.0329362095
C   C32       1.0  0.44809  0.21430  0.69199  1.0000 -0.0329362095
C   C33       1.0  0.18870  0.03880  0.32490  1.0000 -0.1010675467
C   C34       1.0  0.71390  0.86380  0.67510  1.0000 -0.1010675467
C   C35       1.0  0.86380  0.18870  0.14990  1.0000 -0.1010675467
C   C36       1.0  0.03880  0.71390  0.85010  1.0000 -0.1010675467
C   C37       1.0  0.21390  0.53880  0.85010  1.0000 -0.1010675467
C   C38       1.0  0.68870  0.36380  0.14990  1.0000 -0.1010675467
C   C39       1.0  0.53880  0.68870  0.32490  1.0000 -0.1010675467
C   C40       1.0  0.36380  0.21390  0.67510  1.0000 -0.1010675467
C   C41       1.0  0.20810  0.13330  0.35720  1.0000 -0.0329362095
C   C42       1.0  0.77610  0.85090  0.64280  1.0000 -0.0329362095
C   C43       1.0  0.85090  0.20810  0.07480  1.0000 -0.0329362095
C   C44       1.0  0.13330  0.77610  0.92520  1.0000 -0.0329362095
C   C45       1.0  0.27610  0.63330  0.92520  1.0000 -0.0329362095
C   C46       1.0  0.70810  0.35090  0.07480  1.0000 -0.0329362095
C   C47       1.0  0.63330  0.70810  0.35720  1.0000 -0.0329362095
C   C48       1.0  0.35090  0.27610  0.64280  1.0000 -0.0329362095
C   C49       1.0  0.29590  0.21260  0.37010  1.0000 -0.1010675467
C   C50       1.0  0.84250  0.92580  0.62990  1.0000 -0.1010675467
C   C51       1.0  0.92580  0.29590  0.08330  1.0000 -0.1010675467
C   C52       1.0  0.21260  0.84250  0.91670  1.0000 -0.1010675467
C   C53       1.0  0.34250  0.71260  0.91670  1.0000 -0.1010675467
C   C54       1.0  0.79590  0.42580  0.08330  1.0000 -0.1010675467
C   C55       1.0  0.71260  0.79590  0.37010  1.0000 -0.1010675467
C   C56       1.0  0.42580  0.34250  0.62990  1.0000 -0.1010675467
C   C57       1.0  0.23380  0.92050  0.26950  1.0000 0.5769831115
C   C58       1.0  0.65100  0.96430  0.73050  1.0000 0.5769831115
C   C59       1.0  0.96430  0.23380  0.31330  1.0000 0.5769831115
C   C60       1.0  0.92050  0.65100  0.68670  1.0000 0.5769831115
C   C61       1.0  0.15100  0.42050  0.68670  1.0000 0.5769831115
C   C62       1.0  0.73380  0.46430  0.31330  1.0000 0.5769831115
C   C63       1.0  0.42050  0.73380  0.26950  1.0000 0.5769831115
C   C64       1.0  0.46430  0.15100  0.73050  1.0000 0.5769831115
C   C65       1.0  0.13560  0.15100  0.37760  1.0000 0.5769831115
C   C66       1.0  0.77340  0.75800  0.62240  1.0000 0.5769831115
C   C67       1.0  0.75800  0.13560  0.98460  1.0000 0.5769831115
C   C68       1.0  0.15100  0.77340  0.01540  1.0000 0.5769831115
C   C69       1.0  0.27340  0.65100  0.01540  1.0000 0.5769831115
C   C70       1.0  0.63560  0.25800  0.98460  1.0000 0.5769831115
C   C71       1.0  0.65100  0.63560  0.37760  1.0000 0.5769831115
C   C72       1.0  0.25800  0.27340  0.62240  1.0000 0.5769831115
O   O1        1.0  0.72410  0.36350  0.50000  1.0000 -0.5280880159
O   O2        1.0  0.86350  0.22410  0.50000  1.0000 -0.5280880159
O   O3        1.0  0.22410  0.72410  0.36060  1.0000 -0.5280880159
O   O4        1.0  0.36350  0.86350  0.63940  1.0000 -0.5280880159
O   O5        1.0  0.46210  0.35640  0.36470  1.0000 -0.5034125666
O   O6        1.0  0.99170  0.09740  0.63530  1.0000 -0.5034125666
O   O7        1.0  0.09740  0.46210  0.10570  1.0000 -0.5034125666
O   O8        1.0  0.35640  0.99170  0.89430  1.0000 -0.5034125666
O   O9        1.0  0.49170  0.85640  0.89430  1.0000 -0.5034125666
O   O10       1.0  0.96210  0.59740  0.10570  1.0000 -0.5034125666
O   O11       1.0  0.85640  0.96210  0.36470  1.0000 -0.5034125666
O   O12       1.0  0.59740  0.49170  0.63530  1.0000 -0.5034125666
O   O13       1.0  0.52710  0.27040  0.36910  1.0000 -0.509594289
O   O14       1.0  0.90130  0.15800  0.63090  1.0000 -0.509594289
O   O15       1.0  0.15800  0.52710  0.25670  1.0000 -0.509594289
O   O16       1.0  0.27040  0.90130  0.74330  1.0000 -0.509594289
O   O17       1.0  0.40130  0.77040  0.74330  1.0000 -0.509594289
O   O18       1.0  0.02710  0.65800  0.25670  1.0000 -0.509594289
O   O19       1.0  0.77040  0.02710  0.36910  1.0000 -0.509594289
O   O20       1.0  0.65800  0.40130  0.63090  1.0000 -0.509594289
O   O21       1.0  0.30627  0.91431  0.28218  1.0000 -0.55210006
O   O22       1.0  0.63213  0.02409  0.71782  1.0000 -0.55210006
O   O23       1.0  0.02409  0.30627  0.39196  1.0000 -0.55210006
O   O24       1.0  0.91431  0.63213  0.60804  1.0000 -0.55210006
O   O25       1.0  0.13213  0.41431  0.60804  1.0000 -0.55210006
O   O26       1.0  0.80627  0.52409  0.39196  1.0000 -0.55210006
O   O27       1.0  0.41431  0.80627  0.28218  1.0000 -0.55210006
O   O28       1.0  0.52409  0.13213  0.71782  1.0000 -0.55210006
O   O29       1.0  0.14170  0.84960  0.22270  1.0000 -0.5280880159
O   O30       1.0  0.62690  0.91900  0.77730  1.0000 -0.5280880159
O   O31       1.0  0.91900  0.14170  0.29210  1.0000 -0.5280880159
O   O32       1.0  0.84960  0.62690  0.70790  1.0000 -0.5280880159
O   O33       1.0  0.12690  0.34960  0.70790  1.0000 -0.5280880159
O   O34       1.0  0.64170  0.41900  0.29210  1.0000 -0.5280880159
O   O35       1.0  0.34960  0.64170  0.22270  1.0000 -0.5280880159
O   O36       1.0  0.41900  0.12690  0.77730  1.0000 -0.5280880159
O   O37       1.0  0.05768  0.07622  0.36514  1.0000 -0.5034125666
O   O38       1.0  0.71108  0.69254  0.63486  1.0000 -0.5034125666
O   O39       1.0  0.69254  0.05768  0.98146  1.0000 -0.5034125666
O   O40       1.0  0.07622  0.71108  0.01854  1.0000 -0.5034125666
O   O41       1.0  0.21108  0.57622  0.01854  1.0000 -0.5034125666
O   O42       1.0  0.55768  0.19254  0.98146  1.0000 -0.5034125666
O   O43       1.0  0.57622  0.55768  0.36514  1.0000 -0.5034125666
O   O44       1.0  0.19254  0.21108  0.63486  1.0000 -0.5034125666
O   O45       1.0  0.15421  0.23596  0.40235  1.0000 -0.55210006
O   O46       1.0  0.83361  0.75186  0.59765  1.0000 -0.55210006
O   O47       1.0  0.75186  0.15421  0.91825  1.0000 -0.55210006
O   O48       1.0  0.23596  0.83361  0.08175  1.0000 -0.55210006
O   O49       1.0  0.33361  0.73596  0.08175  1.0000 -0.55210006
O   O50       1.0  0.65421  0.25186  0.91825  1.0000 -0.55210006
O   O51       1.0  0.73596  0.65421  0.40235  1.0000 -0.55210006
O   O52       1.0  0.25186  0.33361  0.59765  1.0000 -0.55210006
O   O53       1.0  0.69966  0.52054  0.50000  1.0000 -0.8924268907
O   O54       1.0  0.02054  0.19966  0.50000  1.0000 -0.8924268907
O   O55       1.0  0.19966  0.69966  0.17912  1.0000 -0.8924268907
O   O56       1.0  0.52054  0.02054  0.82088  1.0000 -0.8924268907
