# DDEC6 charges by PACMAN v1.1 (https://github.com/mtap-research/PACMAN-charge/)
data_2015[Eu][nan]3[ASR]8
_chemical_formula_sum              "Eu4 H28 C60 O24"
_cell_length_a       13.8909
_cell_length_b       13.8909
_cell_length_c       14.868
_cell_angle_alpha    83.9939
_cell_angle_beta     96.0061
_cell_angle_gamma    124.824

_symmetry_space_group_name_H-M    "P 1"
_symmetry_Int_Tables_number       1

loop_
  _symmetry_equiv_pos_as_xyz
  'x, y, z'

loop_
  _atom_site_type_symbol
  _atom_site_label
  _atom_site_symmetry_multiplicity
  _atom_site_fract_x
  _atom_site_fract_y
  _atom_site_fract_z
  _atom_site_occupancy
  _atom_site_charge
Eu  Eu1       1.0  0.53019  0.87453  0.53321  1.0000 2.077449985
Eu  Eu2       1.0  0.87453  0.53019  0.96679  1.0000 2.077449985
Eu  Eu3       1.0  0.46981  0.12547  0.46679  1.0000 2.077449985
Eu  Eu4       1.0  0.12547  0.46981  0.03321  1.0000 2.077449985
H   H1        1.0  0.22530  0.68550  0.28680  1.0000 0.128647494
H   H2        1.0  0.68550  0.22530  0.21320  1.0000 0.128647494
H   H3        1.0  0.77470  0.31450  0.71320  1.0000 0.128647494
H   H4        1.0  0.31450  0.77470  0.78680  1.0000 0.128647494
H   H5        1.0  0.15130  0.86310  0.43070  1.0000 0.128647494
H   H6        1.0  0.86310  0.15130  0.06930  1.0000 0.128647494
H   H7        1.0  0.84870  0.13690  0.56930  1.0000 0.128647494
H   H8        1.0  0.13690  0.84870  0.93070  1.0000 0.128647494
H   H9        1.0  0.92880  0.67040  0.22730  1.0000 0.1176864482
H   H10       1.0  0.67040  0.92880  0.27270  1.0000 0.1176864482
H   H11       1.0  0.07120  0.32960  0.77270  1.0000 0.1176864482
H   H12       1.0  0.32960  0.07120  0.72730  1.0000 0.1176864482
H   H13       1.0  0.79120  0.62940  0.33360  1.0000 0.1176864482
H   H14       1.0  0.62940  0.79120  0.16640  1.0000 0.1176864482
H   H15       1.0  0.20880  0.37060  0.66640  1.0000 0.1176864482
H   H16       1.0  0.37060  0.20880  0.83360  1.0000 0.1176864482
H   H17       1.0  0.65740  0.65780  0.38460  1.0000 0.128647494
H   H18       1.0  0.65780  0.65740  0.11540  1.0000 0.128647494
H   H19       1.0  0.34260  0.34220  0.61540  1.0000 0.128647494
H   H20       1.0  0.34220  0.34260  0.88460  1.0000 0.128647494
H   H21       1.0  0.91690  0.98410  0.44270  1.0000 0.1101878436
H   H22       1.0  0.98410  0.91690  0.05730  1.0000 0.1101878436
H   H23       1.0  0.08310  0.01590  0.55730  1.0000 0.1101878436
H   H24       1.0  0.01590  0.08310  0.94270  1.0000 0.1101878436
H   H25       1.0  0.05210  0.95730  0.39300  1.0000 0.1176864482
H   H26       1.0  0.95730  0.05210  0.10700  1.0000 0.1176864482
H   H27       1.0  0.94790  0.04270  0.60700  1.0000 0.1176864482
H   H28       1.0  0.04270  0.94790  0.89300  1.0000 0.1176864482
C   C1        1.0  0.07490  0.67050  0.24330  1.0000 -0.0184297439
C   C2        1.0  0.67050  0.07490  0.25670  1.0000 -0.0184297439
C   C3        1.0  0.92510  0.32950  0.75670  1.0000 -0.0184297439
C   C4        1.0  0.32950  0.92510  0.74330  1.0000 -0.0184297439
C   C5        1.0  0.17625  0.70815  0.29750  1.0000 -0.1067898421
C   C6        1.0  0.70815  0.17625  0.20250  1.0000 -0.1067898421
C   C7        1.0  0.82375  0.29185  0.70250  1.0000 -0.1067898421
C   C8        1.0  0.29185  0.82375  0.79750  1.0000 -0.1067898421
C   C9        1.0  0.20467  0.77993  0.36820  1.0000 -0.0136216535
C   C10       1.0  0.77993  0.20467  0.13180  1.0000 -0.0136216535
C   C11       1.0  0.79533  0.22007  0.63180  1.0000 -0.0136216535
C   C12       1.0  0.22007  0.79533  0.86820  1.0000 -0.0136216535
C   C13       1.0  0.13001  0.81199  0.38540  1.0000 -0.1510981692
C   C14       1.0  0.81199  0.13001  0.11460  1.0000 -0.1510981692
C   C15       1.0  0.86999  0.18801  0.61460  1.0000 -0.1510981692
C   C16       1.0  0.18801  0.86999  0.88540  1.0000 -0.1510981692
C   C17       1.0  0.02374  0.76806  0.33510  1.0000 0.0599790217
C   C18       1.0  0.76806  0.02374  0.16490  1.0000 0.0599790217
C   C19       1.0  0.97626  0.23194  0.66490  1.0000 0.0599790217
C   C20       1.0  0.23194  0.97626  0.83510  1.0000 0.0599790217
C   C21       1.0  0.99804  0.69836  0.26280  1.0000 -0.1437920069
C   C22       1.0  0.69836  0.99804  0.23720  1.0000 -0.1437920069
C   C23       1.0  0.00196  0.30164  0.73720  1.0000 -0.1437920069
C   C24       1.0  0.30164  0.00196  0.76280  1.0000 -0.1437920069
C   C25       1.0  0.93740  0.79000  0.36050  1.0000 0.0672928171
C   C26       1.0  0.79000  0.93740  0.13950  1.0000 0.0672928171
C   C27       1.0  0.06260  0.21000  0.63950  1.0000 0.0672928171
C   C28       1.0  0.21000  0.06260  0.86050  1.0000 0.0672928171
C   C29       1.0  0.81754  0.70066  0.35690  1.0000 -0.1510981692
C   C30       1.0  0.70066  0.81754  0.14310  1.0000 -0.1510981692
C   C31       1.0  0.18246  0.29934  0.64310  1.0000 -0.1510981692
C   C32       1.0  0.29934  0.18246  0.85690  1.0000 -0.1510981692
C   C33       1.0  0.73710  0.71770  0.38790  1.0000 -0.0980625151
C   C34       1.0  0.71770  0.73710  0.11210  1.0000 -0.0980625151
C   C35       1.0  0.26290  0.28230  0.61210  1.0000 -0.0980625151
C   C36       1.0  0.28230  0.26290  0.88790  1.0000 -0.0980625151
C   C37       1.0  0.77413  0.82167  0.42310  1.0000 -0.0184297439
C   C38       1.0  0.82167  0.77413  0.07690  1.0000 -0.0184297439
C   C39       1.0  0.22587  0.17833  0.57690  1.0000 -0.0184297439
C   C40       1.0  0.17833  0.22587  0.92310  1.0000 -0.0184297439
C   C41       1.0  0.89143  0.91157  0.42250  1.0000 -0.0980625151
C   C42       1.0  0.91157  0.89143  0.07750  1.0000 -0.0980625151
C   C43       1.0  0.10857  0.08843  0.57750  1.0000 -0.0980625151
C   C44       1.0  0.08843  0.10857  0.92250  1.0000 -0.0980625151
C   C45       1.0  0.97302  0.89578  0.39200  1.0000 -0.1510981692
C   C46       1.0  0.89578  0.97302  0.10800  1.0000 -0.1510981692
C   C47       1.0  0.02698  0.10422  0.60800  1.0000 -0.1510981692
C   C48       1.0  0.10422  0.02698  0.89200  1.0000 -0.1510981692
C   C49       1.0  0.04601  0.59859  0.16270  1.0000 0.6492807047
C   C50       1.0  0.59859  0.04601  0.33730  1.0000 0.6492807047
C   C51       1.0  0.95399  0.40141  0.83730  1.0000 0.6492807047
C   C52       1.0  0.40141  0.95399  0.66270  1.0000 0.6492807047
C   C53       1.0  0.31494  0.82026  0.42680  1.0000 0.6278533863
C   C54       1.0  0.82026  0.31494  0.07320  1.0000 0.6278533863
C   C55       1.0  0.68506  0.17974  0.57320  1.0000 0.6278533863
C   C56       1.0  0.17974  0.68506  0.92680  1.0000 0.6278533863
C   C57       1.0  0.69048  0.83772  0.46530  1.0000 0.5706436114
C   C58       1.0  0.83772  0.69048  0.03470  1.0000 0.5706436114
C   C59       1.0  0.30952  0.16228  0.53470  1.0000 0.5706436114
C   C60       1.0  0.16228  0.30952  0.96530  1.0000 0.5706436114
O   O1        1.0  0.95121  0.56599  0.11895  1.0000 -0.6459878011
O   O2        1.0  0.56599  0.95121  0.38105  1.0000 -0.6459878011
O   O3        1.0  0.04879  0.43401  0.88105  1.0000 -0.6459878011
O   O4        1.0  0.43401  0.04879  0.61895  1.0000 -0.6459878011
O   O5        1.0  0.11834  0.57606  0.14690  1.0000 -0.6788381262
O   O6        1.0  0.57606  0.11834  0.35310  1.0000 -0.6788381262
O   O7        1.0  0.88166  0.42394  0.85310  1.0000 -0.6788381262
O   O8        1.0  0.42394  0.88166  0.64690  1.0000 -0.6788381262
O   O9        1.0  0.37039  0.91961  0.46043  1.0000 -0.7537847979
O   O10       1.0  0.91961  0.37039  0.03957  1.0000 -0.7537847979
O   O11       1.0  0.62961  0.08039  0.53957  1.0000 -0.7537847979
O   O12       1.0  0.08039  0.62961  0.96043  1.0000 -0.7537847979
O   O13       1.0  0.34791  0.75309  0.44200  1.0000 -0.5982127411
O   O14       1.0  0.75309  0.34791  0.05800  1.0000 -0.5982127411
O   O15       1.0  0.65209  0.24691  0.55800  1.0000 -0.5982127411
O   O16       1.0  0.24691  0.65209  0.94200  1.0000 -0.5982127411
O   O17       1.0  0.58173  0.75587  0.46350  1.0000 -0.6438305302
O   O18       1.0  0.75587  0.58173  0.03650  1.0000 -0.6438305302
O   O19       1.0  0.41827  0.24413  0.53650  1.0000 -0.6438305302
O   O20       1.0  0.24413  0.41827  0.96350  1.0000 -0.6438305302
O   O21       1.0  0.72974  0.93146  0.50140  1.0000 -0.6305526717
O   O22       1.0  0.93146  0.72974  0.99860  1.0000 -0.6305526717
O   O23       1.0  0.27026  0.06854  0.49860  1.0000 -0.6305526717
O   O24       1.0  0.06854  0.27026  0.00140  1.0000 -0.6305526717
