# DDEC6 charges by PACMAN v1.1 (https://github.com/mtap-research/PACMAN-charge/)
data_2015[Zn][nbo]3[ASR]4
_chemical_formula_sum              "Zn6 H78 C132 N18 O24"
_cell_length_a       18.27
_cell_length_b       18.27
_cell_length_c       18.27
_cell_angle_alpha    109.69
_cell_angle_beta     109.69
_cell_angle_gamma    109.69

_symmetry_space_group_name_H-M    "P 1"
_symmetry_Int_Tables_number       1

loop_
  _symmetry_equiv_pos_as_xyz
  'x, y, z'

loop_
  _atom_site_type_symbol
  _atom_site_label
  _atom_site_symmetry_multiplicity
  _atom_site_fract_x
  _atom_site_fract_y
  _atom_site_fract_z
  _atom_site_occupancy
  _atom_site_charge
Zn  Zn1       1.0  0.74788  0.14448  0.66554  1.0000 0.7844860508
Zn  Zn2       1.0  0.14448  0.66554  0.74788  1.0000 0.7844860508
Zn  Zn3       1.0  0.66554  0.74788  0.14448  1.0000 0.7844860508
Zn  Zn4       1.0  0.25212  0.85552  0.33446  1.0000 0.7844860508
Zn  Zn5       1.0  0.85552  0.33446  0.25212  1.0000 0.7844860508
Zn  Zn6       1.0  0.33446  0.25212  0.85552  1.0000 0.7844860508
H   H1        1.0  0.75970  0.11510  0.48930  1.0000 0.119075639
H   H2        1.0  0.11510  0.48930  0.75970  1.0000 0.119075639
H   H3        1.0  0.48930  0.75970  0.11510  1.0000 0.119075639
H   H4        1.0  0.24030  0.88490  0.51070  1.0000 0.119075639
H   H5        1.0  0.88490  0.51070  0.24030  1.0000 0.119075639
H   H6        1.0  0.51070  0.24030  0.88490  1.0000 0.119075639
H   H7        1.0  0.67850  0.00190  0.33810  1.0000 0.1304098376
H   H8        1.0  0.00190  0.33810  0.67850  1.0000 0.1304098376
H   H9        1.0  0.33810  0.67850  0.00190  1.0000 0.1304098376
H   H10       1.0  0.32150  0.99810  0.66190  1.0000 0.1304098376
H   H11       1.0  0.99810  0.66190  0.32150  1.0000 0.1304098376
H   H12       1.0  0.66190  0.32150  0.99810  1.0000 0.1304098376
H   H13       1.0  0.54250  0.87430  0.28400  1.0000 0.1304098376
H   H14       1.0  0.87430  0.28400  0.54250  1.0000 0.1304098376
H   H15       1.0  0.28400  0.54250  0.87430  1.0000 0.1304098376
H   H16       1.0  0.45750  0.12570  0.71600  1.0000 0.1304098376
H   H17       1.0  0.12570  0.71600  0.45750  1.0000 0.1304098376
H   H18       1.0  0.71600  0.45750  0.12570  1.0000 0.1304098376
H   H19       1.0  0.49320  0.86090  0.38480  1.0000 0.1368822435
H   H20       1.0  0.86090  0.38480  0.49320  1.0000 0.1368822435
H   H21       1.0  0.38480  0.49320  0.86090  1.0000 0.1368822435
H   H22       1.0  0.50680  0.13910  0.61520  1.0000 0.1368822435
H   H23       1.0  0.13910  0.61520  0.50680  1.0000 0.1368822435
H   H24       1.0  0.61520  0.50680  0.13910  1.0000 0.1368822435
H   H25       1.0  0.42170  0.75480  0.54470  1.0000 0.1304098376
H   H26       1.0  0.75480  0.54470  0.42170  1.0000 0.1304098376
H   H27       1.0  0.54470  0.42170  0.75480  1.0000 0.1304098376
H   H28       1.0  0.57830  0.24520  0.45530  1.0000 0.1304098376
H   H29       1.0  0.24520  0.45530  0.57830  1.0000 0.1304098376
H   H30       1.0  0.45530  0.57830  0.24520  1.0000 0.1304098376
H   H31       1.0  0.32120  0.65580  0.56300  1.0000 0.119075639
H   H32       1.0  0.65580  0.56300  0.32120  1.0000 0.119075639
H   H33       1.0  0.56300  0.32120  0.65580  1.0000 0.119075639
H   H34       1.0  0.67880  0.34420  0.43700  1.0000 0.119075639
H   H35       1.0  0.34420  0.43700  0.67880  1.0000 0.119075639
H   H36       1.0  0.43700  0.67880  0.34420  1.0000 0.119075639
H   H37       1.0  0.38420  0.86500  0.79240  1.0000 0.1304098376
H   H38       1.0  0.86500  0.79240  0.38420  1.0000 0.1304098376
H   H39       1.0  0.79240  0.38420  0.86500  1.0000 0.1304098376
H   H40       1.0  0.61580  0.13500  0.20760  1.0000 0.1304098376
H   H41       1.0  0.13500  0.20760  0.61580  1.0000 0.1304098376
H   H42       1.0  0.20760  0.61580  0.13500  1.0000 0.1304098376
H   H43       1.0  0.48750  0.96450  0.77530  1.0000 0.119075639
H   H44       1.0  0.96450  0.77530  0.48750  1.0000 0.119075639
H   H45       1.0  0.77530  0.48750  0.96450  1.0000 0.119075639
H   H46       1.0  0.51250  0.03550  0.22470  1.0000 0.119075639
H   H47       1.0  0.03550  0.22470  0.51250  1.0000 0.119075639
H   H48       1.0  0.22470  0.51250  0.03550  1.0000 0.119075639
H   H49       1.0  0.67140  0.19090  0.79580  1.0000 0.119075639
H   H50       1.0  0.19090  0.79580  0.67140  1.0000 0.119075639
H   H51       1.0  0.79580  0.67140  0.19090  1.0000 0.119075639
H   H52       1.0  0.32860  0.80910  0.20420  1.0000 0.119075639
H   H53       1.0  0.80910  0.20420  0.32860  1.0000 0.119075639
H   H54       1.0  0.20420  0.32860  0.80910  1.0000 0.119075639
H   H55       1.0  0.75320  0.29030  0.95180  1.0000 0.1133818593
H   H56       1.0  0.29030  0.95180  0.75320  1.0000 0.1133818593
H   H57       1.0  0.95180  0.75320  0.29030  1.0000 0.1133818593
H   H58       1.0  0.24680  0.70970  0.04820  1.0000 0.1133818593
H   H59       1.0  0.70970  0.04820  0.24680  1.0000 0.1133818593
H   H60       1.0  0.04820  0.24680  0.70970  1.0000 0.1133818593
H   H61       1.0  0.74400  0.08360  0.99340  1.0000 0.1304098376
H   H62       1.0  0.08360  0.99340  0.74400  1.0000 0.1304098376
H   H63       1.0  0.99340  0.74400  0.08360  1.0000 0.1304098376
H   H64       1.0  0.25600  0.91640  0.00660  1.0000 0.1304098376
H   H65       1.0  0.91640  0.00660  0.25600  1.0000 0.1304098376
H   H66       1.0  0.00660  0.25600  0.91640  1.0000 0.1304098376
H   H67       1.0  0.65850  0.98340  0.83710  1.0000 0.119075639
H   H68       1.0  0.98340  0.83710  0.65850  1.0000 0.119075639
H   H69       1.0  0.83710  0.65850  0.98340  1.0000 0.119075639
H   H70       1.0  0.34150  0.01660  0.16290  1.0000 0.119075639
H   H71       1.0  0.01660  0.16290  0.34150  1.0000 0.119075639
H   H72       1.0  0.16290  0.34150  0.01660  1.0000 0.119075639
H   H73       1.0  0.47650  0.86790  0.51660  1.0000 0.2953712001
H   H74       1.0  0.86790  0.51660  0.47650  1.0000 0.2953712001
H   H75       1.0  0.51660  0.47650  0.86790  1.0000 0.2953712001
H   H76       1.0  0.52350  0.13210  0.48340  1.0000 0.2953712001
H   H77       1.0  0.13210  0.48340  0.52350  1.0000 0.2953712001
H   H78       1.0  0.48340  0.52350  0.13210  1.0000 0.2953712001
C   C1        1.0  0.70547  0.06253  0.46800  1.0000 0.0962245046
C   C2        1.0  0.06253  0.46800  0.70547  1.0000 0.0962245046
C   C3        1.0  0.46800  0.70547  0.06253  1.0000 0.0962245046
C   C4        1.0  0.29453  0.93747  0.53200  1.0000 0.0962245046
C   C5        1.0  0.93747  0.53200  0.29453  1.0000 0.0962245046
C   C6        1.0  0.53200  0.29453  0.93747  1.0000 0.0962245046
C   C7        1.0  0.65694  0.99570  0.37756  1.0000 -0.1304703524
C   C8        1.0  0.99570  0.37756  0.65694  1.0000 -0.1304703524
C   C9        1.0  0.37756  0.65694  0.99570  1.0000 -0.1304703524
C   C10       1.0  0.34306  0.00430  0.62244  1.0000 -0.1304703524
C   C11       1.0  0.00430  0.62244  0.34306  1.0000 -0.1304703524
C   C12       1.0  0.62244  0.34306  0.00430  1.0000 -0.1304703524
C   C13       1.0  0.57727  0.92020  0.34583  1.0000 -0.0171477393
C   C14       1.0  0.92020  0.34583  0.57727  1.0000 -0.0171477393
C   C15       1.0  0.34583  0.57727  0.92020  1.0000 -0.0171477393
C   C16       1.0  0.42273  0.07980  0.65417  1.0000 -0.0171477393
C   C17       1.0  0.07980  0.65417  0.42273  1.0000 -0.0171477393
C   C18       1.0  0.65417  0.42273  0.07980  1.0000 -0.0171477393
C   C19       1.0  0.54819  0.91200  0.40531  1.0000 -0.1705590284
C   C20       1.0  0.91200  0.40531  0.54819  1.0000 -0.1705590284
C   C21       1.0  0.40531  0.54819  0.91200  1.0000 -0.1705590284
C   C22       1.0  0.45181  0.08800  0.59469  1.0000 -0.1705590284
C   C23       1.0  0.08800  0.59469  0.45181  1.0000 -0.1705590284
C   C24       1.0  0.59469  0.45181  0.08800  1.0000 -0.1705590284
C   C25       1.0  0.60093  0.97996  0.49509  1.0000 0.1304098376
C   C26       1.0  0.97996  0.49509  0.60093  1.0000 0.1304098376
C   C27       1.0  0.49509  0.60093  0.97996  1.0000 0.1304098376
C   C28       1.0  0.39907  0.02004  0.50491  1.0000 0.1304098376
C   C29       1.0  0.02004  0.50491  0.39907  1.0000 0.1304098376
C   C30       1.0  0.50491  0.39907  0.02004  1.0000 0.1304098376
C   C31       1.0  0.58257  0.97750  0.56595  1.0000 0.2487172389
C   C32       1.0  0.97750  0.56595  0.58257  1.0000 0.2487172389
C   C33       1.0  0.56595  0.58257  0.97750  1.0000 0.2487172389
C   C34       1.0  0.41743  0.02250  0.43405  1.0000 0.2487172389
C   C35       1.0  0.02250  0.43405  0.41743  1.0000 0.2487172389
C   C36       1.0  0.43405  0.41743  0.02250  1.0000 0.2487172389
C   C37       1.0  0.60657  0.01699  0.70202  1.0000 0.0933742552
C   C38       1.0  0.01699  0.70202  0.60657  1.0000 0.0933742552
C   C39       1.0  0.70202  0.60657  0.01699  1.0000 0.0933742552
C   C40       1.0  0.39343  0.98301  0.29798  1.0000 0.0933742552
C   C41       1.0  0.98301  0.29798  0.39343  1.0000 0.0933742552
C   C42       1.0  0.29798  0.39343  0.98301  1.0000 0.0933742552
C   C43       1.0  0.52856  0.93244  0.64477  1.0000 0.065924409
C   C44       1.0  0.93244  0.64477  0.52856  1.0000 0.065924409
C   C45       1.0  0.64477  0.52856  0.93244  1.0000 0.065924409
C   C46       1.0  0.47144  0.06756  0.35523  1.0000 0.065924409
C   C47       1.0  0.06756  0.35523  0.47144  1.0000 0.065924409
C   C48       1.0  0.35523  0.47144  0.06756  1.0000 0.065924409
C   C49       1.0  0.46516  0.87028  0.65780  1.0000 0.0500299159
C   C50       1.0  0.87028  0.65780  0.46516  1.0000 0.0500299159
C   C51       1.0  0.65780  0.46516  0.87028  1.0000 0.0500299159
C   C52       1.0  0.53484  0.12972  0.34220  1.0000 0.0500299159
C   C53       1.0  0.12972  0.34220  0.53484  1.0000 0.0500299159
C   C54       1.0  0.34220  0.53484  0.12972  1.0000 0.0500299159
C   C55       1.0  0.41452  0.77739  0.59529  1.0000 -0.1422718026
C   C56       1.0  0.77739  0.59529  0.41452  1.0000 -0.1422718026
C   C57       1.0  0.59529  0.41452  0.77739  1.0000 -0.1422718026
C   C58       1.0  0.58548  0.22261  0.40471  1.0000 -0.1422718026
C   C59       1.0  0.22261  0.40471  0.58548  1.0000 -0.1422718026
C   C60       1.0  0.40471  0.58548  0.22261  1.0000 -0.1422718026
C   C61       1.0  0.35463  0.71857  0.60609  1.0000 -0.1084325992
C   C62       1.0  0.71857  0.60609  0.35463  1.0000 -0.1084325992
C   C63       1.0  0.60609  0.35463  0.71857  1.0000 -0.1084325992
C   C64       1.0  0.64537  0.28143  0.39391  1.0000 -0.1084325992
C   C65       1.0  0.28143  0.39391  0.64537  1.0000 -0.1084325992
C   C66       1.0  0.39391  0.64537  0.28143  1.0000 -0.1084325992
C   C67       1.0  0.34205  0.74947  0.67951  1.0000 -0.0259025189
C   C68       1.0  0.74947  0.67951  0.34205  1.0000 -0.0259025189
C   C69       1.0  0.67951  0.34205  0.74947  1.0000 -0.0259025189
C   C70       1.0  0.65795  0.25053  0.32049  1.0000 -0.0259025189
C   C71       1.0  0.25053  0.32049  0.65795  1.0000 -0.0259025189
C   C72       1.0  0.32049  0.65795  0.25053  1.0000 -0.0259025189
C   C73       1.0  0.39219  0.84248  0.74231  1.0000 -0.1002313553
C   C74       1.0  0.84248  0.74231  0.39219  1.0000 -0.1002313553
C   C75       1.0  0.74231  0.39219  0.84248  1.0000 -0.1002313553
C   C76       1.0  0.60781  0.15752  0.25769  1.0000 -0.1002313553
C   C77       1.0  0.15752  0.25769  0.60781  1.0000 -0.1002313553
C   C78       1.0  0.25769  0.60781  0.15752  1.0000 -0.1002313553
C   C79       1.0  0.45334  0.90192  0.73191  1.0000 -0.1554057197
C   C80       1.0  0.90192  0.73191  0.45334  1.0000 -0.1554057197
C   C81       1.0  0.73191  0.45334  0.90192  1.0000 -0.1513343797
C   C82       1.0  0.54666  0.09808  0.26809  1.0000 -0.1513343797
C   C83       1.0  0.09808  0.26809  0.54666  1.0000 -0.1513343797
C   C84       1.0  0.26809  0.54666  0.09808  1.0000 -0.1554057197
C   C85       1.0  0.27181  0.68429  0.68716  1.0000 0.549518541
C   C86       1.0  0.68429  0.68716  0.27181  1.0000 0.549518541
C   C87       1.0  0.68716  0.27181  0.68429  1.0000 0.549518541
C   C88       1.0  0.72819  0.31571  0.31284  1.0000 0.549518541
C   C89       1.0  0.31571  0.31284  0.72819  1.0000 0.549518541
C   C90       1.0  0.31284  0.72819  0.31571  1.0000 0.549518541
C   C91       1.0  0.65620  0.07688  0.80094  1.0000 0.0645333371
C   C92       1.0  0.07688  0.80094  0.65620  1.0000 0.0645333371
C   C93       1.0  0.80094  0.65620  0.07688  1.0000 0.0645333371
C   C94       1.0  0.34380  0.92312  0.19906  1.0000 0.0645333371
C   C95       1.0  0.92312  0.19906  0.34380  1.0000 0.0645333371
C   C96       1.0  0.19906  0.34380  0.92312  1.0000 0.0645333371
C   C97       1.0  0.68514  0.16887  0.83580  1.0000 -0.1422718026
C   C98       1.0  0.16887  0.83580  0.68514  1.0000 -0.1422718026
C   C99       1.0  0.83580  0.68514  0.16887  1.0000 -0.1422718026
C   C100      1.0  0.31486  0.83113  0.16420  1.0000 -0.1422718026
C   C101      1.0  0.83113  0.16420  0.31486  1.0000 -0.1422718026
C   C102      1.0  0.16420  0.31486  0.83113  1.0000 -0.1422718026
C   C103      1.0  0.73388  0.22807  0.92862  1.0000 -0.1084325992
C   C104      1.0  0.22807  0.92862  0.73388  1.0000 -0.1084325992
C   C105      1.0  0.92862  0.73388  0.22807  1.0000 -0.1084325992
C   C106      1.0  0.26612  0.77193  0.07138  1.0000 -0.1084325992
C   C107      1.0  0.77193  0.07138  0.26612  1.0000 -0.1084325992
C   C108      1.0  0.07138  0.26612  0.77193  1.0000 -0.1084325992
C   C109      1.0  0.75444  0.19609  0.98768  1.0000 -0.0046594272
C   C110      1.0  0.19609  0.98768  0.75444  1.0000 -0.0054162415
C   C111      1.0  0.98768  0.75444  0.19609  1.0000 -0.0054162415
C   C112      1.0  0.24556  0.80391  0.01232  1.0000 -0.0054162415
C   C113      1.0  0.80391  0.01232  0.24556  1.0000 -0.0046594272
C   C114      1.0  0.01232  0.24556  0.80391  1.0000 -0.0054162415
C   C115      1.0  0.72798  0.10516  0.95336  1.0000 -0.1002313553
C   C116      1.0  0.10516  0.95336  0.72798  1.0000 -0.1002313553
C   C117      1.0  0.95336  0.72798  0.10516  1.0000 -0.1002313553
C   C118      1.0  0.27202  0.89484  0.04664  1.0000 -0.1002313553
C   C119      1.0  0.89484  0.04664  0.27202  1.0000 -0.1002313553
C   C120      1.0  0.04664  0.27202  0.89484  1.0000 -0.1002313553
C   C121      1.0  0.67790  0.04566  0.86014  1.0000 -0.1513343797
C   C122      1.0  0.04566  0.86014  0.67790  1.0000 -0.1513343797
C   C123      1.0  0.86014  0.67790  0.04566  1.0000 -0.1513343797
C   C124      1.0  0.32210  0.95434  0.13986  1.0000 -0.1513343797
C   C125      1.0  0.95434  0.13986  0.32210  1.0000 -0.1513343797
C   C126      1.0  0.13986  0.32210  0.95434  1.0000 -0.1513343797
C   C127      1.0  0.80124  0.25974  0.08822  1.0000 0.549518541
C   C128      1.0  0.25974  0.08822  0.80124  1.0000 0.549518541
C   C129      1.0  0.08822  0.80124  0.25974  1.0000 0.549518541
C   C130      1.0  0.19876  0.74026  0.91178  1.0000 0.549518541
C   C131      1.0  0.74026  0.91178  0.19876  1.0000 0.549518541
C   C132      1.0  0.91178  0.19876  0.74026  1.0000 0.549518541
N   N1        1.0  0.67853  0.05559  0.52639  1.0000 -0.2687542683
N   N2        1.0  0.05559  0.52639  0.67853  1.0000 -0.2687542683
N   N3        1.0  0.52639  0.67853  0.05559  1.0000 -0.2687542683
N   N4        1.0  0.32147  0.94441  0.47361  1.0000 -0.2687542683
N   N5        1.0  0.94441  0.47361  0.32147  1.0000 -0.2687542683
N   N6        1.0  0.47361  0.32147  0.94441  1.0000 -0.2687542683
N   N7        1.0  0.63864  0.04352  0.65194  1.0000 -0.3643417851
N   N8        1.0  0.04352  0.65194  0.63864  1.0000 -0.3643417851
N   N9        1.0  0.65194  0.63864  0.04352  1.0000 -0.3643417851
N   N10       1.0  0.36136  0.95648  0.34806  1.0000 -0.3643417851
N   N11       1.0  0.95648  0.34806  0.36136  1.0000 -0.3643417851
N   N12       1.0  0.34806  0.36136  0.95648  1.0000 -0.3643417851
N   N13       1.0  0.51557  0.90975  0.55922  1.0000 -0.2501861499
N   N14       1.0  0.90975  0.55922  0.51557  1.0000 -0.2501861499
N   N15       1.0  0.55922  0.51557  0.90975  1.0000 -0.2501861499
N   N16       1.0  0.48443  0.09025  0.44078  1.0000 -0.2501861499
N   N17       1.0  0.09025  0.44078  0.48443  1.0000 -0.2501861499
N   N18       1.0  0.44078  0.48443  0.09025  1.0000 -0.2501861499
O   O1        1.0  0.25801  0.72008  0.75097  1.0000 -0.5356758282
O   O2        1.0  0.72008  0.75097  0.25801  1.0000 -0.5356758282
O   O3        1.0  0.75097  0.25801  0.72008  1.0000 -0.5356758282
O   O4        1.0  0.74199  0.27992  0.24903  1.0000 -0.5356758282
O   O5        1.0  0.27992  0.24903  0.74199  1.0000 -0.5356758282
O   O6        1.0  0.24903  0.74199  0.27992  1.0000 -0.5356758282
O   O7        1.0  0.23022  0.60285  0.63127  1.0000 -0.5698728904
O   O8        1.0  0.60285  0.63127  0.23022  1.0000 -0.5698728904
O   O9        1.0  0.63127  0.23022  0.60285  1.0000 -0.5698728904
O   O10       1.0  0.76978  0.39715  0.36873  1.0000 -0.5698728904
O   O11       1.0  0.39715  0.36873  0.76978  1.0000 -0.5698728904
O   O12       1.0  0.36873  0.76978  0.39715  1.0000 -0.5698728904
O   O13       1.0  0.80446  0.33381  0.11713  1.0000 -0.5584119008
O   O14       1.0  0.33381  0.11713  0.80446  1.0000 -0.5584119008
O   O15       1.0  0.11713  0.80446  0.33381  1.0000 -0.5584119008
O   O16       1.0  0.19554  0.66619  0.88287  1.0000 -0.5584119008
O   O17       1.0  0.66619  0.88287  0.19554  1.0000 -0.5584119008
O   O18       1.0  0.88287  0.19554  0.66619  1.0000 -0.5584119008
O   O19       1.0  0.83227  0.23299  0.14085  1.0000 -0.5227369414
O   O20       1.0  0.23299  0.14085  0.83227  1.0000 -0.5227369414
O   O21       1.0  0.14085  0.83227  0.23299  1.0000 -0.5227369414
O   O22       1.0  0.16773  0.76701  0.85915  1.0000 -0.5227369414
O   O23       1.0  0.76701  0.85915  0.16773  1.0000 -0.5227369414
O   O24       1.0  0.85915  0.16773  0.76701  1.0000 -0.5227369414
