# DDEC6 charges by PACMAN v1.1 (https://github.com/mtap-research/PACMAN-charge/)
data_2015[Nd][pcu]3[ASR]1
_chemical_formula_sum              "Nd2 H18 C36 O12"
_cell_length_a       11.9577
_cell_length_b       12.2216
_cell_length_c       13.5034
_cell_angle_alpha    102.535
_cell_angle_beta     98.857
_cell_angle_gamma    107.293

_symmetry_space_group_name_H-M    "P 1"
_symmetry_Int_Tables_number       1

loop_
  _symmetry_equiv_pos_as_xyz
  'x, y, z'

loop_
  _atom_site_type_symbol
  _atom_site_label
  _atom_site_symmetry_multiplicity
  _atom_site_fract_x
  _atom_site_fract_y
  _atom_site_fract_z
  _atom_site_occupancy
  _atom_site_charge
Nd  Nd1       1.0  0.66987  0.53030  0.05569  1.0000 2.091618677
Nd  Nd2       1.0  0.33449  0.47742  0.94640  1.0000 2.0958844622
H   H1        1.0  0.40995  0.75378  0.93580  1.0000 0.1195001105
H   H2        1.0  0.75516  0.95638  0.14978  1.0000 0.1195001105
H   H3        1.0  0.72197  0.14984  0.13686  1.0000 0.1095926355
H   H4        1.0  0.98389  0.65859  0.38097  1.0000 0.1195001105
H   H5        1.0  0.75800  0.28863  0.28512  1.0000 0.1036881258
H   H6        1.0  0.85834  0.25765  0.44966  1.0000 0.1095926355
H   H7        1.0  0.74302  0.56969  0.73326  1.0000 0.1095926355
H   H8        1.0  0.76205  0.58662  0.55136  1.0000 0.1036881258
H   H9        1.0  0.66021  0.57070  0.36964  1.0000 0.1195001105
H   H10       1.0  0.27828  0.50071  0.28442  1.0000 0.1095926355
H   H11       1.0  0.26025  0.48369  0.46528  1.0000 0.1036881258
H   H12       1.0  0.36005  0.49042  0.64303  1.0000 0.1095926355
H   H13       1.0  0.59080  0.24716  0.06454  1.0000 0.1195001105
H   H14       1.0  0.24473  0.04423  0.85012  1.0000 0.1095926355
H   H15       1.0  0.27842  0.85189  0.86352  1.0000 0.1095926355
H   H16       1.0  0.01614  0.34122  0.61884  1.0000 0.1195001105
H   H17       1.0  0.24171  0.71133  0.71494  1.0000 0.1036881258
H   H18       1.0  0.14172  0.74230  0.55037  1.0000 0.1095926355
C   C1        1.0  0.60771  0.73785  0.05101  1.0000 0.6305889388
C   C2        1.0  0.45501  0.94461  0.97089  1.0000 0.0790611406
C   C3        1.0  0.47734  0.83977  0.98099  1.0000 -0.1303960483
C   C4        1.0  0.58395  0.84764  0.04440  1.0000 -0.0226947849
C   C5        1.0  0.67352  0.95871  0.10206  1.0000 -0.0895805508
C   C6        1.0  0.65382  0.06229  0.09431  1.0000 -0.1303960483
C   C7        1.0  0.81352  0.49090  0.22182  1.0000 0.5722771187
C   C8        1.0  0.01810  0.55772  0.49064  1.0000 0.064942119
C   C9        1.0  0.95831  0.57133  0.39664  1.0000 -0.1370411801
C   C10       1.0  0.86832  0.47525  0.32326  1.0000 -0.010395338
C   C11       1.0  0.83087  0.36161  0.34350  1.0000 -0.0960860178
C   C12       1.0  0.88650  0.34557  0.43423  1.0000 -0.1370411801
C   C13       1.0  0.54266  0.51021  0.80237  1.0000 0.6580011149
C   C14       1.0  0.47342  0.53609  0.20768  1.0000 0.6580011149
C   C15       1.0  0.55171  0.52822  0.69709  1.0000 -0.0286008936
C   C16       1.0  0.66565  0.55745  0.67147  1.0000 -0.0895805508
C   C17       1.0  0.67411  0.56609  0.57215  1.0000 -0.1303960483
C   C18       1.0  0.56863  0.54712  0.49454  1.0000 0.0720652043
C   C19       1.0  0.57313  0.55327  0.39109  1.0000 -0.1303960483
C   C20       1.0  0.46846  0.53550  0.31773  1.0000 -0.0286008936
C   C21       1.0  0.35590  0.51213  0.34541  1.0000 -0.0895805508
C   C22       1.0  0.34798  0.50337  0.44462  1.0000 -0.1303960483
C   C23       1.0  0.45340  0.52023  0.52099  1.0000 0.0720652043
C   C24       1.0  0.44795  0.51130  0.62339  1.0000 -0.1303960483
C   C25       1.0  0.39472  0.26689  0.95023  1.0000 0.6305889388
C   C26       1.0  0.54485  0.05689  0.02905  1.0000 0.0790611406
C   C27       1.0  0.52280  0.16188  0.01899  1.0000 -0.1303960483
C   C28       1.0  0.41662  0.15546  0.95570  1.0000 -0.0226947849
C   C29       1.0  0.32695  0.04370  0.89823  1.0000 -0.0960860178
C   C30       1.0  0.34631  0.93983  0.90586  1.0000 -0.1303960483
C   C31       1.0  0.18602  0.50974  0.77885  1.0000 0.5722771187
C   C32       1.0  0.98181  0.44223  0.50937  1.0000 0.0720652043
C   C33       1.0  0.04168  0.42855  0.60334  1.0000 -0.1370411801
C   C34       1.0  0.13138  0.52468  0.67694  1.0000 -0.010395338
C   C35       1.0  0.16876  0.63835  0.65665  1.0000 -0.0960860178
C   C36       1.0  0.11337  0.65439  0.56584  1.0000 -0.1370411801
O   O1        1.0  0.71426  0.74235  0.08901  1.0000 -0.6169882814
O   O2        1.0  0.51861  0.63686  0.01669  1.0000 -0.7730616729
O   O3        1.0  0.84839  0.59313  0.20319  1.0000 -0.6418174605
O   O4        1.0  0.73126  0.39998  0.15324  1.0000 -0.6486263077
O   O5        1.0  0.63882  0.53204  0.87231  1.0000 -0.6792358259
O   O6        1.0  0.43491  0.47018  0.81424  1.0000 -0.6726056139
O   O7        1.0  0.37639  0.51099  0.13780  1.0000 -0.6792358259
O   O8        1.0  0.57999  0.56076  0.19152  1.0000 -0.6726056139
O   O9        1.0  0.28913  0.26410  0.91118  1.0000 -0.6169882814
O   O10       1.0  0.48397  0.36878  0.98682  1.0000 -0.7853612105
O   O11       1.0  0.15587  0.40698  0.79665  1.0000 -0.6418174605
O   O12       1.0  0.26404  0.60262  0.84892  1.0000 -0.6569333474
