# DDEC6 charges by PACMAN v1.1 (https://github.com/mtap-research/PACMAN-charge/)
data_2015[Cd][nan]3[ASR]4
_chemical_formula_sum              "Cd8 H56 C116 N8 O32 F24"
_cell_length_a       16.0121
_cell_length_b       7.5502
_cell_length_c       27.8153
_cell_angle_alpha    90
_cell_angle_beta     99.733
_cell_angle_gamma    90

_symmetry_space_group_name_H-M    "P 1"
_symmetry_Int_Tables_number       1

loop_
  _symmetry_equiv_pos_as_xyz
  'x, y, z'

loop_
  _atom_site_type_symbol
  _atom_site_label
  _atom_site_symmetry_multiplicity
  _atom_site_fract_x
  _atom_site_fract_y
  _atom_site_fract_z
  _atom_site_occupancy
  _atom_site_charge
Cd  Cd1       1.0  0.78439  0.47396  0.91986  1.0000 0.9492222461
Cd  Cd2       1.0  0.21561  0.97396  0.58014  1.0000 0.9492222461
Cd  Cd3       1.0  0.21561  0.52604  0.08014  1.0000 0.9492222461
Cd  Cd4       1.0  0.78439  0.02604  0.41986  1.0000 0.9492222461
Cd  Cd5       1.0  0.84900  0.95735  0.95349  1.0000 0.9665156993
Cd  Cd6       1.0  0.15100  0.45735  0.54651  1.0000 0.9665156993
Cd  Cd7       1.0  0.15100  0.04265  0.04651  1.0000 0.9665156993
Cd  Cd8       1.0  0.84900  0.54265  0.45349  1.0000 0.9665156993
H   H1        1.0  0.79950  0.26100  0.76760  1.0000 0.120007402
H   H2        1.0  0.20050  0.76100  0.73240  1.0000 0.120007402
H   H3        1.0  0.20050  0.73900  0.23240  1.0000 0.120007402
H   H4        1.0  0.79950  0.23900  0.26760  1.0000 0.120007402
H   H5        1.0  0.80480  0.79480  0.70030  1.0000 0.120007402
H   H6        1.0  0.19520  0.29480  0.79970  1.0000 0.120007402
H   H7        1.0  0.19520  0.20520  0.29970  1.0000 0.120007402
H   H8        1.0  0.80480  0.70520  0.20030  1.0000 0.120007402
H   H9        1.0  0.78120  0.65160  0.76960  1.0000 0.1289037111
H   H10       1.0  0.21880  0.15160  0.73040  1.0000 0.1289037111
H   H11       1.0  0.21880  0.34840  0.23040  1.0000 0.1289037111
H   H12       1.0  0.78120  0.84840  0.26960  1.0000 0.1289037111
H   H13       1.0  0.96160  0.96370  0.70810  1.0000 0.120007402
H   H14       1.0  0.03840  0.46370  0.79190  1.0000 0.120007402
H   H15       1.0  0.03840  0.03630  0.29190  1.0000 0.120007402
H   H16       1.0  0.96160  0.53630  0.20810  1.0000 0.120007402
H   H17       1.0  0.04920  0.80140  0.66780  1.0000 0.1289037111
H   H18       1.0  0.95080  0.30140  0.83220  1.0000 0.1289037111
H   H19       1.0  0.95080  0.19860  0.33220  1.0000 0.1289037111
H   H20       1.0  0.04920  0.69860  0.16780  1.0000 0.1289037111
H   H21       1.0  0.80700  0.05530  0.58210  1.0000 0.110430017
H   H22       1.0  0.19300  0.55530  0.91790  1.0000 0.110430017
H   H23       1.0  0.19300  0.94470  0.41790  1.0000 0.110430017
H   H24       1.0  0.80700  0.44470  0.08210  1.0000 0.110430017
H   H25       1.0  0.70370  0.34690  0.01000  1.0000 0.110430017
H   H26       1.0  0.29630  0.84690  0.49000  1.0000 0.110430017
H   H27       1.0  0.29630  0.65310  0.99000  1.0000 0.110430017
H   H28       1.0  0.70370  0.15310  0.51000  1.0000 0.110430017
H   H29       1.0  0.58280  0.24930  0.03430  1.0000 0.1289037111
H   H30       1.0  0.41720  0.74930  0.46570  1.0000 0.1289037111
H   H31       1.0  0.41720  0.75070  0.96570  1.0000 0.1289037111
H   H32       1.0  0.58280  0.25070  0.53430  1.0000 0.1289037111
H   H33       1.0  0.46110  0.31840  0.89860  1.0000 0.1371541339
H   H34       1.0  0.53890  0.81840  0.60140  1.0000 0.1371541339
H   H35       1.0  0.53890  0.68160  0.10140  1.0000 0.1371541339
H   H36       1.0  0.46110  0.18160  0.39860  1.0000 0.1371541339
H   H37       1.0  0.58580  0.41520  0.87830  1.0000 0.120007402
H   H38       1.0  0.41420  0.91520  0.62170  1.0000 0.120007402
H   H39       1.0  0.41420  0.58480  0.12170  1.0000 0.120007402
H   H40       1.0  0.58580  0.08480  0.37830  1.0000 0.120007402
H   H41       1.0  0.47010  0.20440  0.05780  1.0000 0.1289037111
H   H42       1.0  0.52990  0.70440  0.44220  1.0000 0.1289037111
H   H43       1.0  0.52990  0.79560  0.94220  1.0000 0.1289037111
H   H44       1.0  0.47010  0.29560  0.55780  1.0000 0.1289037111
H   H45       1.0  0.34750  0.10930  0.08140  1.0000 0.120007402
H   H46       1.0  0.65250  0.60930  0.41860  1.0000 0.120007402
H   H47       1.0  0.65250  0.89070  0.91860  1.0000 0.120007402
H   H48       1.0  0.34750  0.39070  0.58140  1.0000 0.120007402
H   H49       1.0  0.23330  0.09260  0.94660  1.0000 0.110430017
H   H50       1.0  0.76670  0.59260  0.55340  1.0000 0.110430017
H   H51       1.0  0.76670  0.90740  0.05340  1.0000 0.110430017
H   H52       1.0  0.23330  0.40740  0.44660  1.0000 0.110430017
H   H53       1.0  0.35300  0.18360  0.91890  1.0000 0.1371541339
H   H54       1.0  0.64700  0.68360  0.58110  1.0000 0.1371541339
H   H55       1.0  0.64700  0.81640  0.08110  1.0000 0.1371541339
H   H56       1.0  0.35300  0.31640  0.41890  1.0000 0.1371541339
C   C1        1.0  0.76130  0.75880  0.85483  1.0000 0.5787859304
C   C2        1.0  0.23870  0.25880  0.64517  1.0000 0.5787859304
C   C3        1.0  0.23870  0.24120  0.14517  1.0000 0.5787859304
C   C4        1.0  0.76130  0.74120  0.35483  1.0000 0.5787859304
C   C5        1.0  0.77730  0.86900  0.81152  1.0000 -0.0009053596
C   C6        1.0  0.22270  0.36900  0.68848  1.0000 -0.0009053596
C   C7        1.0  0.22270  0.13100  0.18848  1.0000 -0.0009053596
C   C8        1.0  0.77730  0.63100  0.31152  1.0000 -0.0009053596
C   C9        1.0  0.78340  0.05270  0.81061  1.0000 -0.0323732133
C   C10       1.0  0.21660  0.55270  0.68939  1.0000 -0.0323732133
C   C11       1.0  0.21660  0.94730  0.18939  1.0000 -0.0323732133
C   C12       1.0  0.78340  0.44730  0.31061  1.0000 -0.0323732133
C   C13       1.0  0.79700  0.13800  0.76814  1.0000 -0.1601733659
C   C14       1.0  0.20300  0.63800  0.73186  1.0000 -0.1601733659
C   C15       1.0  0.20300  0.86200  0.23186  1.0000 -0.1601733659
C   C16       1.0  0.79700  0.36200  0.26814  1.0000 -0.1601733659
C   C17       1.0  0.80680  0.04390  0.72662  1.0000 0.0709866427
C   C18       1.0  0.19320  0.54390  0.77338  1.0000 0.0709866427
C   C19       1.0  0.19320  0.95610  0.27338  1.0000 0.0709866427
C   C20       1.0  0.80680  0.45610  0.22662  1.0000 0.0709866427
C   C21       1.0  0.79980  0.86060  0.72790  1.0000 -0.1282634568
C   C22       1.0  0.20020  0.36060  0.77210  1.0000 -0.1282634568
C   C23       1.0  0.20020  0.13940  0.27210  1.0000 -0.1282634568
C   C24       1.0  0.79980  0.63940  0.22790  1.0000 -0.1282634568
C   C25       1.0  0.78540  0.77440  0.76959  1.0000 -0.1084100279
C   C26       1.0  0.21460  0.27440  0.73041  1.0000 -0.1084100279
C   C27       1.0  0.21460  0.22560  0.23041  1.0000 -0.1084100279
C   C28       1.0  0.78540  0.72560  0.26959  1.0000 -0.1084100279
C   C29       1.0  0.77170  0.16620  0.85357  1.0000 0.5787859304
C   C30       1.0  0.22830  0.66620  0.64643  1.0000 0.5787859304
C   C31       1.0  0.22830  0.83380  0.14643  1.0000 0.5787859304
C   C32       1.0  0.77170  0.33380  0.35357  1.0000 0.5787859304
C   C33       1.0  0.81780  0.13600  0.67846  1.0000 -0.2762885299
C   C34       1.0  0.18220  0.63600  0.82154  1.0000 -0.2762885299
C   C35       1.0  0.18220  0.86400  0.32154  1.0000 -0.2762885299
C   C36       1.0  0.81780  0.36400  0.17846  1.0000 -0.2762885299
C   C37       1.0  0.86150  0.31770  0.68673  1.0000 0.6725635695
C   C38       1.0  0.13850  0.81770  0.81327  1.0000 0.6725635695
C   C39       1.0  0.13850  0.68230  0.31327  1.0000 0.6725635695
C   C40       1.0  0.86150  0.18230  0.18673  1.0000 0.6725635695
C   C41       1.0  0.72720  0.16300  0.64933  1.0000 0.6725635695
C   C42       1.0  0.27280  0.66300  0.85067  1.0000 0.6725635695
C   C43       1.0  0.27280  0.83700  0.35067  1.0000 0.6725635695
C   C44       1.0  0.72720  0.33700  0.14933  1.0000 0.6725635695
C   C45       1.0  0.87370  0.02470  0.64948  1.0000 0.0709866427
C   C46       1.0  0.12630  0.52470  0.85052  1.0000 0.0709866427
C   C47       1.0  0.12630  0.97530  0.35052  1.0000 0.0709866427
C   C48       1.0  0.87370  0.47530  0.14948  1.0000 0.0709866427
C   C49       1.0  0.94760  0.94850  0.67456  1.0000 -0.1282634568
C   C50       1.0  0.05240  0.44850  0.82544  1.0000 -0.1282634568
C   C51       1.0  0.05240  0.05150  0.32544  1.0000 -0.1282634568
C   C52       1.0  0.94760  0.55150  0.17456  1.0000 -0.1282634568
C   C53       1.0  0.00010  0.85100  0.65036  1.0000 -0.1084100279
C   C54       1.0  0.99990  0.35100  0.84964  1.0000 -0.1084100279
C   C55       1.0  0.99990  0.14900  0.34964  1.0000 -0.1084100279
C   C56       1.0  0.00010  0.64900  0.15036  1.0000 -0.1084100279
C   C57       1.0  0.98070  0.82560  0.60034  1.0000 0.0023955113
C   C58       1.0  0.01930  0.32560  0.89966  1.0000 0.0023955113
C   C59       1.0  0.01930  0.17440  0.39966  1.0000 0.0023955113
C   C60       1.0  0.98070  0.67440  0.10034  1.0000 0.0023955113
C   C61       1.0  0.90790  0.90340  0.57461  1.0000 -0.0428318531
C   C62       1.0  0.09210  0.40340  0.92539  1.0000 -0.0428318531
C   C63       1.0  0.09210  0.09660  0.42539  1.0000 -0.0428318531
C   C64       1.0  0.90790  0.59660  0.07461  1.0000 -0.0428318531
C   C65       1.0  0.85540  0.00280  0.59949  1.0000 -0.168468861
C   C66       1.0  0.14460  0.50280  0.90051  1.0000 -0.168468861
C   C67       1.0  0.14460  0.99720  0.40051  1.0000 -0.168468861
C   C68       1.0  0.85540  0.49720  0.09949  1.0000 -0.168468861
C   C69       1.0  0.04140  0.72040  0.57583  1.0000 0.5963845643
C   C70       1.0  0.95860  0.22040  0.92417  1.0000 0.5963845643
C   C71       1.0  0.95860  0.27960  0.42417  1.0000 0.5963845643
C   C72       1.0  0.04140  0.77960  0.07583  1.0000 0.5963845643
C   C73       1.0  0.88110  0.87650  0.52041  1.0000 0.5787859304
C   C74       1.0  0.11890  0.37650  0.97959  1.0000 0.5787859304
C   C75       1.0  0.11890  0.12350  0.47959  1.0000 0.5787859304
C   C76       1.0  0.88110  0.62350  0.02041  1.0000 0.5787859304
C   C77       1.0  0.65420  0.34170  0.98706  1.0000 0.0709866427
C   C78       1.0  0.34580  0.84170  0.51294  1.0000 0.0709866427
C   C79       1.0  0.34580  0.65830  0.01294  1.0000 0.0709866427
C   C80       1.0  0.65420  0.15830  0.48706  1.0000 0.0709866427
C   C81       1.0  0.58130  0.28260  0.00196  1.0000 -0.2001612038
C   C82       1.0  0.41870  0.78260  0.49804  1.0000 -0.2001612038
C   C83       1.0  0.41870  0.71740  0.99804  1.0000 -0.2001612038
C   C84       1.0  0.58130  0.21740  0.50196  1.0000 -0.2001612038
C   C85       1.0  0.50590  0.27230  0.96951  1.0000 0.0991998119
C   C86       1.0  0.49410  0.77230  0.53049  1.0000 0.0991998119
C   C87       1.0  0.49410  0.72770  0.03049  1.0000 0.0991998119
C   C88       1.0  0.50590  0.22770  0.46951  1.0000 0.0991998119
C   C89       1.0  0.50950  0.32310  0.92238  1.0000 -0.2001612038
C   C90       1.0  0.49050  0.82310  0.57762  1.0000 -0.2001612038
C   C91       1.0  0.49050  0.67690  0.07762  1.0000 -0.2001612038
C   C92       1.0  0.50950  0.17690  0.42238  1.0000 -0.2001612038
C   C93       1.0  0.58550  0.38130  0.91041  1.0000 0.0934412572
C   C94       1.0  0.41450  0.88130  0.58959  1.0000 0.0934412572
C   C95       1.0  0.41450  0.61870  0.08959  1.0000 0.0934412572
C   C96       1.0  0.58550  0.11870  0.41041  1.0000 0.0934412572
C   C97       1.0  0.42680  0.20830  0.98534  1.0000 0.110430017
C   C98       1.0  0.57320  0.70830  0.51466  1.0000 0.110430017
C   C99       1.0  0.57320  0.79170  0.01466  1.0000 0.110430017
C   C100      1.0  0.42680  0.29170  0.48534  1.0000 0.110430017
C   C101      1.0  0.42260  0.18300  0.03429  1.0000 -0.1895595306
C   C102      1.0  0.57740  0.68300  0.46571  1.0000 -0.1895595306
C   C103      1.0  0.57740  0.81700  0.96571  1.0000 -0.1895595306
C   C104      1.0  0.42260  0.31700  0.53429  1.0000 -0.1895595306
C   C105      1.0  0.34820  0.12620  0.04838  1.0000 0.0991998119
C   C106      1.0  0.65180  0.62620  0.45162  1.0000 0.0991998119
C   C107      1.0  0.65180  0.87380  0.95162  1.0000 0.0991998119
C   C108      1.0  0.34820  0.37380  0.54838  1.0000 0.0991998119
C   C109      1.0  0.28160  0.11610  0.96933  1.0000 0.0810690857
C   C110      1.0  0.71840  0.61610  0.53067  1.0000 0.0810690857
C   C111      1.0  0.71840  0.88390  0.03067  1.0000 0.0810690857
C   C112      1.0  0.28160  0.38390  0.46933  1.0000 0.0810690857
C   C113      1.0  0.35360  0.17130  0.95224  1.0000 -0.1895595306
C   C114      1.0  0.64640  0.67130  0.54776  1.0000 -0.1895595306
C   C115      1.0  0.64640  0.82870  0.04776  1.0000 -0.1895595306
C   C116      1.0  0.35360  0.32870  0.45224  1.0000 -0.1895595306
N   N1        1.0  0.65729  0.39190  0.94135  1.0000 -0.230514383
N   N2        1.0  0.34271  0.89190  0.55865  1.0000 -0.230514383
N   N3        1.0  0.34271  0.60810  0.05865  1.0000 -0.230514383
N   N4        1.0  0.65729  0.10810  0.44135  1.0000 -0.230514383
N   N5        1.0  0.27738  0.09450  0.01664  1.0000 -0.2605405954
N   N6        1.0  0.72262  0.59450  0.48336  1.0000 -0.2605405954
N   N7        1.0  0.72262  0.90550  0.98336  1.0000 -0.2605405954
N   N8        1.0  0.27738  0.40550  0.51664  1.0000 -0.2605405954
O   O1        1.0  0.82269  0.73630  0.89036  1.0000 -0.5694538113
O   O2        1.0  0.17731  0.23630  0.60964  1.0000 -0.5694538113
O   O3        1.0  0.17731  0.26370  0.10964  1.0000 -0.5694538113
O   O4        1.0  0.82269  0.76370  0.39036  1.0000 -0.5694538113
O   O5        1.0  0.69306  0.68180  0.85184  1.0000 -0.5277254638
O   O6        1.0  0.30694  0.18180  0.64816  1.0000 -0.5277254638
O   O7        1.0  0.30694  0.31820  0.14816  1.0000 -0.5277254638
O   O8        1.0  0.69306  0.81820  0.35184  1.0000 -0.5277254638
O   O9        1.0  0.75426  0.09280  0.89142  1.0000 -0.5970129875
O   O10       1.0  0.24574  0.59280  0.60858  1.0000 -0.5970129875
O   O11       1.0  0.24574  0.90720  0.10858  1.0000 -0.5970129875
O   O12       1.0  0.75426  0.40720  0.39142  1.0000 -0.5970129875
O   O13       1.0  0.78057  0.33030  0.84906  1.0000 -0.5277254638
O   O14       1.0  0.21943  0.83030  0.65094  1.0000 -0.5277254638
O   O15       1.0  0.21943  0.66970  0.15094  1.0000 -0.5277254638
O   O16       1.0  0.78057  0.16970  0.34906  1.0000 -0.5277254638
O   O17       1.0  0.09657  0.80100  0.55736  1.0000 -0.5694538113
O   O18       1.0  0.90343  0.30100  0.94264  1.0000 -0.5694538113
O   O19       1.0  0.90343  0.19900  0.44264  1.0000 -0.5694538113
O   O20       1.0  0.09657  0.69900  0.05736  1.0000 -0.5694538113
O   O21       1.0  0.03763  0.55350  0.57761  1.0000 -0.5133800116
O   O22       1.0  0.96237  0.05350  0.92239  1.0000 -0.5133800116
O   O23       1.0  0.96237  0.44650  0.42239  1.0000 -0.5133800116
O   O24       1.0  0.03763  0.94650  0.07761  1.0000 -0.5133800116
O   O25       1.0  0.91879  0.76000  0.50016  1.0000 -0.5195411649
O   O26       1.0  0.08121  0.26000  0.99984  1.0000 -0.5195411649
O   O27       1.0  0.08121  0.24000  0.49984  1.0000 -0.5195411649
O   O28       1.0  0.91879  0.74000  0.00016  1.0000 -0.5195411649
O   O29       1.0  0.82038  0.96940  0.49998  1.0000 -0.5598647204
O   O30       1.0  0.17962  0.46940  0.00002  1.0000 -0.5598647204
O   O31       1.0  0.17962  0.03060  0.50002  1.0000 -0.5598647204
O   O32       1.0  0.82038  0.53060  0.99998  1.0000 -0.5598647204
F   F1        1.0  0.67640  0.23720  0.67738  1.0000 -0.2001612038
F   F2        1.0  0.32360  0.73720  0.82262  1.0000 -0.2001612038
F   F3        1.0  0.32360  0.76280  0.32262  1.0000 -0.2001612038
F   F4        1.0  0.67640  0.26280  0.17738  1.0000 -0.2001612038
F   F5        1.0  0.69204  0.01160  0.63310  1.0000 -0.2001612038
F   F6        1.0  0.30796  0.51160  0.86690  1.0000 -0.2001612038
F   F7        1.0  0.30796  0.98840  0.36690  1.0000 -0.2001612038
F   F8        1.0  0.69204  0.48840  0.13310  1.0000 -0.2001612038
F   F9        1.0  0.72490  0.27090  0.61073  1.0000 -0.215021303
F   F10       1.0  0.27510  0.77090  0.88927  1.0000 -0.2117059213
F   F11       1.0  0.27510  0.72910  0.38927  1.0000 -0.2117059213
F   F12       1.0  0.72490  0.22910  0.11073  1.0000 -0.215021303
F   F13       1.0  0.88450  0.38070  0.64626  1.0000 -0.1895595306
F   F14       1.0  0.11550  0.88070  0.85374  1.0000 -0.1895595306
F   F15       1.0  0.11550  0.61930  0.35374  1.0000 -0.1895595306
F   F16       1.0  0.88450  0.11930  0.14626  1.0000 -0.1895595306
F   F17       1.0  0.93080  0.30880  0.72057  1.0000 -0.1895595306
F   F18       1.0  0.06920  0.80880  0.77943  1.0000 -0.1895595306
F   F19       1.0  0.06920  0.69120  0.27943  1.0000 -0.1895595306
F   F20       1.0  0.93080  0.19120  0.22057  1.0000 -0.1895595306
F   F21       1.0  0.81140  0.44230  0.70196  1.0000 -0.2117059213
F   F22       1.0  0.18860  0.94230  0.79804  1.0000 -0.2117059213
F   F23       1.0  0.18860  0.55770  0.29804  1.0000 -0.2117059213
F   F24       1.0  0.81140  0.05770  0.20196  1.0000 -0.2117059213
