# DDEC6 charges by PACMAN v1.1 (https://github.com/mtap-research/PACMAN-charge/)
data_2015[Gd][ssa]3[ASR]1
_chemical_formula_sum              "Gd6 H12 C36 N18 O42"
_cell_length_a       15.8956
_cell_length_b       15.8956
_cell_length_c       7.6028
_cell_angle_alpha    90
_cell_angle_beta     90
_cell_angle_gamma    120

_symmetry_space_group_name_H-M    "P 1"
_symmetry_Int_Tables_number       1

loop_
  _symmetry_equiv_pos_as_xyz
  'x, y, z'

loop_
  _atom_site_type_symbol
  _atom_site_label
  _atom_site_symmetry_multiplicity
  _atom_site_fract_x
  _atom_site_fract_y
  _atom_site_fract_z
  _atom_site_occupancy
  _atom_site_charge
Gd  Gd1       1.0  0.37021  0.18511  0.25515  1.0000 1.8556070168
Gd  Gd2       1.0  0.62979  0.81489  0.75515  1.0000 1.8556070168
Gd  Gd3       1.0  0.81489  0.18510  0.25515  1.0000 1.8556070168
Gd  Gd4       1.0  0.81490  0.62979  0.25515  1.0000 1.8556070168
Gd  Gd5       1.0  0.18510  0.37021  0.75515  1.0000 1.8556070168
Gd  Gd6       1.0  0.18511  0.81490  0.75515  1.0000 1.8556070168
H   H1        1.0  0.61950  0.23880  0.27300  1.0000 0.0949459513
H   H2        1.0  0.38050  0.76120  0.77300  1.0000 0.0949459513
H   H3        1.0  0.76120  0.38070  0.27300  1.0000 0.0949459513
H   H4        1.0  0.61930  0.38050  0.27300  1.0000 0.0949459513
H   H5        1.0  0.38070  0.61950  0.77300  1.0000 0.0949459513
H   H6        1.0  0.23880  0.61930  0.77300  1.0000 0.0949459513
H   H7        1.0  0.49160  0.98280  0.64760  1.0000 0.1509419222
H   H8        1.0  0.50840  0.01720  0.14760  1.0000 0.1509419222
H   H9        1.0  0.01720  0.50880  0.64760  1.0000 0.1509419222
H   H10       1.0  0.49120  0.50840  0.64760  1.0000 0.1509419222
H   H11       1.0  0.50880  0.49160  0.14760  1.0000 0.1509419222
H   H12       1.0  0.98280  0.49120  0.14760  1.0000 0.1509419222
C   C1        1.0  0.59340  0.18660  0.35070  1.0000 0.2518556853
C   C2        1.0  0.40660  0.81340  0.85070  1.0000 0.2518556853
C   C3        1.0  0.81340  0.40680  0.35070  1.0000 0.2518556853
C   C4        1.0  0.59320  0.40660  0.35070  1.0000 0.2518556853
C   C5        1.0  0.40680  0.59340  0.85070  1.0000 0.2518556853
C   C6        1.0  0.18660  0.59320  0.85070  1.0000 0.2518556853
C   C7        1.0  0.61240  0.07600  0.51140  1.0000 0.172004952
C   C8        1.0  0.38760  0.92400  0.01140  1.0000 0.172004952
C   C9        1.0  0.92400  0.53640  0.51140  1.0000 0.172004952
C   C10       1.0  0.46360  0.38760  0.51140  1.0000 0.172004952
C   C11       1.0  0.53640  0.61240  0.01140  1.0000 0.172004952
C   C12       1.0  0.07600  0.46360  0.01140  1.0000 0.172004952
C   C13       1.0  0.51790  0.03540  0.57080  1.0000 -0.1800619523
C   C14       1.0  0.48210  0.96460  0.07080  1.0000 -0.1800619523
C   C15       1.0  0.96460  0.48250  0.57080  1.0000 -0.1800619523
C   C16       1.0  0.51750  0.48210  0.57080  1.0000 -0.1800619523
C   C17       1.0  0.48250  0.51790  0.07080  1.0000 -0.1800619523
C   C18       1.0  0.03540  0.51750  0.07080  1.0000 -0.1800619523
C   C19       1.0  0.46360  0.07640  0.51080  1.0000 0.1750530143
C   C20       1.0  0.53640  0.92360  0.01080  1.0000 0.1750530143
C   C21       1.0  0.92360  0.38720  0.51080  1.0000 0.1750530143
C   C22       1.0  0.61280  0.53640  0.51080  1.0000 0.1750530143
C   C23       1.0  0.38720  0.46360  0.01080  1.0000 0.1750530143
C   C24       1.0  0.07640  0.61280  0.01080  1.0000 0.1750530143
C   C25       1.0  0.35700  0.03340  0.55810  1.0000 0.6032679816
C   C26       1.0  0.64300  0.96660  0.05810  1.0000 0.6032679816
C   C27       1.0  0.96660  0.32360  0.55810  1.0000 0.6032679816
C   C28       1.0  0.67640  0.64300  0.55810  1.0000 0.6032679816
C   C29       1.0  0.32360  0.35700  0.05810  1.0000 0.6032679816
C   C30       1.0  0.03340  0.67640  0.05810  1.0000 0.6032679816
C   C31       1.0  0.67630  0.03280  0.55760  1.0000 0.6032679816
C   C32       1.0  0.32370  0.96720  0.05760  1.0000 0.6032679816
C   C33       1.0  0.96720  0.64350  0.55760  1.0000 0.6032679816
C   C34       1.0  0.35650  0.32370  0.55760  1.0000 0.6032679816
C   C35       1.0  0.64350  0.67630  0.05760  1.0000 0.6032679816
C   C36       1.0  0.03280  0.35650  0.05760  1.0000 0.6032679816
N   N1        1.0  0.50120  0.15240  0.40140  1.0000 -0.362743349
N   N2        1.0  0.49880  0.84760  0.90140  1.0000 -0.362743349
N   N3        1.0  0.84760  0.34880  0.40140  1.0000 -0.362743349
N   N4        1.0  0.65120  0.49880  0.40140  1.0000 -0.362743349
N   N5        1.0  0.34880  0.50120  0.90140  1.0000 -0.362743349
N   N6        1.0  0.15240  0.65120  0.90140  1.0000 -0.362743349
N   N7        1.0  0.65130  0.15240  0.40170  1.0000 -0.362743349
N   N8        1.0  0.34870  0.84760  0.90170  1.0000 -0.362743349
N   N9        1.0  0.84760  0.49890  0.40170  1.0000 -0.362743349
N   N10       1.0  0.50110  0.34870  0.40170  1.0000 -0.362743349
N   N11       1.0  0.49890  0.65130  0.90170  1.0000 -0.362743349
N   N12       1.0  0.15240  0.50110  0.90170  1.0000 -0.362743349
N   N13       1.0  0.46570  0.23300  0.91350  1.0000 0.7129690726
N   N14       1.0  0.53430  0.76700  0.41350  1.0000 0.7129690726
N   N15       1.0  0.76700  0.23270  0.91350  1.0000 0.7129690726
N   N16       1.0  0.76730  0.53430  0.91350  1.0000 0.7163946469
N   N17       1.0  0.23270  0.46570  0.41350  1.0000 0.7129690726
N   N18       1.0  0.23300  0.76730  0.41350  1.0000 0.7129690726
O   O1        1.0  0.31327  0.07236  0.49250  1.0000 -0.5705036184
O   O2        1.0  0.68673  0.92764  0.99250  1.0000 -0.5705036184
O   O3        1.0  0.92764  0.24091  0.49250  1.0000 -0.5705036184
O   O4        1.0  0.75909  0.68673  0.49250  1.0000 -0.5705036184
O   O5        1.0  0.24091  0.31327  0.99250  1.0000 -0.5705036184
O   O6        1.0  0.07236  0.75909  0.99250  1.0000 -0.5705036184
O   O7        1.0  0.32137  0.96014  0.65560  1.0000 -0.6230949323
O   O8        1.0  0.67863  0.03986  0.15560  1.0000 -0.6230949323
O   O9        1.0  0.03986  0.36123  0.65560  1.0000 -0.6230949323
O   O10       1.0  0.63877  0.67863  0.65560  1.0000 -0.6230949323
O   O11       1.0  0.36123  0.32137  0.15560  1.0000 -0.6230949323
O   O12       1.0  0.96014  0.63877  0.15560  1.0000 -0.6230949323
O   O13       1.0  0.75941  0.07272  0.49230  1.0000 -0.5705036184
O   O14       1.0  0.24059  0.92728  0.99230  1.0000 -0.5705036184
O   O15       1.0  0.92728  0.68669  0.49230  1.0000 -0.5705036184
O   O16       1.0  0.31331  0.24059  0.49230  1.0000 -0.5705036184
O   O17       1.0  0.68669  0.75941  0.99230  1.0000 -0.5705036184
O   O18       1.0  0.07272  0.31331  0.99230  1.0000 -0.5705036184
O   O19       1.0  0.63888  0.96054  0.65540  1.0000 -0.6127107005
O   O20       1.0  0.36112  0.03946  0.15540  1.0000 -0.6127107005
O   O21       1.0  0.03946  0.67834  0.65540  1.0000 -0.6127107005
O   O22       1.0  0.32166  0.36112  0.65540  1.0000 -0.6127107005
O   O23       1.0  0.67834  0.63888  0.15540  1.0000 -0.6127107005
O   O24       1.0  0.96054  0.32166  0.15540  1.0000 -0.6127107005
O   O25       1.0  0.37450  0.18700  0.92360  1.0000 -0.4489455978
O   O26       1.0  0.62550  0.81300  0.42360  1.0000 -0.4489455978
O   O27       1.0  0.81300  0.18750  0.92360  1.0000 -0.4489455978
O   O28       1.0  0.81250  0.62550  0.92360  1.0000 -0.4489455978
O   O29       1.0  0.18750  0.37450  0.42360  1.0000 -0.4489455978
O   O30       1.0  0.18700  0.81250  0.42360  1.0000 -0.4489455978
O   O31       1.0  0.51105  0.25530  0.06180  1.0000 -0.5377018214
O   O32       1.0  0.48895  0.74470  0.56180  1.0000 -0.5377018214
O   O33       1.0  0.74470  0.25575  0.06180  1.0000 -0.5377018214
O   O34       1.0  0.74425  0.48895  0.06180  1.0000 -0.5377018214
O   O35       1.0  0.25575  0.51105  0.56180  1.0000 -0.5377018214
O   O36       1.0  0.25530  0.74425  0.56180  1.0000 -0.5377018214
O   O37       1.0  0.50830  0.25400  0.77410  1.0000 -0.3514755676
O   O38       1.0  0.49170  0.74600  0.27410  1.0000 -0.3514755676
O   O39       1.0  0.74600  0.25430  0.77410  1.0000 -0.3514755676
O   O40       1.0  0.74570  0.49170  0.77410  1.0000 -0.3514755676
O   O41       1.0  0.25430  0.50830  0.27410  1.0000 -0.3514755676
O   O42       1.0  0.25400  0.74570  0.27410  1.0000 -0.3514755676
