# DDEC6 charges by PACMAN v1.1 (https://github.com/mtap-research/PACMAN-charge/)
data_2015[Ag][ths]3[ASR]1
_chemical_formula_sum              "Ag4 H80 C60 N16"
_cell_length_a       21.7093
_cell_length_b       18.3811
_cell_length_c       13.0563
_cell_angle_alpha    85.5742
_cell_angle_beta     57.5829
_cell_angle_gamma    36.8429

_symmetry_space_group_name_H-M    "P 1"
_symmetry_Int_Tables_number       1

loop_
  _symmetry_equiv_pos_as_xyz
  'x, y, z'

loop_
  _atom_site_type_symbol
  _atom_site_label
  _atom_site_symmetry_multiplicity
  _atom_site_fract_x
  _atom_site_fract_y
  _atom_site_fract_z
  _atom_site_occupancy
  _atom_site_charge
Ag  Ag1       1.0  0.91655  0.91655  0.08345  1.0000 0.2287085162
Ag  Ag2       1.0  0.08345  0.08345  0.91655  1.0000 0.2287085162
Ag  Ag3       1.0  0.33345  0.33345  0.16655  1.0000 0.2287085162
Ag  Ag4       1.0  0.16655  0.16655  0.33345  1.0000 0.2287085162
H   H1        1.0  0.24060  0.33800  0.42460  1.0000 0.2287085162
H   H2        1.0  0.33800  0.24060  0.99680  1.0000 0.2287085162
H   H3        1.0  0.99680  0.42460  0.33800  1.0000 0.2287085162
H   H4        1.0  0.42460  0.99680  0.24060  1.0000 0.2287085162
H   H5        1.0  0.00940  0.91200  0.82540  1.0000 0.2287085162
H   H6        1.0  0.91200  0.00940  0.25320  1.0000 0.2287085162
H   H7        1.0  0.25320  0.82540  0.91200  1.0000 0.2287085162
H   H8        1.0  0.82540  0.25320  0.00940  1.0000 0.2287085162
H   H9        1.0  0.60970  0.24370  0.18550  1.0000 0.0895885745
H   H10       1.0  0.24370  0.60970  0.96110  1.0000 0.0895885745
H   H11       1.0  0.96110  0.18550  0.24370  1.0000 0.0895885745
H   H12       1.0  0.18550  0.96110  0.60970  1.0000 0.0895885745
H   H13       1.0  0.64030  0.00630  0.06450  1.0000 0.0895885745
H   H14       1.0  0.00630  0.64030  0.28890  1.0000 0.0895885745
H   H15       1.0  0.28890  0.06450  0.00630  1.0000 0.0895885745
H   H16       1.0  0.06450  0.28890  0.64030  1.0000 0.0895885745
H   H17       1.0  0.34890  0.44890  0.33070  1.0000 0.1239402871
H   H18       1.0  0.44890  0.34890  0.87150  1.0000 0.1239402871
H   H19       1.0  0.87150  0.33070  0.44890  1.0000 0.1239402871
H   H20       1.0  0.33070  0.87150  0.34890  1.0000 0.1239402871
H   H21       1.0  0.90110  0.80110  0.91930  1.0000 0.1239402871
H   H22       1.0  0.80110  0.90110  0.37850  1.0000 0.1239402871
H   H23       1.0  0.37850  0.91930  0.80110  1.0000 0.1239402871
H   H24       1.0  0.91930  0.37850  0.90110  1.0000 0.1239402871
H   H25       1.0  0.34640  0.27660  0.53120  1.0000 0.1251999345
H   H26       1.0  0.27660  0.34640  0.84580  1.0000 0.1251999345
H   H27       1.0  0.84580  0.53120  0.27660  1.0000 0.1251999345
H   H28       1.0  0.53120  0.84580  0.34640  1.0000 0.1251999345
H   H29       1.0  0.90360  0.97340  0.71880  1.0000 0.1251999345
H   H30       1.0  0.97340  0.90360  0.40420  1.0000 0.1251999345
H   H31       1.0  0.40420  0.71880  0.97340  1.0000 0.1251999345
H   H32       1.0  0.71880  0.40420  0.90360  1.0000 0.1251999345
H   H33       1.0  0.60030  0.08230  0.38910  1.0000 0.0895885745
H   H34       1.0  0.08230  0.60030  0.92830  1.0000 0.0895885745
H   H35       1.0  0.92830  0.38910  0.08230  1.0000 0.0895885745
H   H36       1.0  0.38910  0.92830  0.60030  1.0000 0.0895885745
H   H37       1.0  0.64970  0.16770  0.86090  1.0000 0.0895885745
H   H38       1.0  0.16770  0.64970  0.32170  1.0000 0.0895885745
H   H39       1.0  0.32170  0.86090  0.16770  1.0000 0.0895885745
H   H40       1.0  0.86090  0.32170  0.64970  1.0000 0.0895885745
H   H41       1.0  0.08220  0.55300  0.64900  1.0000 0.1004042939
H   H42       1.0  0.55300  0.08220  0.71580  1.0000 0.1004042939
H   H43       1.0  0.71580  0.64900  0.55300  1.0000 0.1004042939
H   H44       1.0  0.64900  0.71580  0.08220  1.0000 0.1004042939
H   H45       1.0  0.16780  0.69700  0.60100  1.0000 0.1004042939
H   H46       1.0  0.69700  0.16780  0.53420  1.0000 0.1004042939
H   H47       1.0  0.53420  0.60100  0.69700  1.0000 0.1004042939
H   H48       1.0  0.60100  0.53420  0.16780  1.0000 0.1004042939
H   H49       1.0  0.09340  0.60400  0.54940  1.0000 0.1004042939
H   H50       1.0  0.60400  0.09340  0.75320  1.0000 0.1004042939
H   H51       1.0  0.75320  0.54940  0.60400  1.0000 0.1004042939
H   H52       1.0  0.54940  0.75320  0.09340  1.0000 0.1004042939
H   H53       1.0  0.15660  0.64600  0.70060  1.0000 0.1004042939
H   H54       1.0  0.64600  0.15660  0.49680  1.0000 0.1004042939
H   H55       1.0  0.49680  0.70060  0.64600  1.0000 0.1004042939
H   H56       1.0  0.70060  0.49680  0.15660  1.0000 0.1004042939
H   H57       1.0  0.94650  0.64250  0.56170  1.0000 0.0895885745
H   H58       1.0  0.64250  0.94650  0.84930  1.0000 0.0895885745
H   H59       1.0  0.84930  0.56170  0.64250  1.0000 0.0895885745
H   H60       1.0  0.56170  0.84930  0.94650  1.0000 0.0895885745
H   H61       1.0  0.30350  0.60750  0.68830  1.0000 0.0895885745
H   H62       1.0  0.60750  0.30350  0.40070  1.0000 0.0895885745
H   H63       1.0  0.40070  0.68830  0.60750  1.0000 0.0895885745
H   H64       1.0  0.68830  0.40070  0.30350  1.0000 0.0895885745
H   H65       1.0  0.95620  0.57940  0.65280  1.0000 0.0820755493
H   H66       1.0  0.57940  0.95620  0.81160  1.0000 0.0820755493
H   H67       1.0  0.81160  0.65280  0.57940  1.0000 0.0820755493
H   H68       1.0  0.65280  0.81160  0.95620  1.0000 0.0820755493
H   H69       1.0  0.29380  0.67060  0.59720  1.0000 0.0820755493
H   H70       1.0  0.67060  0.29380  0.43840  1.0000 0.0820755493
H   H71       1.0  0.43840  0.59720  0.67060  1.0000 0.0820755493
H   H72       1.0  0.59720  0.43840  0.29380  1.0000 0.0820755493
H   H73       1.0  0.10530  0.41970  0.34250  1.0000 0.1004042939
H   H74       1.0  0.41970  0.10530  0.13250  1.0000 0.1004042939
H   H75       1.0  0.13250  0.34250  0.41970  1.0000 0.1004042939
H   H76       1.0  0.34250  0.13250  0.10530  1.0000 0.1004042939
H   H77       1.0  0.14470  0.83030  0.90750  1.0000 0.1004042939
H   H78       1.0  0.83030  0.14470  0.11750  1.0000 0.1004042939
H   H79       1.0  0.11750  0.90750  0.83030  1.0000 0.1004042939
H   H80       1.0  0.90750  0.11750  0.14470  1.0000 0.1004042939
C   C1        1.0  0.55680  0.24940  0.25560  1.0000 0.0351460967
C   C2        1.0  0.24940  0.55680  0.93820  1.0000 0.0333297122
C   C3        1.0  0.93820  0.25560  0.24940  1.0000 0.0351460967
C   C4        1.0  0.25560  0.93820  0.55680  1.0000 0.0333297122
C   C5        1.0  0.69320  0.00060  0.99440  1.0000 0.0351460967
C   C6        1.0  0.00060  0.69320  0.31180  1.0000 0.0333297122
C   C7        1.0  0.31180  0.99440  0.00060  1.0000 0.0333297122
C   C8        1.0  0.99440  0.31180  0.69320  1.0000 0.0351460967
C   C9        1.0  0.39950  0.37330  0.34250  1.0000 -0.220665481
C   C10       1.0  0.37330  0.39950  0.88470  1.0000 -0.220665481
C   C11       1.0  0.88470  0.34250  0.37330  1.0000 -0.220665481
C   C12       1.0  0.34250  0.88470  0.39950  1.0000 -0.220665481
C   C13       1.0  0.85050  0.87670  0.90750  1.0000 -0.220665481
C   C14       1.0  0.87670  0.85050  0.36530  1.0000 -0.220665481
C   C15       1.0  0.36530  0.90750  0.87670  1.0000 -0.220665481
C   C16       1.0  0.90750  0.36530  0.85050  1.0000 -0.220665481
C   C17       1.0  0.31960  0.38360  0.44520  1.0000 0.1143745836
C   C18       1.0  0.38360  0.31960  0.85160  1.0000 0.1143745836
C   C19       1.0  0.85160  0.44520  0.38360  1.0000 0.1143745836
C   C20       1.0  0.44520  0.85160  0.31960  1.0000 0.1143745836
C   C21       1.0  0.93040  0.86640  0.80480  1.0000 0.1143745836
C   C22       1.0  0.86640  0.93040  0.39840  1.0000 0.1143745836
C   C23       1.0  0.39840  0.80480  0.86640  1.0000 0.1143745836
C   C24       1.0  0.80480  0.39840  0.93040  1.0000 0.1143745836
C   C25       1.0  0.39780  0.27240  0.46100  1.0000 -0.220665481
C   C26       1.0  0.27240  0.39780  0.86880  1.0000 -0.220665481
C   C27       1.0  0.86880  0.46100  0.27240  1.0000 -0.220665481
C   C28       1.0  0.46100  0.86880  0.39780  1.0000 -0.220665481
C   C29       1.0  0.85220  0.97760  0.78900  1.0000 -0.220665481
C   C30       1.0  0.97760  0.85220  0.38120  1.0000 -0.220665481
C   C31       1.0  0.38120  0.78900  0.97760  1.0000 -0.220665481
C   C32       1.0  0.78900  0.38120  0.85220  1.0000 -0.220665481
C   C33       1.0  0.55170  0.15470  0.37370  1.0000 0.0333297122
C   C34       1.0  0.15470  0.55170  0.91990  1.0000 0.0333297122
C   C35       1.0  0.91990  0.37370  0.15470  1.0000 0.0333297122
C   C36       1.0  0.37370  0.91990  0.55170  1.0000 0.0333297122
C   C37       1.0  0.69830  0.09530  0.87630  1.0000 0.0333297122
C   C38       1.0  0.09530  0.69830  0.33010  1.0000 0.0333297122
C   C39       1.0  0.33010  0.87630  0.09530  1.0000 0.0333297122
C   C40       1.0  0.87630  0.33010  0.69830  1.0000 0.0333297122
C   C41       1.0  0.15200  0.50980  0.53720  1.0000 -0.1826101709
C   C42       1.0  0.50980  0.15200  0.80100  1.0000 -0.1826101709
C   C43       1.0  0.80100  0.53720  0.50980  1.0000 -0.1826101709
C   C44       1.0  0.53720  0.80100  0.15200  1.0000 -0.1826101709
C   C45       1.0  0.09800  0.74020  0.71280  1.0000 -0.1826101709
C   C46       1.0  0.74020  0.09800  0.44900  1.0000 -0.1826101709
C   C47       1.0  0.44900  0.71280  0.74020  1.0000 -0.1826101709
C   C48       1.0  0.71280  0.44900  0.09800  1.0000 -0.1826101709
C   C49       1.0  0.01610  0.54330  0.54370  1.0000 -0.0926637175
C   C50       1.0  0.54330  0.01610  0.89690  1.0000 -0.0926637175
C   C51       1.0  0.89690  0.54370  0.54330  1.0000 -0.0926637175
C   C52       1.0  0.54370  0.89690  0.01610  1.0000 -0.0926637175
C   C53       1.0  0.23390  0.70670  0.70630  1.0000 -0.0926637175
C   C54       1.0  0.70670  0.23390  0.35310  1.0000 -0.0926637175
C   C55       1.0  0.35310  0.70630  0.70670  1.0000 -0.0926637175
C   C56       1.0  0.70630  0.35310  0.23390  1.0000 -0.0926637175
C   C57       1.0  0.05230  0.44770  0.44770  1.0000 -0.2859818582
C   C58       1.0  0.44770  0.05230  0.05230  1.0000 -0.2859818582
C   C59       1.0  0.19770  0.80230  0.80230  1.0000 -0.2859818582
C   C60       1.0  0.80230  0.19770  0.19770  1.0000 -0.2859818582
N   N1        1.0  0.63660  0.13640  0.26840  1.0000 -0.2463327106
N   N2        1.0  0.13640  0.63660  0.95860  1.0000 -0.2463327106
N   N3        1.0  0.95860  0.26840  0.13640  1.0000 -0.2463327106
N   N4        1.0  0.26840  0.95860  0.63660  1.0000 -0.2463327106
N   N5        1.0  0.61340  0.11360  0.98160  1.0000 -0.2463327106
N   N6        1.0  0.11360  0.61340  0.29140  1.0000 -0.2463327106
N   N7        1.0  0.29140  0.98160  0.11360  1.0000 -0.2463327106
N   N8        1.0  0.98160  0.29140  0.61340  1.0000 -0.2463327106
N   N9        1.0  0.18003  0.42763  0.44097  1.0000 -0.3202708606
N   N10       1.0  0.42763  0.18003  0.95137  1.0000 -0.3202708606
N   N11       1.0  0.95137  0.44097  0.42763  1.0000 -0.3202708606
N   N12       1.0  0.44097  0.95137  0.18003  1.0000 -0.3202708606
N   N13       1.0  0.06997  0.82237  0.80903  1.0000 -0.3202708606
N   N14       1.0  0.82237  0.06997  0.29863  1.0000 -0.3202708606
N   N15       1.0  0.29863  0.80903  0.82237  1.0000 -0.3202708606
N   N16       1.0  0.80903  0.29863  0.06997  1.0000 -0.3202708606
