# DDEC6 charges by PACMAN v1.1 (https://github.com/mtap-research/PACMAN-charge/)
data_2015[Zn][idp]3[ASR]1
_chemical_formula_sum              "Zn18 H36 C108 O76"
_cell_length_a       20.3542
_cell_length_b       20.3542
_cell_length_c       20.3542
_cell_angle_alpha    109.471
_cell_angle_beta     109.471
_cell_angle_gamma    109.471

_symmetry_space_group_name_H-M    "P 1"
_symmetry_Int_Tables_number       1

loop_
  _symmetry_equiv_pos_as_xyz
  'x, y, z'

loop_
  _atom_site_type_symbol
  _atom_site_label
  _atom_site_symmetry_multiplicity
  _atom_site_fract_x
  _atom_site_fract_y
  _atom_site_fract_z
  _atom_site_occupancy
  _atom_site_charge
Zn  Zn1       1.0  0.93640  0.43640  0.50000  1.0000 0.9394822623
Zn  Zn2       1.0  0.06360  0.56360  0.50000  1.0000 0.9394822623
Zn  Zn3       1.0  0.50000  0.93640  0.43640  1.0000 0.9394822623
Zn  Zn4       1.0  0.50000  0.06360  0.56360  1.0000 0.9394822623
Zn  Zn5       1.0  0.43640  0.50000  0.93640  1.0000 0.9394822623
Zn  Zn6       1.0  0.56360  0.50000  0.06360  1.0000 0.9394822623
Zn  Zn7       1.0  0.52711  0.58315  0.46922  1.0000 0.9914006497
Zn  Zn8       1.0  0.11393  0.05789  0.53078  1.0000 0.9914006497
Zn  Zn9       1.0  0.47289  0.94211  0.05604  1.0000 0.9914006497
Zn  Zn10      1.0  0.88607  0.41685  0.94396  1.0000 0.9914006497
Zn  Zn11      1.0  0.46922  0.52711  0.58315  1.0000 0.9914006497
Zn  Zn12      1.0  0.94396  0.88607  0.41685  1.0000 0.9914006497
Zn  Zn13      1.0  0.53078  0.11393  0.05789  1.0000 0.9914006497
Zn  Zn14      1.0  0.05604  0.47289  0.94211  1.0000 0.9914006497
Zn  Zn15      1.0  0.58315  0.46922  0.52711  1.0000 0.9914006497
Zn  Zn16      1.0  0.41685  0.94396  0.88607  1.0000 0.9914006497
Zn  Zn17      1.0  0.05789  0.53078  0.11393  1.0000 0.9914006497
Zn  Zn18      1.0  0.94211  0.05604  0.47289  1.0000 0.9914006497
H   H1        1.0  0.93650  0.70360  0.47790  1.0000 0.1320518298
H   H2        1.0  0.22570  0.45860  0.52210  1.0000 0.1320518298
H   H3        1.0  0.06350  0.54140  0.76710  1.0000 0.1320518298
H   H4        1.0  0.77430  0.29640  0.23290  1.0000 0.1320518298
H   H5        1.0  0.47790  0.93650  0.70360  1.0000 0.1320518298
H   H6        1.0  0.23290  0.77430  0.29640  1.0000 0.1320518298
H   H7        1.0  0.52210  0.22570  0.45860  1.0000 0.1320518298
H   H8        1.0  0.76710  0.06350  0.54140  1.0000 0.1320518298
H   H9        1.0  0.70360  0.47790  0.93650  1.0000 0.1320518298
H   H10       1.0  0.29640  0.23290  0.77430  1.0000 0.1320518298
H   H11       1.0  0.45860  0.52210  0.22570  1.0000 0.1320518298
H   H12       1.0  0.54140  0.76710  0.06350  1.0000 0.1320518298
H   H13       1.0  0.75450  0.72430  0.49800  1.0000 0.1320518298
H   H14       1.0  0.22630  0.25650  0.50200  1.0000 0.1320518298
H   H15       1.0  0.24550  0.74350  0.96980  1.0000 0.1320518298
H   H16       1.0  0.77370  0.27570  0.03020  1.0000 0.1320518298
H   H17       1.0  0.49800  0.75450  0.72430  1.0000 0.1320518298
H   H18       1.0  0.03020  0.77370  0.27570  1.0000 0.1320518298
H   H19       1.0  0.50200  0.22630  0.25650  1.0000 0.1320518298
H   H20       1.0  0.96980  0.24550  0.74350  1.0000 0.1320518298
H   H21       1.0  0.72430  0.49800  0.75450  1.0000 0.1320518298
H   H22       1.0  0.27570  0.03020  0.77370  1.0000 0.1320518298
H   H23       1.0  0.25650  0.50200  0.22630  1.0000 0.1320518298
H   H24       1.0  0.74350  0.96980  0.24550  1.0000 0.1320518298
H   H25       1.0  0.79060  0.54830  0.51350  1.0000 0.13781864
H   H26       1.0  0.03480  0.27710  0.48650  1.0000 0.13781864
H   H27       1.0  0.20940  0.72290  0.75770  1.0000 0.13781864
H   H28       1.0  0.96520  0.45170  0.24230  1.0000 0.13781864
H   H29       1.0  0.51350  0.79060  0.54830  1.0000 0.13781864
H   H30       1.0  0.24230  0.96520  0.45170  1.0000 0.13781864
H   H31       1.0  0.48650  0.03480  0.27710  1.0000 0.13781864
H   H32       1.0  0.75770  0.20940  0.72290  1.0000 0.13781864
H   H33       1.0  0.54830  0.51350  0.79060  1.0000 0.13781864
H   H34       1.0  0.45170  0.24230  0.96520  1.0000 0.13781864
H   H35       1.0  0.27710  0.48650  0.03480  1.0000 0.13781864
H   H36       1.0  0.72290  0.75770  0.20940  1.0000 0.13781864
C   C1        1.0  0.87350  0.62000  0.49830  1.0000 -0.0100264153
C   C2        1.0  0.12170  0.37520  0.50170  1.0000 -0.0100264153
C   C3        1.0  0.12650  0.62480  0.74650  1.0000 -0.0100264153
C   C4        1.0  0.87830  0.38000  0.25350  1.0000 -0.0100264153
C   C5        1.0  0.49830  0.87350  0.62000  1.0000 -0.0100264153
C   C6        1.0  0.25350  0.87830  0.38000  1.0000 -0.0100264153
C   C7        1.0  0.50170  0.12170  0.37520  1.0000 -0.0100264153
C   C8        1.0  0.74650  0.12650  0.62480  1.0000 -0.0100264153
C   C9        1.0  0.62000  0.49830  0.87350  1.0000 -0.0100264153
C   C10       1.0  0.38000  0.25350  0.87830  1.0000 -0.0100264153
C   C11       1.0  0.37520  0.50170  0.12170  1.0000 -0.0100264153
C   C12       1.0  0.62480  0.74650  0.12650  1.0000 -0.0100264153
C   C13       1.0  0.89230  0.68540  0.48490  1.0000 -0.0818722453
C   C14       1.0  0.20050  0.40740  0.51510  1.0000 -0.0818722453
C   C15       1.0  0.10770  0.59260  0.79310  1.0000 -0.0818722453
C   C16       1.0  0.79950  0.31460  0.20690  1.0000 -0.0818722453
C   C17       1.0  0.48490  0.89230  0.68540  1.0000 -0.0818722453
C   C18       1.0  0.20690  0.79950  0.31460  1.0000 -0.0818722453
C   C19       1.0  0.51510  0.20050  0.40740  1.0000 -0.0818722453
C   C20       1.0  0.79310  0.10770  0.59260  1.0000 -0.0818722453
C   C21       1.0  0.68540  0.48490  0.89230  1.0000 -0.0818722453
C   C22       1.0  0.31460  0.20690  0.79950  1.0000 -0.0818722453
C   C23       1.0  0.40740  0.51510  0.20050  1.0000 -0.0818722453
C   C24       1.0  0.59260  0.79310  0.10770  1.0000 -0.0818722453
C   C25       1.0  0.84840  0.72270  0.48170  1.0000 -0.0268081687
C   C26       1.0  0.24100  0.36670  0.51830  1.0000 -0.0268081687
C   C27       1.0  0.15160  0.63330  0.87430  1.0000 -0.0268081687
C   C28       1.0  0.75900  0.27730  0.12570  1.0000 -0.0268081687
C   C29       1.0  0.48170  0.84840  0.72270  1.0000 -0.0268081687
C   C30       1.0  0.12570  0.75900  0.27730  1.0000 -0.0268081687
C   C31       1.0  0.51830  0.24100  0.36670  1.0000 -0.0268081687
C   C32       1.0  0.87430  0.15160  0.63330  1.0000 -0.0268081687
C   C33       1.0  0.72270  0.48170  0.84840  1.0000 -0.0268081687
C   C34       1.0  0.27730  0.12570  0.75900  1.0000 -0.0268081687
C   C35       1.0  0.36670  0.51830  0.24100  1.0000 -0.0268081687
C   C36       1.0  0.63330  0.87430  0.15160  1.0000 -0.0268081687
C   C37       1.0  0.78310  0.69690  0.49580  1.0000 -0.0866876394
C   C38       1.0  0.20110  0.28730  0.50420  1.0000 -0.0866876394
C   C39       1.0  0.21690  0.71270  0.91380  1.0000 -0.0866876394
C   C40       1.0  0.79890  0.30310  0.08620  1.0000 -0.0866876394
C   C41       1.0  0.49580  0.78310  0.69690  1.0000 -0.0866876394
C   C42       1.0  0.08620  0.79890  0.30310  1.0000 -0.0866876394
C   C43       1.0  0.50420  0.20110  0.28730  1.0000 -0.0866876394
C   C44       1.0  0.91380  0.21690  0.71270  1.0000 -0.0866876394
C   C45       1.0  0.69690  0.49580  0.78310  1.0000 -0.0866876394
C   C46       1.0  0.30310  0.08620  0.79890  1.0000 -0.0866876394
C   C47       1.0  0.28730  0.50420  0.20110  1.0000 -0.0866876394
C   C48       1.0  0.71270  0.91380  0.21690  1.0000 -0.0866876394
C   C49       1.0  0.76300  0.63230  0.50610  1.0000 -0.0100264153
C   C50       1.0  0.12620  0.25690  0.49390  1.0000 -0.0100264153
C   C51       1.0  0.23700  0.74310  0.86930  1.0000 -0.0100264153
C   C52       1.0  0.87380  0.36770  0.13070  1.0000 -0.0100264153
C   C53       1.0  0.50610  0.76300  0.63230  1.0000 -0.0100264153
C   C54       1.0  0.13070  0.87380  0.36770  1.0000 -0.0100264153
C   C55       1.0  0.49390  0.12620  0.25690  1.0000 -0.0100264153
C   C56       1.0  0.86930  0.23700  0.74310  1.0000 -0.0100264153
C   C57       1.0  0.63230  0.50610  0.76300  1.0000 -0.0100264153
C   C58       1.0  0.36770  0.13070  0.87380  1.0000 -0.0100264153
C   C59       1.0  0.25690  0.49390  0.12620  1.0000 -0.0100264153
C   C60       1.0  0.74310  0.86930  0.23700  1.0000 -0.0100264153
C   C61       1.0  0.80630  0.59310  0.50700  1.0000 -0.0866876394
C   C62       1.0  0.08610  0.29930  0.49300  1.0000 -0.0866876394
C   C63       1.0  0.19370  0.70070  0.78680  1.0000 -0.0866876394
C   C64       1.0  0.91390  0.40690  0.21320  1.0000 -0.0866876394
C   C65       1.0  0.50700  0.80630  0.59310  1.0000 -0.0866876394
C   C66       1.0  0.21320  0.91390  0.40690  1.0000 -0.0866876394
C   C67       1.0  0.49300  0.08610  0.29930  1.0000 -0.0866876394
C   C68       1.0  0.78680  0.19370  0.70070  1.0000 -0.0866876394
C   C69       1.0  0.59310  0.50700  0.80630  1.0000 -0.0866876394
C   C70       1.0  0.40690  0.21320  0.91390  1.0000 -0.0866876394
C   C71       1.0  0.29930  0.49300  0.08610  1.0000 -0.0866876394
C   C72       1.0  0.70070  0.78680  0.19370  1.0000 -0.0866876394
C   C73       1.0  0.92400  0.57810  0.50070  1.0000 0.5936042473
C   C74       1.0  0.07740  0.42330  0.49930  1.0000 0.5936042473
C   C75       1.0  0.07600  0.57670  0.65410  1.0000 0.5936042473
C   C76       1.0  0.92260  0.42190  0.34590  1.0000 0.5936042473
C   C77       1.0  0.50070  0.92400  0.57810  1.0000 0.5936042473
C   C78       1.0  0.34590  0.92260  0.42190  1.0000 0.5936042473
C   C79       1.0  0.49930  0.07740  0.42330  1.0000 0.5936042473
C   C80       1.0  0.65410  0.07600  0.57670  1.0000 0.5936042473
C   C81       1.0  0.57810  0.50070  0.92400  1.0000 0.5936042473
C   C82       1.0  0.42190  0.34590  0.92260  1.0000 0.5936042473
C   C83       1.0  0.42330  0.49930  0.07740  1.0000 0.5936042473
C   C84       1.0  0.57670  0.65410  0.07600  1.0000 0.5936042473
C   C85       1.0  0.68640  0.59580  0.51200  1.0000 0.6071711139
C   C86       1.0  0.08380  0.17440  0.48800  1.0000 0.6071711139
C   C87       1.0  0.31360  0.82560  0.90940  1.0000 0.6071711139
C   C88       1.0  0.91620  0.40420  0.09060  1.0000 0.6071711139
C   C89       1.0  0.51200  0.68640  0.59580  1.0000 0.6071711139
C   C90       1.0  0.09060  0.91620  0.40420  1.0000 0.6071711139
C   C91       1.0  0.48800  0.08380  0.17440  1.0000 0.6071711139
C   C92       1.0  0.90940  0.31360  0.82560  1.0000 0.6071711139
C   C93       1.0  0.59580  0.51200  0.68640  1.0000 0.6071711139
C   C94       1.0  0.40420  0.09060  0.91620  1.0000 0.6071711139
C   C95       1.0  0.17440  0.48800  0.08380  1.0000 0.6071711139
C   C96       1.0  0.82560  0.90940  0.31360  1.0000 0.6071711139
C   C97       1.0  0.87140  0.79140  0.46760  1.0000 0.5522689378
C   C98       1.0  0.32380  0.40380  0.53240  1.0000 0.5522689378
C   C99       1.0  0.12860  0.59620  0.92000  1.0000 0.5522689378
C   C100      1.0  0.67620  0.20860  0.08000  1.0000 0.5522689378
C   C101      1.0  0.46760  0.87140  0.79140  1.0000 0.5522689378
C   C102      1.0  0.08000  0.67620  0.20860  1.0000 0.5522689378
C   C103      1.0  0.53240  0.32380  0.40380  1.0000 0.5522689378
C   C104      1.0  0.92000  0.12860  0.59620  1.0000 0.5522689378
C   C105      1.0  0.79140  0.46760  0.87140  1.0000 0.5522689378
C   C106      1.0  0.20860  0.08000  0.67620  1.0000 0.5522689378
C   C107      1.0  0.40380  0.53240  0.32380  1.0000 0.5522689378
C   C108      1.0  0.59620  0.92000  0.12860  1.0000 0.5522689378
O   O1        1.0  0.89660  0.51620  0.50780  1.0000 -0.5377775674
O   O2        1.0  0.00840  0.38880  0.49220  1.0000 -0.5377775674
O   O3        1.0  0.10340  0.61120  0.61960  1.0000 -0.5377775674
O   O4        1.0  0.99160  0.48380  0.38040  1.0000 -0.5377775674
O   O5        1.0  0.50780  0.89660  0.51620  1.0000 -0.5377775674
O   O6        1.0  0.38040  0.99160  0.48380  1.0000 -0.5377775674
O   O7        1.0  0.49220  0.00840  0.38880  1.0000 -0.5377775674
O   O8        1.0  0.61960  0.10340  0.61120  1.0000 -0.5377775674
O   O9        1.0  0.51620  0.50780  0.89660  1.0000 -0.5377775674
O   O10       1.0  0.48380  0.38040  0.99160  1.0000 -0.5377775674
O   O11       1.0  0.38880  0.49220  0.00840  1.0000 -0.5377775674
O   O12       1.0  0.61120  0.61960  0.10340  1.0000 -0.5377775674
O   O13       1.0  0.98270  0.60500  0.49230  1.0000 -0.5017693609
O   O14       1.0  0.11270  0.49040  0.50770  1.0000 -0.5017693609
O   O15       1.0  0.01730  0.50960  0.62230  1.0000 -0.5017693609
O   O16       1.0  0.88730  0.39500  0.37770  1.0000 -0.5017693609
O   O17       1.0  0.49230  0.98270  0.60500  1.0000 -0.5017693609
O   O18       1.0  0.37770  0.88730  0.39500  1.0000 -0.5017693609
O   O19       1.0  0.50770  0.11270  0.49040  1.0000 -0.5017693609
O   O20       1.0  0.62230  0.01730  0.50960  1.0000 -0.5017693609
O   O21       1.0  0.60500  0.49230  0.98270  1.0000 -0.5017693609
O   O22       1.0  0.39500  0.37770  0.88730  1.0000 -0.5017693609
O   O23       1.0  0.49040  0.50770  0.11270  1.0000 -0.5017693609
O   O24       1.0  0.50960  0.62230  0.01730  1.0000 -0.5017693609
O   O25       1.0  0.64250  0.62660  0.50110  1.0000 -0.5017693609
O   O26       1.0  0.12550  0.14140  0.49890  1.0000 -0.5017693609
O   O27       1.0  0.35750  0.85860  0.98410  1.0000 -0.5062071434
O   O28       1.0  0.87450  0.37340  0.01590  1.0000 -0.5062071434
O   O29       1.0  0.50110  0.64250  0.62660  1.0000 -0.5017693609
O   O30       1.0  0.01590  0.87450  0.37340  1.0000 -0.5062071434
O   O31       1.0  0.49890  0.12550  0.14140  1.0000 -0.5017693609
O   O32       1.0  0.98410  0.35750  0.85860  1.0000 -0.5062071434
O   O33       1.0  0.62660  0.50110  0.64250  1.0000 -0.5062071434
O   O34       1.0  0.37340  0.01590  0.87450  1.0000 -0.5062071434
O   O35       1.0  0.14140  0.49890  0.12550  1.0000 -0.5017693609
O   O36       1.0  0.85860  0.98410  0.35750  1.0000 -0.5062071434
O   O37       1.0  0.67490  0.54180  0.52890  1.0000 -0.5017693609
O   O38       1.0  0.01290  0.14600  0.47110  1.0000 -0.5017693609
O   O39       1.0  0.32510  0.85400  0.86690  1.0000 -0.5017693609
O   O40       1.0  0.98710  0.45820  0.13310  1.0000 -0.5017693609
O   O41       1.0  0.52890  0.67490  0.54180  1.0000 -0.5017693609
O   O42       1.0  0.13310  0.98710  0.45820  1.0000 -0.5017693609
O   O43       1.0  0.47110  0.01290  0.14600  1.0000 -0.5017693609
O   O44       1.0  0.86690  0.32510  0.85400  1.0000 -0.5017693609
O   O45       1.0  0.54180  0.52890  0.67490  1.0000 -0.5017693609
O   O46       1.0  0.45820  0.13310  0.98710  1.0000 -0.5017693609
O   O47       1.0  0.14600  0.47110  0.01290  1.0000 -0.5017693609
O   O48       1.0  0.85400  0.86690  0.32510  1.0000 -0.5017693609
O   O49       1.0  0.93020  0.81130  0.45490  1.0000 -0.4896093999
O   O50       1.0  0.35640  0.47530  0.54510  1.0000 -0.4896093999
O   O51       1.0  0.06980  0.52470  0.88110  1.0000 -0.4896093999
O   O52       1.0  0.64360  0.18870  0.11890  1.0000 -0.4896093999
O   O53       1.0  0.45490  0.93020  0.81130  1.0000 -0.4896093999
O   O54       1.0  0.11890  0.64360  0.18870  1.0000 -0.4896093999
O   O55       1.0  0.54510  0.35640  0.47530  1.0000 -0.4896093999
O   O56       1.0  0.88110  0.06980  0.52470  1.0000 -0.4896093999
O   O57       1.0  0.81130  0.45490  0.93020  1.0000 -0.4896093999
O   O58       1.0  0.18870  0.11890  0.64360  1.0000 -0.4896093999
O   O59       1.0  0.47530  0.54510  0.35640  1.0000 -0.4896093999
O   O60       1.0  0.52470  0.88110  0.06980  1.0000 -0.4896093999
O   O61       1.0  0.83160  0.82750  0.46290  1.0000 -0.4604650482
O   O62       1.0  0.36460  0.36870  0.53710  1.0000 -0.4604650482
O   O63       1.0  0.16840  0.63130  0.99590  1.0000 -0.4604650482
O   O64       1.0  0.63540  0.17250  0.00410  1.0000 -0.4604650482
O   O65       1.0  0.46290  0.83160  0.82750  1.0000 -0.4604650482
O   O66       1.0  0.00410  0.63540  0.17250  1.0000 -0.4604650482
O   O67       1.0  0.53710  0.36460  0.36870  1.0000 -0.4604650482
O   O68       1.0  0.99590  0.16840  0.63130  1.0000 -0.4604650482
O   O69       1.0  0.82750  0.46290  0.83160  1.0000 -0.4604650482
O   O70       1.0  0.17250  0.00410  0.63540  1.0000 -0.4604650482
O   O71       1.0  0.36870  0.53710  0.36460  1.0000 -0.4604650482
O   O72       1.0  0.63130  0.99590  0.16840  1.0000 -0.4604650482
O   O73       1.0  0.49600  0.49600  0.49600  1.0000 -0.9545463417
O   O74       1.0  0.00000  0.00000  0.50400  1.0000 -0.9545463417
O   O75       1.0  0.50400  0.00000  0.00000  1.0000 -0.9545463417
O   O76       1.0  0.00000  0.50400  0.00000  1.0000 -0.9553735946
