# DDEC6 charges by PACMAN v1.1 (https://github.com/mtap-research/PACMAN-charge/)
data_2015[Cd][nan]3[ASR]14
_chemical_formula_sum              "Cd8 H24 C68 O40"
_cell_length_a       10.2216
_cell_length_b       10.2216
_cell_length_c       21.1602
_cell_angle_alpha    77.9212
_cell_angle_beta     102.079
_cell_angle_gamma    87.3148

_symmetry_space_group_name_H-M    "P 1"
_symmetry_Int_Tables_number       1

loop_
  _symmetry_equiv_pos_as_xyz
  'x, y, z'

loop_
  _atom_site_type_symbol
  _atom_site_label
  _atom_site_symmetry_multiplicity
  _atom_site_fract_x
  _atom_site_fract_y
  _atom_site_fract_z
  _atom_site_occupancy
  _atom_site_charge
Cd  Cd1       1.0  0.51559  0.35949  0.68296  1.0000 1.0322585722
Cd  Cd2       1.0  0.35949  0.51559  0.81704  1.0000 1.0322585722
Cd  Cd3       1.0  0.48441  0.64051  0.31704  1.0000 1.0322585722
Cd  Cd4       1.0  0.64051  0.48441  0.18296  1.0000 1.0322585722
Cd  Cd5       1.0  0.64979  0.22067  0.44884  1.0000 1.0209765753
Cd  Cd6       1.0  0.22067  0.64979  0.05116  1.0000 1.0209765753
Cd  Cd7       1.0  0.35021  0.77933  0.55116  1.0000 1.0209765753
Cd  Cd8       1.0  0.77933  0.35021  0.94884  1.0000 1.0209765753
H   H1        1.0  0.72140  0.57440  0.56400  1.0000 0.1410528944
H   H2        1.0  0.57440  0.72140  0.93600  1.0000 0.1410528944
H   H3        1.0  0.27860  0.42560  0.43600  1.0000 0.1410528944
H   H4        1.0  0.42560  0.27860  0.06400  1.0000 0.1410528944
H   H5        1.0  0.06390  0.33930  0.59080  1.0000 0.1410528944
H   H6        1.0  0.33930  0.06390  0.90920  1.0000 0.1410528944
H   H7        1.0  0.93610  0.66070  0.40920  1.0000 0.1410528944
H   H8        1.0  0.66070  0.93610  0.09080  1.0000 0.1410528944
H   H9        1.0  0.53360  0.85740  0.67610  1.0000 0.1410528944
H   H10       1.0  0.85740  0.53360  0.82390  1.0000 0.1410528944
H   H11       1.0  0.46640  0.14260  0.32390  1.0000 0.1410528944
H   H12       1.0  0.14260  0.46640  0.17610  1.0000 0.1410528944
H   H13       1.0  0.05690  0.63990  0.68450  1.0000 0.1284906363
H   H14       1.0  0.63990  0.05690  0.81550  1.0000 0.1284906363
H   H15       1.0  0.94310  0.36010  0.31550  1.0000 0.1284906363
H   H16       1.0  0.36010  0.94310  0.18450  1.0000 0.1284906363
H   H17       1.0  0.95290  0.87210  0.62620  1.0000 0.1284906363
H   H18       1.0  0.87210  0.95290  0.87380  1.0000 0.1284906363
H   H19       1.0  0.04710  0.12790  0.37380  1.0000 0.1284906363
H   H20       1.0  0.12790  0.04710  0.12620  1.0000 0.1284906363
H   H21       1.0  0.84990  0.05810  0.64450  1.0000 0.1410528944
H   H22       1.0  0.05810  0.84990  0.85550  1.0000 0.1410528944
H   H23       1.0  0.15010  0.94190  0.35550  1.0000 0.1410528944
H   H24       1.0  0.94190  0.15010  0.14450  1.0000 0.1410528944
C   C1        1.0  0.60970  0.61670  0.66270  1.0000 0.587714607
C   C2        1.0  0.61670  0.60970  0.83730  1.0000 0.587714607
C   C3        1.0  0.39030  0.38330  0.33730  1.0000 0.587714607
C   C4        1.0  0.38330  0.39030  0.16270  1.0000 0.587714607
C   C5        1.0  0.81190  0.55190  0.58420  1.0000 -0.1221164536
C   C6        1.0  0.55190  0.81190  0.91580  1.0000 -0.1221164536
C   C7        1.0  0.18810  0.44810  0.41580  1.0000 -0.1221164536
C   C8        1.0  0.44810  0.18810  0.08420  1.0000 -0.1221164536
C   C9        1.0  0.80840  0.74700  0.64060  1.0000 0.070412785
C   C10       1.0  0.74700  0.80840  0.85940  1.0000 0.070412785
C   C11       1.0  0.19160  0.25300  0.35940  1.0000 0.070412785
C   C12       1.0  0.25300  0.19160  0.14060  1.0000 0.070412785
C   C13       1.0  0.01730  0.41030  0.60050  1.0000 -0.0989452897
C   C14       1.0  0.41030  0.01730  0.89950  1.0000 -0.0989452897
C   C15       1.0  0.98270  0.58970  0.39950  1.0000 -0.0989452897
C   C16       1.0  0.58970  0.98270  0.10050  1.0000 -0.0989452897
C   C17       1.0  0.88110  0.44230  0.57210  1.0000 0.0217282084
C   C18       1.0  0.44230  0.88110  0.92790  1.0000 0.0217282084
C   C19       1.0  0.11890  0.55770  0.42790  1.0000 0.0217282084
C   C20       1.0  0.55770  0.11890  0.07210  1.0000 0.0217282084
C   C21       1.0  0.87640  0.62740  0.62590  1.0000 0.070412785
C   C22       1.0  0.62740  0.87640  0.87410  1.0000 0.070412785
C   C23       1.0  0.12360  0.37260  0.37410  1.0000 0.070412785
C   C24       1.0  0.37260  0.12360  0.12590  1.0000 0.070412785
C   C25       1.0  0.68200  0.74220  0.65770  1.0000 -0.0572134721
C   C26       1.0  0.74220  0.68200  0.84230  1.0000 -0.0572134721
C   C27       1.0  0.31800  0.25780  0.34230  1.0000 -0.0572134721
C   C28       1.0  0.25780  0.31800  0.15770  1.0000 -0.0572134721
C   C29       1.0  0.61910  0.85890  0.66730  1.0000 -0.1221164536
C   C30       1.0  0.85890  0.61910  0.83270  1.0000 -0.1221164536
C   C31       1.0  0.38090  0.14110  0.33270  1.0000 -0.1221164536
C   C32       1.0  0.14110  0.38090  0.16730  1.0000 -0.1221164536
C   C33       1.0  0.01250  0.59110  0.65560  1.0000 -0.1086199208
C   C34       1.0  0.59110  0.01250  0.84440  1.0000 -0.1086199208
C   C35       1.0  0.98750  0.40890  0.34440  1.0000 -0.1086199208
C   C36       1.0  0.40890  0.98750  0.15560  1.0000 -0.1086199208
C   C37       1.0  0.08300  0.48320  0.64270  1.0000 -0.0052427094
C   C38       1.0  0.48320  0.08300  0.85730  1.0000 -0.0052427094
C   C39       1.0  0.91700  0.51680  0.35730  1.0000 -0.0052427094
C   C40       1.0  0.51680  0.91700  0.14270  1.0000 -0.0041134205
C   C41       1.0  0.23080  0.45340  0.67410  1.0000 0.587714607
C   C42       1.0  0.45340  0.23080  0.82590  1.0000 0.587714607
C   C43       1.0  0.76920  0.54660  0.32590  1.0000 0.587714607
C   C44       1.0  0.54660  0.76920  0.17410  1.0000 0.587714607
C   C45       1.0  0.68260  0.97720  0.66400  1.0000 0.0041127951
C   C46       1.0  0.97720  0.68260  0.83600  1.0000 0.0041127951
C   C47       1.0  0.31740  0.02280  0.33600  1.0000 0.0041127951
C   C48       1.0  0.02280  0.31740  0.16400  1.0000 0.0041127951
C   C49       1.0  0.80860  0.35680  0.52840  1.0000 0.5497765785
C   C50       1.0  0.35680  0.80860  0.97160  1.0000 0.5497765785
C   C51       1.0  0.19140  0.64320  0.47160  1.0000 0.5497765785
C   C52       1.0  0.64320  0.19140  0.02840  1.0000 0.5497765785
C   C53       1.0  0.86910  0.86790  0.63660  1.0000 -0.1250013316
C   C54       1.0  0.86790  0.86910  0.86340  1.0000 -0.1221164536
C   C55       1.0  0.13090  0.13210  0.36340  1.0000 -0.1250013316
C   C56       1.0  0.13210  0.13090  0.13660  1.0000 -0.1250013316
C   C57       1.0  0.80740  0.97920  0.64780  1.0000 -0.0810568611
C   C58       1.0  0.97920  0.80740  0.85220  1.0000 -0.0810568611
C   C59       1.0  0.19260  0.02080  0.35220  1.0000 -0.0810568611
C   C60       1.0  0.02080  0.19260  0.14780  1.0000 -0.0810568611
C   C61       1.0  0.54800  0.94960  0.48940  1.0000 0.4764169326
C   C62       1.0  0.94960  0.54800  0.01060  1.0000 0.4764169326
C   C63       1.0  0.45200  0.05040  0.51060  1.0000 0.4764169326
C   C64       1.0  0.05040  0.45200  0.98940  1.0000 0.4764169326
C   C65       1.0  0.61380  0.10160  0.67440  1.0000 0.5497765785
C   C66       1.0  0.10160  0.61380  0.82560  1.0000 0.5497765785
C   C67       1.0  0.38620  0.89840  0.32560  1.0000 0.5497765785
C   C68       1.0  0.89840  0.38620  0.17440  1.0000 0.5497765785
O   O1        1.0  0.64270  0.99710  0.46570  1.0000 -0.4769686738
O   O2        1.0  0.99710  0.64270  0.03430  1.0000 -0.4769686738
O   O3        1.0  0.35730  0.00290  0.53430  1.0000 -0.4769686738
O   O4        1.0  0.00290  0.35730  0.96570  1.0000 -0.4769686738
O   O5        1.0  0.52130  0.83030  0.49730  1.0000 -0.4733816812
O   O6        1.0  0.83030  0.52130  0.00270  1.0000 -0.4733816812
O   O7        1.0  0.47870  0.16970  0.50270  1.0000 -0.4733816812
O   O8        1.0  0.16970  0.47870  0.99730  1.0000 -0.4733816812
O   O9        1.0  0.67000  0.50960  0.70170  1.0000 -0.4769686738
O   O10       1.0  0.50960  0.67000  0.79830  1.0000 -0.4769686738
O   O11       1.0  0.33000  0.49040  0.29830  1.0000 -0.4769686738
O   O12       1.0  0.49040  0.33000  0.20170  1.0000 -0.4769686738
O   O13       1.0  0.49090  0.62010  0.63080  1.0000 -0.5468634868
O   O14       1.0  0.62010  0.49090  0.86920  1.0000 -0.5468634868
O   O15       1.0  0.50910  0.37990  0.36920  1.0000 -0.5468634868
O   O16       1.0  0.37990  0.50910  0.13080  1.0000 -0.5468634868
O   O17       1.0  0.68360  0.20180  0.68110  1.0000 -0.5468634868
O   O18       1.0  0.20180  0.68360  0.81890  1.0000 -0.5468634868
O   O19       1.0  0.31640  0.79820  0.31890  1.0000 -0.5468634868
O   O20       1.0  0.79820  0.31640  0.18110  1.0000 -0.5468634868
O   O21       1.0  0.86130  0.24510  0.52510  1.0000 -0.5332122425
O   O22       1.0  0.24510  0.86130  0.97490  1.0000 -0.5332122425
O   O23       1.0  0.13870  0.75490  0.47490  1.0000 -0.5332122425
O   O24       1.0  0.75490  0.13870  0.02510  1.0000 -0.5332122425
O   O25       1.0  0.28870  0.53330  0.70450  1.0000 -0.5440785417
O   O26       1.0  0.53330  0.28870  0.79550  1.0000 -0.5440785417
O   O27       1.0  0.71130  0.46670  0.29550  1.0000 -0.5440785417
O   O28       1.0  0.46670  0.71130  0.20450  1.0000 -0.5440785417
O   O29       1.0  0.28970  0.34890  0.66500  1.0000 -0.4962010736
O   O30       1.0  0.34890  0.28970  0.83500  1.0000 -0.4962010736
O   O31       1.0  0.71030  0.65110  0.33500  1.0000 -0.4962010736
O   O32       1.0  0.65110  0.71030  0.16500  1.0000 -0.4962010736
O   O33       1.0  0.68830  0.39610  0.49910  1.0000 -0.4893235321
O   O34       1.0  0.39610  0.68830  0.00090  1.0000 -0.4893235321
O   O35       1.0  0.31170  0.60390  0.50090  1.0000 -0.4893235321
O   O36       1.0  0.60390  0.31170  0.99910  1.0000 -0.4893235321
O   O37       1.0  0.49140  0.10400  0.67690  1.0000 -0.4893235321
O   O38       1.0  0.10400  0.49140  0.82310  1.0000 -0.4893235321
O   O39       1.0  0.50860  0.89600  0.32310  1.0000 -0.4893235321
O   O40       1.0  0.89600  0.50860  0.17690  1.0000 -0.4893235321
