# DDEC6 charges by PACMAN v1.1 (https://github.com/mtap-research/PACMAN-charge/)
data_2015[ZnTb][nan]3[ASR]2
_chemical_formula_sum              "Tb4 Zn2 H36 C72 N12 O24"
_cell_length_a       12.0185
_cell_length_b       12.0185
_cell_length_c       21.2567
_cell_angle_alpha    77.9042
_cell_angle_beta     102.096
_cell_angle_gamma    91.5949

_symmetry_space_group_name_H-M    "P 1"
_symmetry_Int_Tables_number       1

loop_
  _symmetry_equiv_pos_as_xyz
  'x, y, z'

loop_
  _atom_site_type_symbol
  _atom_site_label
  _atom_site_symmetry_multiplicity
  _atom_site_fract_x
  _atom_site_fract_y
  _atom_site_fract_z
  _atom_site_occupancy
  _atom_site_charge
Tb  Tb1       1.0  0.95529  0.91413  0.42891  1.0000 2.0474500408
Tb  Tb2       1.0  0.91413  0.95529  0.07109  1.0000 2.0474500408
Tb  Tb3       1.0  0.04471  0.08587  0.57109  1.0000 2.0474500408
Tb  Tb4       1.0  0.08587  0.04471  0.92891  1.0000 2.0474500408
Zn  Zn1       1.0  0.44005  0.44005  0.25000  1.0000 0.4859546175
Zn  Zn2       1.0  0.55995  0.55995  0.75000  1.0000 0.4859546175
H   H1        1.0  0.53950  0.18510  0.29570  1.0000 0.0920097096
H   H2        1.0  0.18510  0.53950  0.20430  1.0000 0.0920097096
H   H3        1.0  0.46050  0.81490  0.70430  1.0000 0.0920097096
H   H4        1.0  0.81490  0.46050  0.79570  1.0000 0.0920097096
H   H5        1.0  0.69410  0.08470  0.37050  1.0000 0.1490816785
H   H6        1.0  0.08470  0.69410  0.12950  1.0000 0.1490816785
H   H7        1.0  0.30590  0.91530  0.62950  1.0000 0.1490816785
H   H8        1.0  0.91530  0.30590  0.87050  1.0000 0.1490816785
H   H9        1.0  0.78030  0.37370  0.43250  1.0000 0.1394025162
H   H10       1.0  0.37370  0.78030  0.06750  1.0000 0.1394025162
H   H11       1.0  0.21970  0.62630  0.56750  1.0000 0.1394025162
H   H12       1.0  0.62630  0.21970  0.93250  1.0000 0.1394025162
H   H13       1.0  0.78130  0.55790  0.39470  1.0000 0.1394025162
H   H14       1.0  0.55790  0.78130  0.10530  1.0000 0.1394025162
H   H15       1.0  0.21870  0.44210  0.60530  1.0000 0.1394025162
H   H16       1.0  0.44210  0.21870  0.89470  1.0000 0.1394025162
H   H17       1.0  0.54510  0.81050  0.33400  1.0000 0.1331119004
H   H18       1.0  0.81050  0.54510  0.16600  1.0000 0.1331119004
H   H19       1.0  0.45490  0.18950  0.66600  1.0000 0.1331119004
H   H20       1.0  0.18950  0.45490  0.83400  1.0000 0.1331119004
H   H21       1.0  0.42020  0.68560  0.28960  1.0000 0.0920097096
H   H22       1.0  0.68560  0.42020  0.21040  1.0000 0.0920097096
H   H23       1.0  0.57980  0.31440  0.71040  1.0000 0.0920097096
H   H24       1.0  0.31440  0.57980  0.78960  1.0000 0.0920097096
H   H25       1.0  0.35370  0.43730  0.38050  1.0000 0.0970224267
H   H26       1.0  0.43730  0.35370  0.11950  1.0000 0.0970224267
H   H27       1.0  0.64630  0.56270  0.61950  1.0000 0.0970224267
H   H28       1.0  0.56270  0.64630  0.88050  1.0000 0.0970224267
H   H29       1.0  0.24330  0.32650  0.44380  1.0000 0.1490816785
H   H30       1.0  0.32650  0.24330  0.05620  1.0000 0.1490816785
H   H31       1.0  0.75670  0.67350  0.55620  1.0000 0.1490816785
H   H32       1.0  0.67350  0.75670  0.94380  1.0000 0.1490816785
H   H33       1.0  0.15770  0.14490  0.30470  1.0000 0.1394025162
H   H34       1.0  0.14490  0.15770  0.19530  1.0000 0.1394025162
H   H35       1.0  0.84230  0.85510  0.69530  1.0000 0.1394025162
H   H36       1.0  0.85510  0.84230  0.80470  1.0000 0.1394025162
C   C1        1.0  0.59140  0.22380  0.32200  1.0000 0.0578519696
C   C2        1.0  0.22380  0.59140  0.17800  1.0000 0.0578519696
C   C3        1.0  0.40860  0.77620  0.67800  1.0000 0.0578519696
C   C4        1.0  0.77620  0.40860  0.82200  1.0000 0.0578519696
C   C5        1.0  0.68340  0.16200  0.36800  1.0000 -0.1605137611
C   C6        1.0  0.16200  0.68340  0.13200  1.0000 -0.1605137611
C   C7        1.0  0.31660  0.83800  0.63200  1.0000 -0.1605137611
C   C8        1.0  0.83800  0.31660  0.86800  1.0000 -0.1605137611
C   C9        1.0  0.75490  0.21830  0.40820  1.0000 0.0282354067
C   C10       1.0  0.21830  0.75490  0.09180  1.0000 0.0282354067
C   C11       1.0  0.24510  0.78170  0.59180  1.0000 0.0282354067
C   C12       1.0  0.78170  0.24510  0.90820  1.0000 0.0282354067
C   C13       1.0  0.73480  0.33480  0.40340  1.0000 -0.1939409958
C   C14       1.0  0.33480  0.73480  0.09660  1.0000 -0.1939409958
C   C15       1.0  0.26520  0.66520  0.59660  1.0000 -0.1939409958
C   C16       1.0  0.66520  0.26520  0.90340  1.0000 -0.1939409958
C   C17       1.0  0.64790  0.39110  0.35590  1.0000 0.1331119004
C   C18       1.0  0.39110  0.64790  0.14410  1.0000 0.1331119004
C   C19       1.0  0.35210  0.60890  0.64410  1.0000 0.1331119004
C   C20       1.0  0.60890  0.35210  0.85590  1.0000 0.1331119004
C   C21       1.0  0.85160  0.16320  0.46180  1.0000 0.6146510741
C   C22       1.0  0.16320  0.85160  0.03820  1.0000 0.6146510741
C   C23       1.0  0.14840  0.83680  0.53820  1.0000 0.6146510741
C   C24       1.0  0.83680  0.14840  0.96180  1.0000 0.6146510741
C   C25       1.0  0.62360  0.51340  0.34760  1.0000 0.1490816785
C   C26       1.0  0.51340  0.62360  0.15240  1.0000 0.1490816785
C   C27       1.0  0.37640  0.48660  0.65240  1.0000 0.1490816785
C   C28       1.0  0.48660  0.37640  0.84760  1.0000 0.1490816785
C   C29       1.0  0.70860  0.58580  0.37400  1.0000 -0.1979974048
C   C30       1.0  0.58580  0.70860  0.12600  1.0000 -0.1979974048
C   C31       1.0  0.29140  0.41420  0.62600  1.0000 -0.1979974048
C   C32       1.0  0.41420  0.29140  0.87400  1.0000 -0.1979974048
C   C33       1.0  0.68010  0.69790  0.36790  1.0000 0.0282354067
C   C34       1.0  0.69790  0.68010  0.13210  1.0000 0.0282354067
C   C35       1.0  0.31990  0.30210  0.63210  1.0000 0.0282354067
C   C36       1.0  0.30210  0.31990  0.86790  1.0000 0.0282354067
C   C37       1.0  0.56800  0.73600  0.33690  1.0000 -0.1816119278
C   C38       1.0  0.73600  0.56800  0.16310  1.0000 -0.1816119278
C   C39       1.0  0.43200  0.26400  0.66310  1.0000 -0.1816119278
C   C40       1.0  0.26400  0.43200  0.83690  1.0000 -0.1816119278
C   C41       1.0  0.49340  0.66000  0.31100  1.0000 0.0282354067
C   C42       1.0  0.66000  0.49340  0.18900  1.0000 0.0282354067
C   C43       1.0  0.50660  0.34000  0.68900  1.0000 0.0282354067
C   C44       1.0  0.34000  0.50660  0.81100  1.0000 0.0282354067
C   C45       1.0  0.76930  0.77610  0.39140  1.0000 0.5468493452
C   C46       1.0  0.77610  0.76930  0.10860  1.0000 0.5468493452
C   C47       1.0  0.23070  0.22390  0.60860  1.0000 0.5468493452
C   C48       1.0  0.22390  0.23070  0.89140  1.0000 0.5468493452
C   C49       1.0  0.31280  0.37860  0.36440  1.0000 0.0421997024
C   C50       1.0  0.37860  0.31280  0.13560  1.0000 0.0421997024
C   C51       1.0  0.68720  0.62140  0.63560  1.0000 0.0421997024
C   C52       1.0  0.62140  0.68720  0.86440  1.0000 0.0421997024
C   C53       1.0  0.24850  0.31190  0.40330  1.0000 -0.1716015885
C   C54       1.0  0.31190  0.24850  0.09670  1.0000 -0.1716015885
C   C55       1.0  0.75150  0.68810  0.59670  1.0000 -0.1716015885
C   C56       1.0  0.68810  0.75150  0.90330  1.0000 -0.1716015885
C   C57       1.0  0.19220  0.22340  0.38050  1.0000 0.0206430576
C   C58       1.0  0.22340  0.19220  0.11950  1.0000 0.0206430576
C   C59       1.0  0.80780  0.77660  0.61950  1.0000 0.0206430576
C   C60       1.0  0.77660  0.80780  0.88050  1.0000 0.0206430576
C   C61       1.0  0.19740  0.20440  0.32050  1.0000 -0.1816119278
C   C62       1.0  0.20440  0.19740  0.17950  1.0000 -0.1816119278
C   C63       1.0  0.80260  0.79560  0.67950  1.0000 -0.1816119278
C   C64       1.0  0.79560  0.80260  0.82050  1.0000 -0.1816119278
C   C65       1.0  0.26420  0.27640  0.28260  1.0000 0.1331119004
C   C66       1.0  0.27640  0.26420  0.21740  1.0000 0.1331119004
C   C67       1.0  0.73580  0.72360  0.71740  1.0000 0.1331119004
C   C68       1.0  0.72360  0.73580  0.78260  1.0000 0.1331119004
C   C69       1.0  0.11990  0.14290  0.42330  1.0000 0.6270352354
C   C70       1.0  0.14290  0.11990  0.07670  1.0000 0.6270352354
C   C71       1.0  0.88010  0.85710  0.57670  1.0000 0.6270352354
C   C72       1.0  0.85710  0.88010  0.92330  1.0000 0.6270352354
N   N1        1.0  0.57740  0.33540  0.31540  1.0000 -0.251936073
N   N2        1.0  0.33540  0.57740  0.18460  1.0000 -0.251936073
N   N3        1.0  0.42260  0.66460  0.68460  1.0000 -0.251936073
N   N4        1.0  0.66460  0.42260  0.81540  1.0000 -0.251936073
N   N5        1.0  0.52080  0.55120  0.31510  1.0000 -0.2565702411
N   N6        1.0  0.55120  0.52080  0.18490  1.0000 -0.2565702411
N   N7        1.0  0.47920  0.44880  0.68490  1.0000 -0.2565702411
N   N8        1.0  0.44880  0.47920  0.81510  1.0000 -0.2565702411
N   N9        1.0  0.32000  0.36420  0.30500  1.0000 -0.2431091206
N   N10       1.0  0.36420  0.32000  0.19500  1.0000 -0.2431091206
N   N11       1.0  0.68000  0.63580  0.69500  1.0000 -0.2431091206
N   N12       1.0  0.63580  0.68000  0.80500  1.0000 -0.2431091206
O   O1        1.0  0.89710  0.21530  0.50440  1.0000 -0.6032904485
O   O2        1.0  0.21530  0.89710  0.99560  1.0000 -0.6032904485
O   O3        1.0  0.10290  0.78470  0.49560  1.0000 -0.6032904485
O   O4        1.0  0.78470  0.10290  0.00440  1.0000 -0.6032904485
O   O5        1.0  0.88340  0.06320  0.46160  1.0000 -0.7698639134
O   O6        1.0  0.06320  0.88340  0.03840  1.0000 -0.7698639134
O   O7        1.0  0.11660  0.93680  0.53840  1.0000 -0.7698639134
O   O8        1.0  0.93680  0.11660  0.96160  1.0000 -0.7698639134
O   O9        1.0  0.10690  0.17210  0.47430  1.0000 -0.6361839125
O   O10       1.0  0.17210  0.10690  0.02570  1.0000 -0.6361839125
O   O11       1.0  0.89310  0.82790  0.52570  1.0000 -0.6361839125
O   O12       1.0  0.82790  0.89310  0.97430  1.0000 -0.6361839125
O   O13       1.0  0.08090  0.05990  0.40190  1.0000 -0.673059369
O   O14       1.0  0.05990  0.08090  0.09810  1.0000 -0.673059369
O   O15       1.0  0.91910  0.94010  0.59810  1.0000 -0.673059369
O   O16       1.0  0.94010  0.91910  0.90190  1.0000 -0.673059369
O   O17       1.0  0.87210  0.74290  0.40290  1.0000 -0.6626988748
O   O18       1.0  0.74290  0.87210  0.09710  1.0000 -0.6626988748
O   O19       1.0  0.12790  0.25710  0.59710  1.0000 -0.6626988748
O   O20       1.0  0.25710  0.12790  0.90290  1.0000 -0.6626988748
O   O21       1.0  0.74330  0.87270  0.39840  1.0000 -0.6462045262
O   O22       1.0  0.87270  0.74330  0.10160  1.0000 -0.6462045262
O   O23       1.0  0.25670  0.12730  0.60160  1.0000 -0.6462045262
O   O24       1.0  0.12730  0.25670  0.89840  1.0000 -0.6462045262
