# DDEC6 charges by PACMAN v1.1 (https://github.com/mtap-research/PACMAN-charge/)
data_2015[Zn][nan]3[ASR]1
_chemical_formula_sum              "Zn12 H92 C168 N20 O48"
_cell_length_a       10.0627
_cell_length_b       23.0608
_cell_length_c       27.8144
_cell_angle_alpha    90
_cell_angle_beta     106.005
_cell_angle_gamma    90

_symmetry_space_group_name_H-M    "P 1"
_symmetry_Int_Tables_number       1

loop_
  _symmetry_equiv_pos_as_xyz
  'x, y, z'

loop_
  _atom_site_type_symbol
  _atom_site_label
  _atom_site_symmetry_multiplicity
  _atom_site_fract_x
  _atom_site_fract_y
  _atom_site_fract_z
  _atom_site_occupancy
  _atom_site_charge
Zn  Zn1       1.0  0.92300  0.19271  0.27196  1.0000 0.8262703509
Zn  Zn2       1.0  0.07700  0.69271  0.22804  1.0000 0.8262703509
Zn  Zn3       1.0  0.07700  0.80729  0.72804  1.0000 0.8262703509
Zn  Zn4       1.0  0.92300  0.30729  0.77196  1.0000 0.8262703509
Zn  Zn5       1.0  0.14486  0.24475  0.18301  1.0000 0.8417375625
Zn  Zn6       1.0  0.85514  0.74475  0.31699  1.0000 0.8417375625
Zn  Zn7       1.0  0.85514  0.75525  0.81699  1.0000 0.8417375625
Zn  Zn8       1.0  0.14486  0.25525  0.68301  1.0000 0.8417375625
Zn  Zn9       1.0  0.65137  0.50827  0.00810  1.0000 0.9383353383
Zn  Zn10      1.0  0.34863  0.00827  0.49190  1.0000 0.9383353383
Zn  Zn11      1.0  0.34863  0.49173  0.99190  1.0000 0.9383353383
Zn  Zn12      1.0  0.65137  0.99173  0.50810  1.0000 0.9383353383
H   H1        1.0  0.78990  0.36380  0.11140  1.0000 0.1319425222
H   H2        1.0  0.21010  0.86380  0.38860  1.0000 0.1319425222
H   H3        1.0  0.21010  0.63620  0.88860  1.0000 0.1319425222
H   H4        1.0  0.78990  0.13620  0.61140  1.0000 0.1319425222
H   H5        1.0  0.38000  0.35730  0.09870  1.0000 0.1319425222
H   H6        1.0  0.62000  0.85730  0.40130  1.0000 0.1319425222
H   H7        1.0  0.62000  0.64270  0.90130  1.0000 0.1319425222
H   H8        1.0  0.38000  0.14270  0.59870  1.0000 0.1319425222
H   H9        1.0  0.64820  0.24880  0.19190  1.0000 0.1196597543
H   H10       1.0  0.35180  0.74880  0.30810  1.0000 0.1196597543
H   H11       1.0  0.35180  0.75120  0.80810  1.0000 0.1196597543
H   H12       1.0  0.64820  0.25120  0.69190  1.0000 0.1196597543
H   H13       1.0  0.47450  0.20230  0.27370  1.0000 0.1319425222
H   H14       1.0  0.52550  0.70230  0.22630  1.0000 0.1319425222
H   H15       1.0  0.52550  0.79770  0.72630  1.0000 0.1319425222
H   H16       1.0  0.47450  0.29770  0.77370  1.0000 0.1319425222
H   H17       1.0  0.70070  0.11330  0.39220  1.0000 0.1365813927
H   H18       1.0  0.29930  0.61330  0.10780  1.0000 0.1365813927
H   H19       1.0  0.29930  0.88670  0.60780  1.0000 0.1365813927
H   H20       1.0  0.70070  0.38670  0.89220  1.0000 0.1365813927
H   H21       1.0  0.28550  0.11490  0.36490  1.0000 0.1319425222
H   H22       1.0  0.71450  0.61490  0.13510  1.0000 0.1319425222
H   H23       1.0  0.71450  0.88510  0.63510  1.0000 0.1319425222
H   H24       1.0  0.28550  0.38510  0.86490  1.0000 0.1319425222
H   H25       1.0  0.32830  0.84560  0.81570  1.0000 0.1196597543
H   H26       1.0  0.67170  0.34560  0.68430  1.0000 0.1196597543
H   H27       1.0  0.67170  0.15440  0.18430  1.0000 0.1196597543
H   H28       1.0  0.32830  0.65440  0.31570  1.0000 0.1196597543
H   H29       1.0  0.02630  0.94970  0.75170  1.0000 0.1319425222
H   H30       1.0  0.97370  0.44970  0.74830  1.0000 0.1319425222
H   H31       1.0  0.97370  0.05030  0.24830  1.0000 0.1319425222
H   H32       1.0  0.02630  0.55030  0.25170  1.0000 0.1319425222
H   H33       1.0  0.19680  0.00650  0.81760  1.0000 0.1196597543
H   H34       1.0  0.80320  0.50650  0.68240  1.0000 0.1196597543
H   H35       1.0  0.80320  0.99350  0.18240  1.0000 0.1196597543
H   H36       1.0  0.19680  0.49350  0.31760  1.0000 0.1196597543
H   H37       1.0  0.52390  0.86170  0.86390  1.0000 0.1365813927
H   H38       1.0  0.47610  0.36170  0.63610  1.0000 0.1365813927
H   H39       1.0  0.47610  0.13830  0.13610  1.0000 0.1365813927
H   H40       1.0  0.52390  0.63830  0.36390  1.0000 0.1365813927
H   H41       1.0  0.70460  0.87710  0.93870  1.0000 0.1196597543
H   H42       1.0  0.29540  0.37710  0.56130  1.0000 0.1196597543
H   H43       1.0  0.29540  0.12290  0.06130  1.0000 0.1196597543
H   H44       1.0  0.70460  0.62290  0.43870  1.0000 0.1196597543
H   H45       1.0  0.55590  0.03060  0.96180  1.0000 0.1119618307
H   H46       1.0  0.44410  0.53060  0.53820  1.0000 0.1119618307
H   H47       1.0  0.44410  0.96940  0.03820  1.0000 0.1119618307
H   H48       1.0  0.55590  0.46940  0.46180  1.0000 0.1119618307
H   H49       1.0  0.36810  0.02010  0.88910  1.0000 0.1196597543
H   H50       1.0  0.63190  0.52010  0.61090  1.0000 0.1196597543
H   H51       1.0  0.63190  0.97990  0.11090  1.0000 0.1196597543
H   H52       1.0  0.36810  0.47990  0.38910  1.0000 0.1196597543
H   H53       1.0  0.80060  0.04580  0.00380  1.0000 0.1319425222
H   H54       1.0  0.19940  0.54580  0.49620  1.0000 0.1319425222
H   H55       1.0  0.19940  0.95420  0.99620  1.0000 0.1319425222
H   H56       1.0  0.80060  0.45420  0.50380  1.0000 0.1319425222
H   H57       1.0  0.76510  0.87010  0.02010  1.0000 0.1196597543
H   H58       1.0  0.23490  0.37010  0.47990  1.0000 0.1196597543
H   H59       1.0  0.23490  0.12990  0.97990  1.0000 0.1196597543
H   H60       1.0  0.76510  0.62990  0.52010  1.0000 0.1196597543
H   H61       1.0  0.92590  0.20450  0.09330  1.0000 0.1119618307
H   H62       1.0  0.07410  0.70450  0.40670  1.0000 0.1119618307
H   H63       1.0  0.07410  0.79550  0.90670  1.0000 0.1119618307
H   H64       1.0  0.92590  0.29550  0.59330  1.0000 0.1119618307
H   H65       1.0  0.83800  0.11800  0.05140  1.0000 0.1319425222
H   H66       1.0  0.16200  0.61800  0.44860  1.0000 0.1319425222
H   H67       1.0  0.16200  0.88200  0.94860  1.0000 0.1319425222
H   H68       1.0  0.83800  0.38200  0.55140  1.0000 0.1319425222
H   H69       1.0  0.12640  0.03060  0.14590  1.0000 0.1319425222
H   H70       1.0  0.87360  0.53060  0.35410  1.0000 0.1319425222
H   H71       1.0  0.87360  0.96940  0.85410  1.0000 0.1319425222
H   H72       1.0  0.12640  0.46940  0.64590  1.0000 0.1319425222
H   H73       1.0  0.20570  0.11690  0.18820  1.0000 0.1196597543
H   H74       1.0  0.79430  0.61690  0.31180  1.0000 0.1196597543
H   H75       1.0  0.79430  0.88310  0.81180  1.0000 0.1196597543
H   H76       1.0  0.20570  0.38310  0.68820  1.0000 0.1196597543
H   H77       1.0  0.09590  0.83040  0.22750  1.0000 0.1196597543
H   H78       1.0  0.90410  0.33040  0.27250  1.0000 0.1196597543
H   H79       1.0  0.90410  0.16960  0.77250  1.0000 0.1196597543
H   H80       1.0  0.09590  0.66960  0.72750  1.0000 0.1196597543
H   H81       1.0  0.02530  0.90890  0.17440  1.0000 0.1196597543
H   H82       1.0  0.97470  0.40890  0.32560  1.0000 0.1196597543
H   H83       1.0  0.97470  0.09110  0.82560  1.0000 0.1196597543
H   H84       1.0  0.02530  0.59110  0.67440  1.0000 0.1196597543
H   H85       1.0  0.84580  0.80000  0.06590  1.0000 0.1319425222
H   H86       1.0  0.15420  0.30000  0.43410  1.0000 0.1319425222
H   H87       1.0  0.15420  0.20000  0.93410  1.0000 0.1319425222
H   H88       1.0  0.84580  0.70000  0.56590  1.0000 0.1319425222
H   H89       1.0  0.91340  0.72490  0.12160  1.0000 0.1319425222
H   H90       1.0  0.08660  0.22490  0.37840  1.0000 0.1319425222
H   H91       1.0  0.08660  0.27510  0.87840  1.0000 0.1319425222
H   H92       1.0  0.91340  0.77510  0.62160  1.0000 0.1319425222
C   C1        1.0  0.88360  0.27970  0.17570  1.0000 0.5623763145
C   C2        1.0  0.11640  0.77970  0.32430  1.0000 0.5623763145
C   C3        1.0  0.11640  0.72030  0.82430  1.0000 0.5623763145
C   C4        1.0  0.88360  0.22030  0.67570  1.0000 0.5623763145
C   C5        1.0  0.55470  0.41680  0.06300  1.0000 0.591087857
C   C6        1.0  0.44530  0.91680  0.43700  1.0000 0.591087857
C   C7        1.0  0.44530  0.58320  0.93700  1.0000 0.591087857
C   C8        1.0  0.55470  0.08320  0.56300  1.0000 0.591087857
C   C9        1.0  0.38050  0.26670  0.16180  1.0000 0.5623763145
C   C10       1.0  0.61950  0.76670  0.33820  1.0000 0.5623763145
C   C11       1.0  0.61950  0.73330  0.83820  1.0000 0.5623763145
C   C12       1.0  0.38050  0.23330  0.66180  1.0000 0.5623763145
C   C13       1.0  0.74380  0.30350  0.15510  1.0000 -0.054883553
C   C14       1.0  0.25620  0.80350  0.34490  1.0000 -0.054883553
C   C15       1.0  0.25620  0.69650  0.84490  1.0000 -0.054883553
C   C16       1.0  0.74380  0.19650  0.65510  1.0000 -0.054883553
C   C17       1.0  0.71750  0.34680  0.12110  1.0000 -0.1005765277
C   C18       1.0  0.28250  0.84680  0.37890  1.0000 -0.1005765277
C   C19       1.0  0.28250  0.65320  0.87890  1.0000 -0.1005765277
C   C20       1.0  0.71750  0.15320  0.62110  1.0000 -0.1005765277
C   C21       1.0  0.58210  0.36620  0.10030  1.0000 -0.0110402126
C   C22       1.0  0.41790  0.86620  0.39970  1.0000 -0.0110402126
C   C23       1.0  0.41790  0.63380  0.89970  1.0000 -0.0110402126
C   C24       1.0  0.58210  0.13380  0.60030  1.0000 -0.0110402126
C   C25       1.0  0.46900  0.34340  0.11260  1.0000 -0.1005765277
C   C26       1.0  0.53100  0.84340  0.38740  1.0000 -0.1005765277
C   C27       1.0  0.53100  0.65660  0.88740  1.0000 -0.1005765277
C   C28       1.0  0.46900  0.15660  0.61260  1.0000 -0.1005765277
C   C29       1.0  0.49660  0.29760  0.14770  1.0000 -0.0110402126
C   C30       1.0  0.50340  0.79760  0.35230  1.0000 -0.0110402126
C   C31       1.0  0.50340  0.70240  0.85230  1.0000 -0.0110402126
C   C32       1.0  0.49660  0.20240  0.64770  1.0000 -0.0110402126
C   C33       1.0  0.63180  0.27860  0.16850  1.0000 -0.1227029497
C   C34       1.0  0.36820  0.77860  0.33150  1.0000 -0.1227029497
C   C35       1.0  0.36820  0.72140  0.83150  1.0000 -0.1227029497
C   C36       1.0  0.63180  0.22140  0.66850  1.0000 -0.1227029497
C   C37       1.0  0.22360  0.18570  0.28290  1.0000 0.5830945463
C   C38       1.0  0.77640  0.68570  0.21710  1.0000 0.5830945463
C   C39       1.0  0.77640  0.81430  0.71710  1.0000 0.5830945463
C   C40       1.0  0.22360  0.31430  0.78290  1.0000 0.5830945463
C   C41       1.0  0.73690  0.17190  0.31590  1.0000 0.5422188581
C   C42       1.0  0.26310  0.67190  0.18410  1.0000 0.5422188581
C   C43       1.0  0.26310  0.82810  0.68410  1.0000 0.5422188581
C   C44       1.0  0.73690  0.32810  0.81590  1.0000 0.5422188581
C   C45       1.0  0.50290  0.06620  0.42870  1.0000 0.591087857
C   C46       1.0  0.49710  0.56620  0.07130  1.0000 0.591087857
C   C47       1.0  0.49710  0.93380  0.57130  1.0000 0.591087857
C   C48       1.0  0.50290  0.43380  0.92870  1.0000 0.591087857
C   C49       1.0  0.36130  0.16390  0.31550  1.0000 -0.036043879
C   C50       1.0  0.63870  0.66390  0.18450  1.0000 -0.036043879
C   C51       1.0  0.63870  0.83610  0.68450  1.0000 -0.036043879
C   C52       1.0  0.36130  0.33610  0.81550  1.0000 -0.036043879
C   C53       1.0  0.47950  0.17870  0.30130  1.0000 -0.1227029497
C   C54       1.0  0.52050  0.67870  0.19870  1.0000 -0.1227029497
C   C55       1.0  0.52050  0.82130  0.69870  1.0000 -0.1227029497
C   C56       1.0  0.47950  0.32130  0.80130  1.0000 -0.1227029497
C   C57       1.0  0.60650  0.15650  0.33040  1.0000 0.0019712625
C   C58       1.0  0.39350  0.65650  0.16960  1.0000 0.0019712625
C   C59       1.0  0.39350  0.84350  0.66960  1.0000 0.0019712625
C   C60       1.0  0.60650  0.34350  0.83040  1.0000 0.0019712625
C   C61       1.0  0.61430  0.12390  0.37180  1.0000 -0.1005765277
C   C62       1.0  0.38570  0.62390  0.12820  1.0000 -0.1005765277
C   C63       1.0  0.38570  0.87610  0.62820  1.0000 -0.1005765277
C   C64       1.0  0.61430  0.37610  0.87180  1.0000 -0.1005765277
C   C65       1.0  0.49770  0.10630  0.38420  1.0000 -0.0110402126
C   C66       1.0  0.50230  0.60630  0.11580  1.0000 -0.0110402126
C   C67       1.0  0.50230  0.89370  0.61580  1.0000 -0.0110402126
C   C68       1.0  0.49770  0.39370  0.88420  1.0000 -0.0110402126
C   C69       1.0  0.36540  0.12600  0.35670  1.0000 -0.1227029497
C   C70       1.0  0.63460  0.62600  0.14330  1.0000 -0.1227029497
C   C71       1.0  0.63460  0.87400  0.64330  1.0000 -0.1227029497
C   C72       1.0  0.36540  0.37400  0.85670  1.0000 -0.1227029497
C   C73       1.0  0.27370  0.87860  0.80790  1.0000 0.1119618307
C   C74       1.0  0.72630  0.37860  0.69210  1.0000 0.1119618307
C   C75       1.0  0.72630  0.12140  0.19210  1.0000 0.1119618307
C   C76       1.0  0.27370  0.62140  0.30790  1.0000 0.1119618307
C   C77       1.0  0.10810  0.93540  0.77280  1.0000 -0.0015960517
C   C78       1.0  0.89190  0.43540  0.72720  1.0000 -0.0015960517
C   C79       1.0  0.89190  0.06460  0.22720  1.0000 -0.0015960517
C   C80       1.0  0.10810  0.56460  0.27280  1.0000 -0.0015960517
C   C81       1.0  0.20330  0.96760  0.80950  1.0000 -0.1005765277
C   C82       1.0  0.79670  0.46760  0.69050  1.0000 -0.1005765277
C   C83       1.0  0.79670  0.03240  0.19050  1.0000 -0.1005765277
C   C84       1.0  0.20330  0.53240  0.30950  1.0000 -0.1005765277
C   C85       1.0  0.42930  0.93800  0.87250  1.0000 0.1669158392
C   C86       1.0  0.57070  0.43800  0.62750  1.0000 0.1669158392
C   C87       1.0  0.57070  0.06200  0.12750  1.0000 0.1669158392
C   C88       1.0  0.42930  0.56200  0.37250  1.0000 0.1669158392
C   C89       1.0  0.52770  0.89450  0.88360  1.0000 -0.1896532535
C   C90       1.0  0.47230  0.39450  0.61640  1.0000 -0.1896532535
C   C91       1.0  0.47230  0.10550  0.11640  1.0000 -0.1896532535
C   C92       1.0  0.52770  0.60550  0.38360  1.0000 -0.1896532535
C   C93       1.0  0.63630  0.90520  0.92840  1.0000 -0.1302772745
C   C94       1.0  0.36370  0.40520  0.57160  1.0000 -0.1302772745
C   C95       1.0  0.36370  0.09480  0.07160  1.0000 -0.1302772745
C   C96       1.0  0.63630  0.59480  0.42840  1.0000 -0.1302772745
C   C97       1.0  0.64570  0.95420  0.95700  1.0000 0.0451832131
C   C98       1.0  0.35430  0.45420  0.54300  1.0000 0.0451832131
C   C99       1.0  0.35430  0.04580  0.04300  1.0000 0.0445222572
C   C100      1.0  0.64570  0.54580  0.45700  1.0000 0.0451832131
C   C101      1.0  0.54760  0.99700  0.94260  1.0000 -0.1302772745
C   C102      1.0  0.45240  0.49700  0.55740  1.0000 -0.1302772745
C   C103      1.0  0.45240  0.00300  0.05740  1.0000 -0.1302772745
C   C104      1.0  0.54760  0.50300  0.44260  1.0000 -0.1302772745
C   C105      1.0  0.43450  0.99130  0.89940  1.0000 -0.2001278869
C   C106      1.0  0.56550  0.49130  0.60060  1.0000 -0.2001278869
C   C107      1.0  0.56550  0.00870  0.10060  1.0000 -0.2001278869
C   C108      1.0  0.43450  0.50870  0.39940  1.0000 -0.2001278869
C   C109      1.0  0.91230  0.01250  0.07250  1.0000 0.2158416376
C   C110      1.0  0.08770  0.51250  0.42750  1.0000 0.2158416376
C   C111      1.0  0.08770  0.98750  0.92750  1.0000 0.2158416376
C   C112      1.0  0.91230  0.48750  0.57250  1.0000 0.2158416376
C   C113      1.0  0.82050  0.01240  0.02310  1.0000 -0.2804064958
C   C114      1.0  0.17950  0.51240  0.47690  1.0000 -0.2804064958
C   C115      1.0  0.17950  0.98760  0.97690  1.0000 -0.2804064958
C   C116      1.0  0.82050  0.48760  0.52310  1.0000 -0.2804064958
C   C117      1.0  0.76200  0.95790  0.00550  1.0000 0.1196597543
C   C118      1.0  0.23800  0.45790  0.49450  1.0000 0.1196597543
C   C119      1.0  0.23800  0.04210  0.99450  1.0000 0.1196597543
C   C120      1.0  0.76200  0.54210  0.50550  1.0000 0.1196597543
C   C121      1.0  0.80000  0.90580  0.03320  1.0000 -0.2804064958
C   C122      1.0  0.20000  0.40580  0.46680  1.0000 -0.2804064958
C   C123      1.0  0.20000  0.09420  0.96680  1.0000 -0.2804064958
C   C124      1.0  0.80000  0.59420  0.53320  1.0000 -0.2804064958
C   C125      1.0  0.89600  0.91080  0.08300  1.0000 0.1977713645
C   C126      1.0  0.10400  0.41080  0.41700  1.0000 0.1977713645
C   C127      1.0  0.10400  0.08920  0.91700  1.0000 0.1977713645
C   C128      1.0  0.89600  0.58920  0.58300  1.0000 0.1977713645
C   C129      1.0  0.97020  0.16960  0.10420  1.0000 0.0907160171
C   C130      1.0  0.02980  0.66960  0.39580  1.0000 0.0907160171
C   C131      1.0  0.02980  0.83040  0.89580  1.0000 0.0907160171
C   C132      1.0  0.97020  0.33040  0.60420  1.0000 0.0907160171
C   C133      1.0  0.91510  0.11680  0.07900  1.0000 -0.1896532535
C   C134      1.0  0.08490  0.61680  0.42100  1.0000 -0.1896532535
C   C135      1.0  0.08490  0.88320  0.92100  1.0000 -0.1896532535
C   C136      1.0  0.91510  0.38320  0.57900  1.0000 -0.1896532535
C   C137      1.0  0.97350  0.06680  0.09480  1.0000 0.0907160171
C   C138      1.0  0.02650  0.56680  0.40520  1.0000 0.0907160171
C   C139      1.0  0.02650  0.93320  0.90520  1.0000 0.0907160171
C   C140      1.0  0.97350  0.43320  0.59480  1.0000 0.0907160171
C   C141      1.0  0.08300  0.06560  0.13440  1.0000 -0.1691331438
C   C142      1.0  0.91700  0.56560  0.36560  1.0000 -0.1691331438
C   C143      1.0  0.91700  0.93440  0.86560  1.0000 -0.1691331438
C   C144      1.0  0.08300  0.43440  0.63440  1.0000 -0.1691331438
C   C145      1.0  0.13330  0.11840  0.15910  1.0000 0.0961298437
C   C146      1.0  0.86670  0.61840  0.34090  1.0000 0.0961298437
C   C147      1.0  0.86670  0.88160  0.84090  1.0000 0.0961298437
C   C148      1.0  0.13330  0.38160  0.65910  1.0000 0.0961298437
C   C149      1.0  0.04320  0.82350  0.19490  1.0000 0.0728730389
C   C150      1.0  0.95680  0.32350  0.30510  1.0000 0.0728730389
C   C151      1.0  0.95680  0.17650  0.80510  1.0000 0.0728730389
C   C152      1.0  0.04320  0.67650  0.69490  1.0000 0.0728730389
C   C153      1.0  0.00390  0.87130  0.16270  1.0000 -0.1605282634
C   C154      1.0  0.99610  0.37130  0.33730  1.0000 -0.1605282634
C   C155      1.0  0.99610  0.12870  0.83730  1.0000 -0.1605282634
C   C156      1.0  0.00390  0.62870  0.66270  1.0000 -0.1605282634
C   C157      1.0  0.93480  0.86140  0.11460  1.0000 0.0728730389
C   C158      1.0  0.06520  0.36140  0.38540  1.0000 0.0728730389
C   C159      1.0  0.06520  0.13860  0.88540  1.0000 0.0728730389
C   C160      1.0  0.93480  0.63860  0.61460  1.0000 0.0728730389
C   C161      1.0  0.89700  0.80720  0.09860  1.0000 -0.182889527
C   C162      1.0  0.10300  0.30720  0.40140  1.0000 -0.182889527
C   C163      1.0  0.10300  0.19280  0.90140  1.0000 -0.182889527
C   C164      1.0  0.89700  0.69280  0.59860  1.0000 -0.182889527
C   C165      1.0  0.93790  0.76240  0.13320  1.0000 0.0907160171
C   C166      1.0  0.06210  0.26240  0.36680  1.0000 0.0907160171
C   C167      1.0  0.06210  0.23760  0.86680  1.0000 0.0907160171
C   C168      1.0  0.93790  0.73760  0.63320  1.0000 0.0907160171
N   N1        1.0  0.30710  0.93000  0.83070  1.0000 0.0050521769
N   N2        1.0  0.69290  0.43000  0.66930  1.0000 0.0019712625
N   N3        1.0  0.69290  0.07000  0.16930  1.0000 0.0019712625
N   N4        1.0  0.30710  0.57000  0.33070  1.0000 0.0050521769
N   N5        1.0  0.15340  0.88050  0.77280  1.0000 -0.2597037017
N   N6        1.0  0.84660  0.38050  0.72720  1.0000 -0.2597037017
N   N7        1.0  0.84660  0.11950  0.22720  1.0000 -0.2597037017
N   N8        1.0  0.15340  0.61950  0.27280  1.0000 -0.2597037017
N   N9        1.0  0.95100  0.96420  0.09940  1.0000 -0.3496283575
N   N10       1.0  0.04900  0.46420  0.40060  1.0000 -0.3496283575
N   N11       1.0  0.04900  0.03580  0.90060  1.0000 -0.3496283575
N   N12       1.0  0.95100  0.53580  0.59940  1.0000 -0.3496283575
N   N13       1.0  0.08160  0.16960  0.14240  1.0000 -0.2291344239
N   N14       1.0  0.91840  0.66960  0.35760  1.0000 -0.2291344239
N   N15       1.0  0.91840  0.83040  0.85760  1.0000 -0.2291344239
N   N16       1.0  0.08160  0.33040  0.64240  1.0000 -0.2291344239
N   N17       1.0  0.00820  0.76770  0.18090  1.0000 -0.2218087673
N   N18       1.0  0.99180  0.26770  0.31910  1.0000 -0.2218087673
N   N19       1.0  0.99180  0.23230  0.81910  1.0000 -0.2218087673
N   N20       1.0  0.00820  0.73230  0.68090  1.0000 -0.2218087673
O   O1        1.0  0.90280  0.23870  0.20730  1.0000 -0.582732743
O   O2        1.0  0.09720  0.73870  0.29270  1.0000 -0.582732743
O   O3        1.0  0.09720  0.76130  0.79270  1.0000 -0.582732743
O   O4        1.0  0.90280  0.26130  0.70730  1.0000 -0.582732743
O   O5        1.0  0.97970  0.29690  0.15880  1.0000 -0.4991145491
O   O6        1.0  0.02030  0.79690  0.34120  1.0000 -0.4991145491
O   O7        1.0  0.02030  0.70310  0.84120  1.0000 -0.4991145491
O   O8        1.0  0.97970  0.20310  0.65880  1.0000 -0.4991145491
O   O9        1.0  0.66050  0.44000  0.05490  1.0000 -0.5411050677
O   O10       1.0  0.33950  0.94000  0.44510  1.0000 -0.5411050677
O   O11       1.0  0.33950  0.56000  0.94510  1.0000 -0.5411050677
O   O12       1.0  0.66050  0.06000  0.55490  1.0000 -0.5411050677
O   O13       1.0  0.43140  0.42810  0.04350  1.0000 -0.5186272099
O   O14       1.0  0.56860  0.92810  0.45650  1.0000 -0.5186272099
O   O15       1.0  0.56860  0.57190  0.95650  1.0000 -0.5186272099
O   O16       1.0  0.43140  0.07190  0.54350  1.0000 -0.5186272099
O   O17       1.0  0.26880  0.29430  0.15770  1.0000 -0.5186272099
O   O18       1.0  0.73120  0.79430  0.34230  1.0000 -0.5186272099
O   O19       1.0  0.73120  0.70570  0.84230  1.0000 -0.5186272099
O   O20       1.0  0.26880  0.20570  0.65770  1.0000 -0.5186272099
O   O21       1.0  0.39450  0.21560  0.17790  1.0000 -0.574235013
O   O22       1.0  0.60550  0.71560  0.32210  1.0000 -0.574235013
O   O23       1.0  0.60550  0.78440  0.82210  1.0000 -0.574235013
O   O24       1.0  0.39450  0.28440  0.67790  1.0000 -0.574235013
O   O25       1.0  0.11810  0.16220  0.29140  1.0000 -0.5411050677
O   O26       1.0  0.88190  0.66220  0.20860  1.0000 -0.5411050677
O   O27       1.0  0.88190  0.83780  0.70860  1.0000 -0.5411050677
O   O28       1.0  0.11810  0.33780  0.79140  1.0000 -0.5411050677
O   O29       1.0  0.22080  0.22790  0.25300  1.0000 -0.5506121575
O   O30       1.0  0.77920  0.72790  0.24700  1.0000 -0.5506121575
O   O31       1.0  0.77920  0.77210  0.74700  1.0000 -0.5506121575
O   O32       1.0  0.22080  0.27210  0.75300  1.0000 -0.5506121575
O   O33       1.0  0.72120  0.20600  0.27840  1.0000 -0.5506121575
O   O34       1.0  0.27880  0.70600  0.22160  1.0000 -0.5506121575
O   O35       1.0  0.27880  0.79400  0.72160  1.0000 -0.5506121575
O   O36       1.0  0.72120  0.29400  0.77840  1.0000 -0.5506121575
O   O37       1.0  0.84910  0.14880  0.33760  1.0000 -0.5506121575
O   O38       1.0  0.15090  0.64880  0.16240  1.0000 -0.5506121575
O   O39       1.0  0.15090  0.85120  0.66240  1.0000 -0.5506121575
O   O40       1.0  0.84910  0.35120  0.83760  1.0000 -0.5506121575
O   O41       1.0  0.39430  0.05930  0.43920  1.0000 -0.5125247299
O   O42       1.0  0.60570  0.55930  0.06080  1.0000 -0.5125247299
O   O43       1.0  0.60570  0.94070  0.56080  1.0000 -0.5125247299
O   O44       1.0  0.39430  0.44070  0.93920  1.0000 -0.5125247299
O   O45       1.0  0.61780  0.04900  0.45070  1.0000 -0.4991145491
O   O46       1.0  0.38220  0.54900  0.04930  1.0000 -0.4991145491
O   O47       1.0  0.38220  0.95100  0.54930  1.0000 -0.4991145491
O   O48       1.0  0.61780  0.45100  0.95070  1.0000 -0.4991145491
