# DDEC6 charges by PACMAN v1.1 (https://github.com/mtap-research/PACMAN-charge/)
data_2015[Zn][nbo]3[ASR]3
_chemical_formula_sum              "Zn6 H78 C132 N18 O24"
_cell_length_a       18.1341
_cell_length_b       18.1341
_cell_length_c       18.1341
_cell_angle_alpha    109.445
_cell_angle_beta     109.445
_cell_angle_gamma    109.445

_symmetry_space_group_name_H-M    "P 1"
_symmetry_Int_Tables_number       1

loop_
  _symmetry_equiv_pos_as_xyz
  'x, y, z'

loop_
  _atom_site_type_symbol
  _atom_site_label
  _atom_site_symmetry_multiplicity
  _atom_site_fract_x
  _atom_site_fract_y
  _atom_site_fract_z
  _atom_site_occupancy
  _atom_site_charge
Zn  Zn1       1.0  0.75041  0.14742  0.66727  1.0000 0.7780806829
Zn  Zn2       1.0  0.14742  0.66727  0.75041  1.0000 0.7780806829
Zn  Zn3       1.0  0.66727  0.75041  0.14742  1.0000 0.7780806829
Zn  Zn4       1.0  0.24959  0.85258  0.33273  1.0000 0.7780806829
Zn  Zn5       1.0  0.85258  0.33273  0.24959  1.0000 0.7780806829
Zn  Zn6       1.0  0.33273  0.24959  0.85258  1.0000 0.7780806829
H   H1        1.0  0.76660  0.12180  0.49430  1.0000 0.1178720421
H   H2        1.0  0.12180  0.49430  0.76660  1.0000 0.1178720421
H   H3        1.0  0.49430  0.76660  0.12180  1.0000 0.1178720421
H   H4        1.0  0.23340  0.87820  0.50570  1.0000 0.1178720421
H   H5        1.0  0.87820  0.50570  0.23340  1.0000 0.1178720421
H   H6        1.0  0.50570  0.23340  0.87820  1.0000 0.1178720421
H   H7        1.0  0.68410  0.01660  0.34180  1.0000 0.129725487
H   H8        1.0  0.01660  0.34180  0.68410  1.0000 0.129725487
H   H9        1.0  0.34180  0.68410  0.01660  1.0000 0.129725487
H   H10       1.0  0.31590  0.98340  0.65820  1.0000 0.129725487
H   H11       1.0  0.98340  0.65820  0.31590  1.0000 0.129725487
H   H12       1.0  0.65820  0.31590  0.98340  1.0000 0.129725487
H   H13       1.0  0.54840  0.88860  0.28570  1.0000 0.129725487
H   H14       1.0  0.88860  0.28570  0.54840  1.0000 0.129725487
H   H15       1.0  0.28570  0.54840  0.88860  1.0000 0.129725487
H   H16       1.0  0.45160  0.11140  0.71430  1.0000 0.129725487
H   H17       1.0  0.11140  0.71430  0.45160  1.0000 0.129725487
H   H18       1.0  0.71430  0.45160  0.11140  1.0000 0.129725487
H   H19       1.0  0.49750  0.86930  0.38530  1.0000 0.1364346454
H   H20       1.0  0.86930  0.38530  0.49750  1.0000 0.1364346454
H   H21       1.0  0.38530  0.49750  0.86930  1.0000 0.1364346454
H   H22       1.0  0.50250  0.13070  0.61470  1.0000 0.1364346454
H   H23       1.0  0.13070  0.61470  0.50250  1.0000 0.1364346454
H   H24       1.0  0.61470  0.50250  0.13070  1.0000 0.1364346454
H   H25       1.0  0.42510  0.75690  0.54280  1.0000 0.129725487
H   H26       1.0  0.75690  0.54280  0.42510  1.0000 0.129725487
H   H27       1.0  0.54280  0.42510  0.75690  1.0000 0.129725487
H   H28       1.0  0.57490  0.24310  0.45720  1.0000 0.129725487
H   H29       1.0  0.24310  0.45720  0.57490  1.0000 0.129725487
H   H30       1.0  0.45720  0.57490  0.24310  1.0000 0.129725487
H   H31       1.0  0.32140  0.65680  0.55790  1.0000 0.1178720421
H   H32       1.0  0.65680  0.55790  0.32140  1.0000 0.1178720421
H   H33       1.0  0.55790  0.32140  0.65680  1.0000 0.1178720421
H   H34       1.0  0.67860  0.34320  0.44210  1.0000 0.1178720421
H   H35       1.0  0.34320  0.44210  0.67860  1.0000 0.1178720421
H   H36       1.0  0.44210  0.67860  0.34320  1.0000 0.1178720421
H   H37       1.0  0.38340  0.86150  0.78950  1.0000 0.129725487
H   H38       1.0  0.86150  0.78950  0.38340  1.0000 0.129725487
H   H39       1.0  0.78950  0.38340  0.86150  1.0000 0.129725487
H   H40       1.0  0.61660  0.13850  0.21050  1.0000 0.129725487
H   H41       1.0  0.13850  0.21050  0.61660  1.0000 0.129725487
H   H42       1.0  0.21050  0.61660  0.13850  1.0000 0.129725487
H   H43       1.0  0.48330  0.96340  0.77160  1.0000 0.1144275898
H   H44       1.0  0.96340  0.77160  0.48330  1.0000 0.1144275898
H   H45       1.0  0.77160  0.48330  0.96340  1.0000 0.1144275898
H   H46       1.0  0.51670  0.03660  0.22840  1.0000 0.1144275898
H   H47       1.0  0.03660  0.22840  0.51670  1.0000 0.1144275898
H   H48       1.0  0.22840  0.51670  0.03660  1.0000 0.1144275898
H   H49       1.0  0.68500  0.19260  0.79760  1.0000 0.1178720421
H   H50       1.0  0.19260  0.79760  0.68500  1.0000 0.1178720421
H   H51       1.0  0.79760  0.68500  0.19260  1.0000 0.1178720421
H   H52       1.0  0.31500  0.80740  0.20240  1.0000 0.1178720421
H   H53       1.0  0.80740  0.20240  0.31500  1.0000 0.1178720421
H   H54       1.0  0.20240  0.31500  0.80740  1.0000 0.1178720421
H   H55       1.0  0.76270  0.28820  0.95310  1.0000 0.1144275898
H   H56       1.0  0.28820  0.95310  0.76270  1.0000 0.1144275898
H   H57       1.0  0.95310  0.76270  0.28820  1.0000 0.1144275898
H   H58       1.0  0.23730  0.71180  0.04690  1.0000 0.1144275898
H   H59       1.0  0.71180  0.04690  0.23730  1.0000 0.1144275898
H   H60       1.0  0.04690  0.23730  0.71180  1.0000 0.1144275898
H   H61       1.0  0.72400  0.07470  0.99200  1.0000 0.129725487
H   H62       1.0  0.07470  0.99200  0.72400  1.0000 0.129725487
H   H63       1.0  0.99200  0.72400  0.07470  1.0000 0.129725487
H   H64       1.0  0.27600  0.92530  0.00800  1.0000 0.129725487
H   H65       1.0  0.92530  0.00800  0.27600  1.0000 0.129725487
H   H66       1.0  0.00800  0.27600  0.92530  1.0000 0.129725487
H   H67       1.0  0.64480  0.97750  0.83600  1.0000 0.1178720421
H   H68       1.0  0.97750  0.83600  0.64480  1.0000 0.1178720421
H   H69       1.0  0.83600  0.64480  0.97750  1.0000 0.1178720421
H   H70       1.0  0.35520  0.02250  0.16400  1.0000 0.1178720421
H   H71       1.0  0.02250  0.16400  0.35520  1.0000 0.1178720421
H   H72       1.0  0.16400  0.35520  0.02250  1.0000 0.1144275898
H   H73       1.0  0.46700  0.86230  0.50170  1.0000 0.3133137981
H   H74       1.0  0.86230  0.50170  0.46700  1.0000 0.3133137981
H   H75       1.0  0.50170  0.46700  0.86230  1.0000 0.3133137981
H   H76       1.0  0.53300  0.13770  0.49830  1.0000 0.3133137981
H   H77       1.0  0.13770  0.49830  0.53300  1.0000 0.3133137981
H   H78       1.0  0.49830  0.53300  0.13770  1.0000 0.3133137981
C   C1        1.0  0.71135  0.06990  0.47185  1.0000 0.0912788843
C   C2        1.0  0.06990  0.47185  0.71135  1.0000 0.0912788843
C   C3        1.0  0.47185  0.71135  0.06990  1.0000 0.0912788843
C   C4        1.0  0.28865  0.93010  0.52815  1.0000 0.0912788843
C   C5        1.0  0.93010  0.52815  0.28865  1.0000 0.0912788843
C   C6        1.0  0.52815  0.28865  0.93010  1.0000 0.0912788843
C   C7        1.0  0.66264  0.00760  0.38096  1.0000 -0.1309521636
C   C8        1.0  0.00760  0.38096  0.66264  1.0000 -0.1309521636
C   C9        1.0  0.38096  0.66264  0.00760  1.0000 -0.1309521636
C   C10       1.0  0.33736  0.99240  0.61904  1.0000 -0.1309521636
C   C11       1.0  0.99240  0.61904  0.33736  1.0000 -0.1309521636
C   C12       1.0  0.61904  0.33736  0.99240  1.0000 -0.1309521636
C   C13       1.0  0.58285  0.93240  0.34815  1.0000 -0.0209078978
C   C14       1.0  0.93240  0.34815  0.58285  1.0000 -0.0209078978
C   C15       1.0  0.34815  0.58285  0.93240  1.0000 -0.0209078978
C   C16       1.0  0.41715  0.06760  0.65185  1.0000 -0.0209078978
C   C17       1.0  0.06760  0.65185  0.41715  1.0000 -0.0209078978
C   C18       1.0  0.65185  0.41715  0.06760  1.0000 -0.0209078978
C   C19       1.0  0.55276  0.92060  0.40654  1.0000 -0.1731214514
C   C20       1.0  0.92060  0.40654  0.55276  1.0000 -0.1731214514
C   C21       1.0  0.40654  0.55276  0.92060  1.0000 -0.1731214514
C   C22       1.0  0.44724  0.07940  0.59346  1.0000 -0.1731214514
C   C23       1.0  0.07940  0.59346  0.44724  1.0000 -0.1731214514
C   C24       1.0  0.59346  0.44724  0.07940  1.0000 -0.1731214514
C   C25       1.0  0.60583  0.98606  0.49681  1.0000 0.129725487
C   C26       1.0  0.98606  0.49681  0.60583  1.0000 0.129725487
C   C27       1.0  0.49681  0.60583  0.98606  1.0000 0.129725487
C   C28       1.0  0.39417  0.01394  0.50319  1.0000 0.129725487
C   C29       1.0  0.01394  0.50319  0.39417  1.0000 0.129725487
C   C30       1.0  0.50319  0.39417  0.01394  1.0000 0.129725487
C   C31       1.0  0.58678  0.98117  0.56761  1.0000 0.2659208337
C   C32       1.0  0.98117  0.56761  0.58678  1.0000 0.2659208337
C   C33       1.0  0.56761  0.58678  0.98117  1.0000 0.2659208337
C   C34       1.0  0.41322  0.01883  0.43239  1.0000 0.2659208337
C   C35       1.0  0.01883  0.43239  0.41322  1.0000 0.2659208337
C   C36       1.0  0.43239  0.41322  0.01883  1.0000 0.2659208337
C   C37       1.0  0.60779  0.01797  0.70204  1.0000 0.0912788843
C   C38       1.0  0.01797  0.70204  0.60779  1.0000 0.0912788843
C   C39       1.0  0.70204  0.60779  0.01797  1.0000 0.0912788843
C   C40       1.0  0.39221  0.98203  0.29796  1.0000 0.0912788843
C   C41       1.0  0.98203  0.29796  0.39221  1.0000 0.0912788843
C   C42       1.0  0.29796  0.39221  0.98203  1.0000 0.0912788843
C   C43       1.0  0.53043  0.93402  0.64399  1.0000 0.0693468535
C   C44       1.0  0.93402  0.64399  0.53043  1.0000 0.0693468535
C   C45       1.0  0.64399  0.53043  0.93402  1.0000 0.0693468535
C   C46       1.0  0.46957  0.06598  0.35601  1.0000 0.0693468535
C   C47       1.0  0.06598  0.35601  0.46957  1.0000 0.0693468535
C   C48       1.0  0.35601  0.46957  0.06598  1.0000 0.0693468535
C   C49       1.0  0.46607  0.87131  0.65592  1.0000 0.0589980735
C   C50       1.0  0.87131  0.65592  0.46607  1.0000 0.0589980735
C   C51       1.0  0.65592  0.46607  0.87131  1.0000 0.0589980735
C   C52       1.0  0.53393  0.12869  0.34408  1.0000 0.0589980735
C   C53       1.0  0.12869  0.34408  0.53393  1.0000 0.0589980735
C   C54       1.0  0.34408  0.53393  0.12869  1.0000 0.0589980735
C   C55       1.0  0.41625  0.77861  0.59264  1.0000 -0.1420153792
C   C56       1.0  0.77861  0.59264  0.41625  1.0000 -0.1420153792
C   C57       1.0  0.59264  0.41625  0.77861  1.0000 -0.1420153792
C   C58       1.0  0.58375  0.22139  0.40736  1.0000 -0.1420153792
C   C59       1.0  0.22139  0.40736  0.58375  1.0000 -0.1420153792
C   C60       1.0  0.40736  0.58375  0.22139  1.0000 -0.1420153792
C   C61       1.0  0.35485  0.71914  0.60191  1.0000 -0.0995589128
C   C62       1.0  0.71914  0.60191  0.35485  1.0000 -0.0995589128
C   C63       1.0  0.60191  0.35485  0.71914  1.0000 -0.0995589128
C   C64       1.0  0.64515  0.28086  0.39809  1.0000 -0.0995589128
C   C65       1.0  0.28086  0.39809  0.64515  1.0000 -0.0995589128
C   C66       1.0  0.39809  0.64515  0.28086  1.0000 -0.0995589128
C   C67       1.0  0.34055  0.74820  0.67439  1.0000 -0.040816375
C   C68       1.0  0.74820  0.67439  0.34055  1.0000 -0.040816375
C   C69       1.0  0.67439  0.34055  0.74820  1.0000 -0.040816375
C   C70       1.0  0.65945  0.25180  0.32561  1.0000 -0.040816375
C   C71       1.0  0.25180  0.32561  0.65945  1.0000 -0.040816375
C   C72       1.0  0.32561  0.65945  0.25180  1.0000 -0.040816375
C   C73       1.0  0.39097  0.84041  0.73852  1.0000 -0.0995589128
C   C74       1.0  0.84041  0.73852  0.39097  1.0000 -0.0995589128
C   C75       1.0  0.73852  0.39097  0.84041  1.0000 -0.0995589128
C   C76       1.0  0.60903  0.15959  0.26148  1.0000 -0.0995589128
C   C77       1.0  0.15959  0.26148  0.60903  1.0000 -0.0995589128
C   C78       1.0  0.26148  0.60903  0.15959  1.0000 -0.0995589128
C   C79       1.0  0.45135  0.90090  0.72865  1.0000 -0.1528326345
C   C80       1.0  0.90090  0.72865  0.45135  1.0000 -0.1551253041
C   C81       1.0  0.72865  0.45135  0.90090  1.0000 -0.1528326345
C   C82       1.0  0.54865  0.09910  0.27135  1.0000 -0.1528326345
C   C83       1.0  0.09910  0.27135  0.54865  1.0000 -0.1528326345
C   C84       1.0  0.27135  0.54865  0.09910  1.0000 -0.1528326345
C   C85       1.0  0.27036  0.68294  0.68123  1.0000 0.5573328743
C   C86       1.0  0.68294  0.68123  0.27036  1.0000 0.5573328743
C   C87       1.0  0.68123  0.27036  0.68294  1.0000 0.5573328743
C   C88       1.0  0.72964  0.31706  0.31877  1.0000 0.5573328743
C   C89       1.0  0.31706  0.31877  0.72964  1.0000 0.5573328743
C   C90       1.0  0.31877  0.72964  0.31706  1.0000 0.5573328743
C   C91       1.0  0.65581  0.07542  0.80096  1.0000 0.0693468535
C   C92       1.0  0.07542  0.80096  0.65581  1.0000 0.0693468535
C   C93       1.0  0.80096  0.65581  0.07542  1.0000 0.0693468535
C   C94       1.0  0.34419  0.92458  0.19904  1.0000 0.0693468535
C   C95       1.0  0.92458  0.19904  0.34419  1.0000 0.0693468535
C   C96       1.0  0.19904  0.34419  0.92458  1.0000 0.0693468535
C   C97       1.0  0.69196  0.16814  0.83670  1.0000 -0.1420153792
C   C98       1.0  0.16814  0.83670  0.69196  1.0000 -0.1420153792
C   C99       1.0  0.83670  0.69196  0.16814  1.0000 -0.1420153792
C   C100      1.0  0.30804  0.83186  0.16330  1.0000 -0.1420153792
C   C101      1.0  0.83186  0.16330  0.30804  1.0000 -0.1420153792
C   C102      1.0  0.16330  0.30804  0.83186  1.0000 -0.1420153792
C   C103      1.0  0.73812  0.22500  0.92928  1.0000 -0.1054089134
C   C104      1.0  0.22500  0.92928  0.73812  1.0000 -0.1054089134
C   C105      1.0  0.92928  0.73812  0.22500  1.0000 -0.0995589128
C   C106      1.0  0.26188  0.77500  0.07072  1.0000 -0.0995589128
C   C107      1.0  0.77500  0.07072  0.26188  1.0000 -0.1054089134
C   C108      1.0  0.07072  0.26188  0.77500  1.0000 -0.1054089134
C   C109      1.0  0.74877  0.19093  0.98690  1.0000 -0.0121549279
C   C110      1.0  0.19093  0.98690  0.74877  1.0000 -0.0121549279
C   C111      1.0  0.98690  0.74877  0.19093  1.0000 -0.0121549279
C   C112      1.0  0.25123  0.80907  0.01310  1.0000 -0.0121549279
C   C113      1.0  0.80907  0.01310  0.25123  1.0000 -0.0121549279
C   C114      1.0  0.01310  0.25123  0.80907  1.0000 -0.0121549279
C   C115      1.0  0.71500  0.09830  0.95220  1.0000 -0.0995589128
C   C116      1.0  0.09830  0.95220  0.71500  1.0000 -0.0995589128
C   C117      1.0  0.95220  0.71500  0.09830  1.0000 -0.0995589128
C   C118      1.0  0.28500  0.90170  0.04780  1.0000 -0.0995589128
C   C119      1.0  0.90170  0.04780  0.28500  1.0000 -0.0995589128
C   C120      1.0  0.04780  0.28500  0.90170  1.0000 -0.0995589128
C   C121      1.0  0.66823  0.04060  0.85957  1.0000 -0.1528326345
C   C122      1.0  0.04060  0.85957  0.66823  1.0000 -0.1528326345
C   C123      1.0  0.85957  0.66823  0.04060  1.0000 -0.1528326345
C   C124      1.0  0.33177  0.95940  0.14043  1.0000 -0.1528326345
C   C125      1.0  0.95940  0.14043  0.33177  1.0000 -0.1528326345
C   C126      1.0  0.14043  0.33177  0.95940  1.0000 -0.1528326345
C   C127      1.0  0.79398  0.25312  0.08650  1.0000 0.5476687858
C   C128      1.0  0.25312  0.08650  0.79398  1.0000 0.5476687858
C   C129      1.0  0.08650  0.79398  0.25312  1.0000 0.5476687858
C   C130      1.0  0.20602  0.74688  0.91350  1.0000 0.5476687858
C   C131      1.0  0.74688  0.91350  0.20602  1.0000 0.5476687858
C   C132      1.0  0.91350  0.20602  0.74688  1.0000 0.5476687858
N   N1        1.0  0.68380  0.06037  0.52960  1.0000 -0.2652381649
N   N2        1.0  0.06037  0.52960  0.68380  1.0000 -0.2646055808
N   N3        1.0  0.52960  0.68380  0.06037  1.0000 -0.2652381649
N   N4        1.0  0.31620  0.93963  0.47040  1.0000 -0.2646055808
N   N5        1.0  0.93963  0.47040  0.31620  1.0000 -0.2646055808
N   N6        1.0  0.47040  0.31620  0.93963  1.0000 -0.2646055808
N   N7        1.0  0.64147  0.04539  0.65291  1.0000 -0.3696591795
N   N8        1.0  0.04539  0.65291  0.64147  1.0000 -0.3696591795
N   N9        1.0  0.65291  0.64147  0.04539  1.0000 -0.3696591795
N   N10       1.0  0.35853  0.95461  0.34709  1.0000 -0.3696591795
N   N11       1.0  0.95461  0.34709  0.35853  1.0000 -0.3696591795
N   N12       1.0  0.34709  0.35853  0.95461  1.0000 -0.3696591795
N   N13       1.0  0.51905  0.91280  0.55890  1.0000 -0.2855843296
N   N14       1.0  0.91280  0.55890  0.51905  1.0000 -0.2848868957
N   N15       1.0  0.55890  0.51905  0.91280  1.0000 -0.2855843296
N   N16       1.0  0.48095  0.08720  0.44110  1.0000 -0.2855843296
N   N17       1.0  0.08720  0.44110  0.48095  1.0000 -0.2855843296
N   N18       1.0  0.44110  0.48095  0.08720  1.0000 -0.2855843296
O   O1        1.0  0.25904  0.71655  0.74810  1.0000 -0.5313416114
O   O2        1.0  0.71655  0.74810  0.25904  1.0000 -0.5313416114
O   O3        1.0  0.74810  0.25904  0.71655  1.0000 -0.5313416114
O   O4        1.0  0.74096  0.28345  0.25190  1.0000 -0.5313416114
O   O5        1.0  0.28345  0.25190  0.74096  1.0000 -0.5313416114
O   O6        1.0  0.25190  0.74096  0.28345  1.0000 -0.5313416114
O   O7        1.0  0.22565  0.60209  0.62205  1.0000 -0.5727540245
O   O8        1.0  0.60209  0.62205  0.22565  1.0000 -0.5727540245
O   O9        1.0  0.62205  0.22565  0.60209  1.0000 -0.5727540245
O   O10       1.0  0.77435  0.39791  0.37795  1.0000 -0.5727540245
O   O11       1.0  0.39791  0.37795  0.77435  1.0000 -0.5727540245
O   O12       1.0  0.37795  0.77435  0.39791  1.0000 -0.5727540245
O   O13       1.0  0.79884  0.32856  0.11543  1.0000 -0.5497816394
O   O14       1.0  0.32856  0.11543  0.79884  1.0000 -0.5497816394
O   O15       1.0  0.11543  0.79884  0.32856  1.0000 -0.5497816394
O   O16       1.0  0.20116  0.67144  0.88457  1.0000 -0.5497816394
O   O17       1.0  0.67144  0.88457  0.20116  1.0000 -0.5497816394
O   O18       1.0  0.88457  0.20116  0.67144  1.0000 -0.5497816394
O   O19       1.0  0.82434  0.22634  0.13929  1.0000 -0.51313577
O   O20       1.0  0.22634  0.13929  0.82434  1.0000 -0.51313577
O   O21       1.0  0.13929  0.82434  0.22634  1.0000 -0.51313577
O   O22       1.0  0.17566  0.77366  0.86071  1.0000 -0.51313577
O   O23       1.0  0.77366  0.86071  0.17566  1.0000 -0.51313577
O   O24       1.0  0.86071  0.17566  0.77366  1.0000 -0.51313577
