# DDEC6 charges by PACMAN v1.1 (https://github.com/mtap-research/PACMAN-charge/)
data_2015[Zn][crb]3[ASR]1
_chemical_formula_sum              "Zn4 H36 C60 N20 O16"
_cell_length_a       9.8187
_cell_length_b       17.6398
_cell_length_c       14.5205
_cell_angle_alpha    90
_cell_angle_beta     124.507
_cell_angle_gamma    90

_symmetry_space_group_name_H-M    "P 1"
_symmetry_Int_Tables_number       1

loop_
  _symmetry_equiv_pos_as_xyz
  'x, y, z'

loop_
  _atom_site_type_symbol
  _atom_site_label
  _atom_site_symmetry_multiplicity
  _atom_site_fract_x
  _atom_site_fract_y
  _atom_site_fract_z
  _atom_site_occupancy
  _atom_site_charge
Zn  Zn1       1.0  0.10768  0.54668  0.65640  1.0000 0.7487823651
Zn  Zn2       1.0  0.89232  0.04668  0.84360  1.0000 0.7487823651
Zn  Zn3       1.0  0.89232  0.45332  0.34360  1.0000 0.7487823651
Zn  Zn4       1.0  0.10768  0.95332  0.15640  1.0000 0.7487823651
H   H1        1.0  0.42360  0.06130  0.83410  1.0000 0.148254924
H   H2        1.0  0.57640  0.56130  0.66590  1.0000 0.148254924
H   H3        1.0  0.57640  0.93870  0.16590  1.0000 0.148254924
H   H4        1.0  0.42360  0.43870  0.33410  1.0000 0.148254924
H   H5        1.0  0.04910  0.21430  0.70300  1.0000 0.1423287154
H   H6        1.0  0.95090  0.71430  0.79700  1.0000 0.1423287154
H   H7        1.0  0.95090  0.78570  0.29700  1.0000 0.1423287154
H   H8        1.0  0.04910  0.28570  0.20300  1.0000 0.1423287154
H   H9        1.0  0.44540  0.25530  0.69200  1.0000 0.1423287154
H   H10       1.0  0.55460  0.75530  0.80800  1.0000 0.1423287154
H   H11       1.0  0.55460  0.74470  0.30800  1.0000 0.1423287154
H   H12       1.0  0.44540  0.24470  0.19200  1.0000 0.1423287154
H   H13       1.0  0.16190  0.26190  0.44550  1.0000 0.157280091
H   H14       1.0  0.83810  0.76190  0.05450  1.0000 0.157280091
H   H15       1.0  0.83810  0.73810  0.55450  1.0000 0.157280091
H   H16       1.0  0.16190  0.23810  0.94550  1.0000 0.157280091
H   H17       1.0  0.03630  0.21860  0.46440  1.0000 0.157280091
H   H18       1.0  0.96370  0.71860  0.03560  1.0000 0.157280091
H   H19       1.0  0.96370  0.78140  0.53560  1.0000 0.157280091
H   H20       1.0  0.03630  0.28140  0.96440  1.0000 0.157280091
H   H21       1.0  0.96840  0.28050  0.36720  1.0000 0.1852243193
H   H22       1.0  0.03160  0.78050  0.13280  1.0000 0.1852243193
H   H23       1.0  0.03160  0.71950  0.63280  1.0000 0.1852243193
H   H24       1.0  0.96840  0.21950  0.86720  1.0000 0.1852243193
H   H25       1.0  0.41500  0.33760  0.03760  1.0000 0.1084355586
H   H26       1.0  0.58500  0.83760  0.46240  1.0000 0.1084355586
H   H27       1.0  0.58500  0.66240  0.96240  1.0000 0.1084355586
H   H28       1.0  0.41500  0.16240  0.53760  1.0000 0.1084355586
H   H29       1.0  0.37410  0.46150  0.07360  1.0000 0.148254924
H   H30       1.0  0.62590  0.96150  0.42640  1.0000 0.148254924
H   H31       1.0  0.62590  0.53850  0.92640  1.0000 0.148254924
H   H32       1.0  0.37410  0.03850  0.57360  1.0000 0.148254924
H   H33       1.0  0.25660  0.54890  0.92610  1.0000 0.1246181936
H   H34       1.0  0.74340  0.04890  0.57390  1.0000 0.1246181936
H   H35       1.0  0.74340  0.45110  0.07390  1.0000 0.1246181936
H   H36       1.0  0.25660  0.95110  0.42610  1.0000 0.1246181936
C   C1        1.0  0.13840  0.08330  0.81420  1.0000 0.5410432056
C   C2        1.0  0.86160  0.58330  0.68580  1.0000 0.5410432056
C   C3        1.0  0.86160  0.91670  0.18580  1.0000 0.5410432056
C   C4        1.0  0.13840  0.41670  0.31420  1.0000 0.5410432056
C   C5        1.0  0.61770  0.12940  0.78240  1.0000 0.5410432056
C   C6        1.0  0.38230  0.62940  0.71760  1.0000 0.5410432056
C   C7        1.0  0.38230  0.87060  0.21760  1.0000 0.5410432056
C   C8        1.0  0.61770  0.37060  0.28240  1.0000 0.5410432056
C   C9        1.0  0.37600  0.10810  0.79720  1.0000 -0.1224999331
C   C10       1.0  0.62400  0.60810  0.70280  1.0000 -0.1224999331
C   C11       1.0  0.62400  0.89190  0.20280  1.0000 -0.1224999331
C   C12       1.0  0.37600  0.39190  0.29720  1.0000 -0.1224999331
C   C13       1.0  0.22520  0.13080  0.77590  1.0000 0.014088822
C   C14       1.0  0.77480  0.63080  0.72410  1.0000 0.014088822
C   C15       1.0  0.77480  0.86920  0.22410  1.0000 0.014088822
C   C16       1.0  0.22520  0.36920  0.27590  1.0000 0.014088822
C   C17       1.0  0.45750  0.15350  0.76450  1.0000 0.0032980101
C   C18       1.0  0.54250  0.65350  0.73550  1.0000 0.0032980101
C   C19       1.0  0.54250  0.84650  0.23550  1.0000 0.0032980101
C   C20       1.0  0.45750  0.34650  0.26450  1.0000 0.0032980101
C   C21       1.0  0.15410  0.19910  0.72040  1.0000 -0.1835249975
C   C22       1.0  0.84590  0.69910  0.77960  1.0000 -0.1835249975
C   C23       1.0  0.84590  0.80090  0.27960  1.0000 -0.1835249975
C   C24       1.0  0.15410  0.30090  0.22040  1.0000 -0.1835249975
C   C25       1.0  0.38930  0.22300  0.71250  1.0000 -0.19919786
C   C26       1.0  0.61070  0.72300  0.78750  1.0000 -0.19919786
C   C27       1.0  0.61070  0.77700  0.28750  1.0000 -0.19919786
C   C28       1.0  0.38930  0.27700  0.21250  1.0000 -0.19919786
C   C29       1.0  0.23860  0.24390  0.69140  1.0000 0.157280091
C   C30       1.0  0.76140  0.74390  0.80860  1.0000 0.157280091
C   C31       1.0  0.76140  0.75610  0.30860  1.0000 0.157280091
C   C32       1.0  0.23860  0.25610  0.19140  1.0000 0.157280091
C   C33       1.0  0.06050  0.26690  0.44310  1.0000 -0.5294234692
C   C34       1.0  0.93950  0.76690  0.05690  1.0000 -0.5294234692
C   C35       1.0  0.93950  0.73310  0.55690  1.0000 -0.5294234692
C   C36       1.0  0.06050  0.23310  0.94310  1.0000 -0.5294234692
C   C37       1.0  0.08310  0.32700  0.52210  1.0000 0.3765494437
C   C38       1.0  0.91690  0.82700  0.97790  1.0000 0.3765494437
C   C39       1.0  0.91690  0.67300  0.47790  1.0000 0.3765494437
C   C40       1.0  0.08310  0.17300  0.02210  1.0000 0.3765494437
C   C41       1.0  0.16470  0.38270  0.67930  1.0000 0.1852243193
C   C42       1.0  0.83530  0.88270  0.82070  1.0000 0.1852243193
C   C43       1.0  0.83530  0.61730  0.32070  1.0000 0.1852243193
C   C44       1.0  0.16470  0.11730  0.17930  1.0000 0.1852243193
C   C45       1.0  0.23770  0.40250  0.79650  1.0000 0.2877373085
C   C46       1.0  0.76230  0.90250  0.70350  1.0000 0.2877373085
C   C47       1.0  0.76230  0.59750  0.20350  1.0000 0.2877373085
C   C48       1.0  0.23770  0.09750  0.29650  1.0000 0.2877373085
C   C49       1.0  0.36080  0.37300  0.97790  1.0000 0.1084355586
C   C50       1.0  0.63920  0.87300  0.52210  1.0000 0.1084355586
C   C51       1.0  0.63920  0.62700  0.02210  1.0000 0.1084355586
C   C52       1.0  0.36080  0.12700  0.47790  1.0000 0.1084355586
C   C53       1.0  0.34080  0.44650  0.00080  1.0000 -0.1871610447
C   C54       1.0  0.65920  0.94650  0.49920  1.0000 -0.1871610447
C   C55       1.0  0.65920  0.55350  0.99920  1.0000 -0.1871610447
C   C56       1.0  0.34080  0.05350  0.50080  1.0000 -0.1871610447
C   C57       1.0  0.27030  0.49750  0.91310  1.0000 0.1275482164
C   C58       1.0  0.72970  0.99750  0.58690  1.0000 0.1275482164
C   C59       1.0  0.72970  0.50250  0.08690  1.0000 0.1275482164
C   C60       1.0  0.27030  0.00250  0.41310  1.0000 0.1275482164
N   N1        1.0  0.16630  0.31504  0.63520  1.0000 -0.0789870485
N   N2        1.0  0.83370  0.81504  0.86480  1.0000 -0.0789870485
N   N3        1.0  0.83370  0.68496  0.36480  1.0000 -0.0789870485
N   N4        1.0  0.16630  0.18496  0.13520  1.0000 -0.0789870485
N   N5        1.0  0.03380  0.39778  0.49960  1.0000 -0.19919786
N   N6        1.0  0.96620  0.89778  0.00040  1.0000 -0.19919786
N   N7        1.0  0.96620  0.60222  0.50040  1.0000 -0.19919786
N   N8        1.0  0.03380  0.10222  0.99960  1.0000 -0.19919786
N   N9        1.0  0.08510  0.43318  0.59920  1.0000 -0.19919786
N   N10       1.0  0.91490  0.93318  0.90080  1.0000 -0.19919786
N   N11       1.0  0.91490  0.56682  0.40080  1.0000 -0.19919786
N   N12       1.0  0.08510  0.06682  0.09920  1.0000 -0.19919786
N   N13       1.0  0.22100  0.47612  0.81040  1.0000 -0.2736495152
N   N14       1.0  0.77900  0.97612  0.68960  1.0000 -0.2736495152
N   N15       1.0  0.77900  0.52388  0.18960  1.0000 -0.2736495152
N   N16       1.0  0.22100  0.02388  0.31040  1.0000 -0.2736495152
N   N17       1.0  0.30640  0.34950  0.87450  1.0000 -0.2986590504
N   N18       1.0  0.69360  0.84950  0.62550  1.0000 -0.2986590504
N   N19       1.0  0.69360  0.65050  0.12550  1.0000 -0.2986590504
N   N20       1.0  0.30640  0.15050  0.37450  1.0000 -0.2986590504
O   O1        1.0  0.21290  0.02942  0.87950  1.0000 -0.5456329897
O   O2        1.0  0.78710  0.52942  0.62050  1.0000 -0.5456329897
O   O3        1.0  0.78710  0.97058  0.12050  1.0000 -0.5456329897
O   O4        1.0  0.21290  0.47058  0.37950  1.0000 -0.5456329897
O   O5        1.0  0.99330  0.10366  0.77900  1.0000 -0.5377355679
O   O6        1.0  0.00670  0.60366  0.72100  1.0000 -0.5377355679
O   O7        1.0  0.00670  0.89634  0.22100  1.0000 -0.5377355679
O   O8        1.0  0.99330  0.39634  0.27900  1.0000 -0.5377355679
O   O9        1.0  0.66950  0.06312  0.81860  1.0000 -0.5294234692
O   O10       1.0  0.33050  0.56312  0.68140  1.0000 -0.5294234692
O   O11       1.0  0.33050  0.93688  0.18140  1.0000 -0.5294234692
O   O12       1.0  0.66950  0.43688  0.31860  1.0000 -0.5294234692
O   O13       1.0  0.69060  0.17290  0.75830  1.0000 -0.520745413
O   O14       1.0  0.30940  0.67290  0.74170  1.0000 -0.520745413
O   O15       1.0  0.30940  0.82710  0.24170  1.0000 -0.520745413
O   O16       1.0  0.69060  0.32710  0.25830  1.0000 -0.520745413
