# DDEC6 charges by PACMAN v1.1 (https://github.com/mtap-research/PACMAN-charge/)
data_2015[Cd][nan]3[ASR]32
_chemical_formula_sum              "Cd4 H28 C36 N16 O8"
_cell_length_a       18.8603
_cell_length_b       18.8603
_cell_length_c       10.995
_cell_angle_alpha    74.3851
_cell_angle_beta     105.615
_cell_angle_gamma    149.786

_symmetry_space_group_name_H-M    "P 1"
_symmetry_Int_Tables_number       1

loop_
  _symmetry_equiv_pos_as_xyz
  'x, y, z'

loop_
  _atom_site_type_symbol
  _atom_site_label
  _atom_site_symmetry_multiplicity
  _atom_site_fract_x
  _atom_site_fract_y
  _atom_site_fract_z
  _atom_site_occupancy
  _atom_site_charge
Cd  Cd1       1.0  0.12152  0.54202  0.63340  1.0000 0.7781901838
Cd  Cd2       1.0  0.54202  0.12152  0.86660  1.0000 0.7781901838
Cd  Cd3       1.0  0.87848  0.45798  0.36660  1.0000 0.7781901838
Cd  Cd4       1.0  0.45798  0.87848  0.13340  1.0000 0.7781901838
H   H1        1.0  0.30760  0.36740  0.07700  1.0000 0.109110299
H   H2        1.0  0.36740  0.30760  0.42300  1.0000 0.109110299
H   H3        1.0  0.69240  0.63260  0.92300  1.0000 0.109110299
H   H4        1.0  0.63260  0.69240  0.57700  1.0000 0.109110299
H   H5        1.0  0.20470  0.38890  0.97280  1.0000 0.1231169621
H   H6        1.0  0.38890  0.20470  0.52720  1.0000 0.1231169621
H   H7        1.0  0.79530  0.61110  0.02720  1.0000 0.1231169621
H   H8        1.0  0.61110  0.79530  0.47280  1.0000 0.1231169621
H   H9        1.0  0.49450  0.67170  0.72200  1.0000 0.1231169621
H   H10       1.0  0.67170  0.49450  0.77800  1.0000 0.1231169621
H   H11       1.0  0.50550  0.32830  0.27800  1.0000 0.1231169621
H   H12       1.0  0.32830  0.50550  0.22200  1.0000 0.1231169621
H   H13       1.0  0.59890  0.65150  0.83030  1.0000 0.109110299
H   H14       1.0  0.65150  0.59890  0.66970  1.0000 0.109110299
H   H15       1.0  0.40110  0.34850  0.16970  1.0000 0.109110299
H   H16       1.0  0.34850  0.40110  0.33030  1.0000 0.109110299
H   H17       1.0  0.12370  0.65810  0.16020  1.0000 0.109110299
H   H18       1.0  0.65810  0.12370  0.33980  1.0000 0.109110299
H   H19       1.0  0.87630  0.34190  0.83980  1.0000 0.109110299
H   H20       1.0  0.34190  0.87630  0.66020  1.0000 0.109110299
H   H21       1.0  0.43880  0.82720  0.54530  1.0000 0.3159516486
H   H22       1.0  0.82720  0.43880  0.95470  1.0000 0.3146793875
H   H23       1.0  0.56120  0.17280  0.45470  1.0000 0.3159516486
H   H24       1.0  0.17280  0.56120  0.04530  1.0000 0.3159516486
H   H25       1.0  0.50790  0.89130  0.42610  1.0000 0.2988612684
H   H26       1.0  0.89130  0.50790  0.07390  1.0000 0.2988612684
H   H27       1.0  0.49210  0.10870  0.57390  1.0000 0.2988612684
H   H28       1.0  0.10870  0.49210  0.92610  1.0000 0.2988612684
C   C1        1.0  0.46430  0.50550  0.96440  1.0000 0.0805954928
C   C2        1.0  0.50550  0.46430  0.53560  1.0000 0.0805954928
C   C3        1.0  0.53570  0.49450  0.03560  1.0000 0.0805954928
C   C4        1.0  0.49450  0.53570  0.46440  1.0000 0.0805954928
C   C5        1.0  0.26813  0.54327  0.76500  1.0000 0.5433796975
C   C6        1.0  0.54327  0.26813  0.73500  1.0000 0.5433796975
C   C7        1.0  0.73187  0.45673  0.23500  1.0000 0.5433796975
C   C8        1.0  0.45673  0.73187  0.26500  1.0000 0.5433796975
C   C9        1.0  0.34030  0.53530  0.83620  1.0000 -0.0266005774
C   C10       1.0  0.53530  0.34030  0.66380  1.0000 -0.0266005774
C   C11       1.0  0.65970  0.46470  0.16380  1.0000 -0.0266005774
C   C12       1.0  0.46470  0.65970  0.33620  1.0000 -0.0266005774
C   C13       1.0  0.34660  0.42960  0.00510  1.0000 -0.1544311946
C   C14       1.0  0.42960  0.34660  0.49490  1.0000 -0.1544311946
C   C15       1.0  0.65340  0.57040  0.99490  1.0000 -0.1544311946
C   C16       1.0  0.57040  0.65340  0.50510  1.0000 -0.1544311946
C   C17       1.0  0.28510  0.44290  0.94300  1.0000 -0.0947676492
C   C18       1.0  0.44290  0.28510  0.55700  1.0000 -0.0947676492
C   C19       1.0  0.71490  0.55710  0.05700  1.0000 -0.0947676492
C   C20       1.0  0.55710  0.71490  0.44300  1.0000 -0.0947676492
C   C21       1.0  0.45620  0.61040  0.79460  1.0000 -0.0947676492
C   C22       1.0  0.61040  0.45620  0.70540  1.0000 -0.0947676492
C   C23       1.0  0.54380  0.38960  0.20540  1.0000 -0.0947676492
C   C24       1.0  0.38960  0.54380  0.29460  1.0000 -0.0947676492
C   C25       1.0  0.51770  0.59650  0.85930  1.0000 -0.1594993887
C   C26       1.0  0.59650  0.51770  0.64070  1.0000 -0.1594993887
C   C27       1.0  0.48230  0.40350  0.14070  1.0000 -0.1594993887
C   C28       1.0  0.40350  0.48230  0.35930  1.0000 -0.1594993887
C   C29       1.0  0.31227  0.75693  0.39480  1.0000 0.4872086528
C   C30       1.0  0.75693  0.31227  0.10520  1.0000 0.4872086528
C   C31       1.0  0.68773  0.24307  0.60520  1.0000 0.4872086528
C   C32       1.0  0.24307  0.68773  0.89480  1.0000 0.4872086528
C   C33       1.0  0.16561  0.67639  0.24190  1.0000 0.1416274863
C   C34       1.0  0.67639  0.16561  0.25810  1.0000 0.1416274863
C   C35       1.0  0.83439  0.32361  0.75810  1.0000 0.1416274863
C   C36       1.0  0.32361  0.83439  0.74190  1.0000 0.1416274863
N   N1        1.0  0.19550  0.66790  0.44450  1.0000 -0.3313100753
N   N2        1.0  0.66790  0.19550  0.05550  1.0000 -0.3313100753
N   N3        1.0  0.80450  0.33210  0.55550  1.0000 -0.3313100753
N   N4        1.0  0.33210  0.80450  0.94450  1.0000 -0.3313100753
N   N5        1.0  0.30085  0.76795  0.26780  1.0000 -0.4419688476
N   N6        1.0  0.76795  0.30085  0.23220  1.0000 -0.4419688476
N   N7        1.0  0.69915  0.23205  0.73220  1.0000 -0.4419688476
N   N8        1.0  0.23205  0.69915  0.76780  1.0000 -0.4419688476
N   N9        1.0  0.10066  0.61694  0.34300  1.0000 -0.2302312558
N   N10       1.0  0.61694  0.10066  0.15700  1.0000 -0.2302312558
N   N11       1.0  0.89934  0.38306  0.65700  1.0000 -0.2302312558
N   N12       1.0  0.38306  0.89934  0.84300  1.0000 -0.2302312558
N   N13       1.0  0.43480  0.83480  0.46390  1.0000 -0.6383310822
N   N14       1.0  0.83480  0.43480  0.03610  1.0000 -0.6383310822
N   N15       1.0  0.56520  0.16520  0.53610  1.0000 -0.6383310822
N   N16       1.0  0.16520  0.56520  0.96390  1.0000 -0.6383310822
O   O1        1.0  0.14936  0.45604  0.79660  1.0000 -0.5347709177
O   O2        1.0  0.45604  0.14936  0.70340  1.0000 -0.5347709177
O   O3        1.0  0.85064  0.54396  0.20340  1.0000 -0.5347709177
O   O4        1.0  0.54396  0.85064  0.29660  1.0000 -0.5347709177
O   O5        1.0  0.32308  0.63112  0.67650  1.0000 -0.5123825488
O   O6        1.0  0.63112  0.32308  0.82350  1.0000 -0.5123825488
O   O7        1.0  0.67692  0.36888  0.32350  1.0000 -0.5123825488
O   O8        1.0  0.36888  0.67692  0.17650  1.0000 -0.5123825488
