# DDEC6 charges by PACMAN v1.1 (https://github.com/mtap-research/PACMAN-charge/)
data_2015[Co][sit]3[ASR]1
_chemical_formula_sum              "Co4 H40 C68 N12 O16"
_cell_length_a       14.8711
_cell_length_b       14.8711
_cell_length_c       11.6844
_cell_angle_alpha    72.7799
_cell_angle_beta     107.22
_cell_angle_gamma    83.7854

_symmetry_space_group_name_H-M    "P 1"
_symmetry_Int_Tables_number       1

loop_
  _symmetry_equiv_pos_as_xyz
  'x, y, z'

loop_
  _atom_site_type_symbol
  _atom_site_label
  _atom_site_symmetry_multiplicity
  _atom_site_fract_x
  _atom_site_fract_y
  _atom_site_fract_z
  _atom_site_occupancy
  _atom_site_charge
Co  Co1       1.0  0.18994  0.56416  0.61349  1.0000 0.7932125603
Co  Co2       1.0  0.43584  0.81006  0.61349  1.0000 0.7932125603
Co  Co3       1.0  0.56416  0.18994  0.38651  1.0000 0.7932125603
Co  Co4       1.0  0.81006  0.43584  0.38651  1.0000 0.7932125603
H   H1        1.0  0.61650  0.85510  0.54340  1.0000 0.1102970149
H   H2        1.0  0.14490  0.38350  0.54340  1.0000 0.1102970149
H   H3        1.0  0.77940  0.79920  0.62060  1.0000 0.1385441149
H   H4        1.0  0.20080  0.22060  0.62060  1.0000 0.1385441149
H   H5        1.0  0.75420  0.62760  0.94160  1.0000 0.1385441149
H   H6        1.0  0.37240  0.24580  0.94160  1.0000 0.1385441149
H   H7        1.0  0.59080  0.68540  0.85140  1.0000 0.1195748075
H   H8        1.0  0.31460  0.40920  0.85140  1.0000 0.1195748075
H   H9        1.0  0.91330  0.66210  0.68410  1.0000 0.1298768197
H   H10       1.0  0.33790  0.08670  0.68410  1.0000 0.1195748075
H   H11       1.0  0.15080  0.57140  0.99750  1.0000 0.1298768197
H   H12       1.0  0.42860  0.84920  0.99750  1.0000 0.1298768197
H   H13       1.0  0.25860  0.51240  0.41340  1.0000 0.1102970149
H   H14       1.0  0.48760  0.74140  0.41340  1.0000 0.1102970149
H   H15       1.0  0.20300  0.53160  0.20190  1.0000 0.1298768197
H   H16       1.0  0.46840  0.79700  0.20190  1.0000 0.1298768197
H   H17       1.0  0.94760  0.66560  0.17760  1.0000 0.1385441149
H   H18       1.0  0.33440  0.05240  0.17760  1.0000 0.1385441149
H   H19       1.0  0.01050  0.64350  0.38900  1.0000 0.1102970149
H   H20       1.0  0.35650  0.98950  0.38900  1.0000 0.1102970149
H   H21       1.0  0.85510  0.61650  0.45660  1.0000 0.1102970149
H   H22       1.0  0.38350  0.14490  0.45660  1.0000 0.1102970149
H   H23       1.0  0.79920  0.77940  0.37940  1.0000 0.1385441149
H   H24       1.0  0.22060  0.20080  0.37940  1.0000 0.1385441149
H   H25       1.0  0.62760  0.75420  0.05840  1.0000 0.1385441149
H   H26       1.0  0.24580  0.37240  0.05840  1.0000 0.1385441149
H   H27       1.0  0.68540  0.59080  0.14860  1.0000 0.1195748075
H   H28       1.0  0.40920  0.31460  0.14860  1.0000 0.1195748075
H   H29       1.0  0.66210  0.91330  0.31590  1.0000 0.1195748075
H   H30       1.0  0.08670  0.33790  0.31590  1.0000 0.1298768197
H   H31       1.0  0.57140  0.15080  0.00250  1.0000 0.1298768197
H   H32       1.0  0.84920  0.42860  0.00250  1.0000 0.1298768197
H   H33       1.0  0.51240  0.25860  0.58660  1.0000 0.1102970149
H   H34       1.0  0.74140  0.48760  0.58660  1.0000 0.1102970149
H   H35       1.0  0.53160  0.20300  0.79810  1.0000 0.1298768197
H   H36       1.0  0.79700  0.46840  0.79810  1.0000 0.1298768197
H   H37       1.0  0.66560  0.94760  0.82240  1.0000 0.1385441149
H   H38       1.0  0.05240  0.33440  0.82240  1.0000 0.1385441149
H   H39       1.0  0.64350  0.01050  0.61100  1.0000 0.1102970149
H   H40       1.0  0.98950  0.35650  0.61100  1.0000 0.1102970149
C   C1        1.0  0.64440  0.80740  0.62350  1.0000 0.0690426355
C   C2        1.0  0.19260  0.35560  0.62350  1.0000 0.0690426355
C   C3        1.0  0.74270  0.77510  0.66990  1.0000 -0.1988028096
C   C4        1.0  0.22490  0.25730  0.66990  1.0000 -0.1988028096
C   C5        1.0  0.78660  0.70660  0.79000  1.0000 0.0911360768
C   C6        1.0  0.29340  0.21340  0.79000  1.0000 0.0911360768
C   C7        1.0  0.72760  0.67300  0.85960  1.0000 -0.1890398587
C   C8        1.0  0.32700  0.27240  0.85960  1.0000 -0.1890398587
C   C9        1.0  0.62940  0.70840  0.80450  1.0000 0.0911360768
C   C10       1.0  0.29160  0.37060  0.80450  1.0000 0.0911360768
C   C11       1.0  0.89170  0.66810  0.84530  1.0000 0.1875902557
C   C12       1.0  0.33190  0.10830  0.84530  1.0000 0.1875902557
C   C13       1.0  0.94360  0.64920  0.77100  1.0000 -0.1988028096
C   C14       1.0  0.35080  0.05640  0.77100  1.0000 -0.1988028096
C   C15       1.0  0.04157  0.61057  0.82920  1.0000 0.0353474816
C   C16       1.0  0.38943  0.95843  0.82920  1.0000 0.0349412759
C   C17       1.0  0.08469  0.59509  0.95740  1.0000 -0.1846952314
C   C18       1.0  0.40491  0.91531  0.95740  1.0000 -0.1846952314
C   C19       1.0  0.02750  0.61550  0.02560  1.0000 0.1875902557
C   C20       1.0  0.38450  0.97250  0.02560  1.0000 0.1875902557
C   C21       1.0  0.19500  0.54420  0.36500  1.0000 0.0690426355
C   C22       1.0  0.45580  0.80500  0.36500  1.0000 0.0690426355
C   C23       1.0  0.16210  0.55530  0.23780  1.0000 -0.1890398587
C   C24       1.0  0.44470  0.83790  0.23780  1.0000 -0.1988028096
C   C25       1.0  0.06797  0.60177  0.16300  1.0000 0.0911360768
C   C26       1.0  0.39823  0.93203  0.16300  1.0000 0.0911360768
C   C27       1.0  0.01170  0.63430  0.22330  1.0000 -0.1692678916
C   C28       1.0  0.36570  0.98830  0.22330  1.0000 -0.1692678916
C   C29       1.0  0.05020  0.62060  0.35090  1.0000 0.0976406683
C   C30       1.0  0.37940  0.94980  0.35090  1.0000 0.0976406683
C   C31       1.0  0.09961  0.58661  0.75280  1.0000 0.5355601733
C   C32       1.0  0.41339  0.90039  0.75280  1.0000 0.5355601733
C   C33       1.0  0.26710  0.73290  0.57860  1.0000 0.4755258088
C   C34       1.0  0.35320  0.64680  0.62270  1.0000 0.4732668524
C   C35       1.0  0.80740  0.64440  0.37650  1.0000 0.0690426355
C   C36       1.0  0.35560  0.19260  0.37650  1.0000 0.0690426355
C   C37       1.0  0.77510  0.74270  0.33010  1.0000 -0.1988028096
C   C38       1.0  0.25730  0.22490  0.33010  1.0000 -0.1988028096
C   C39       1.0  0.70660  0.78660  0.21000  1.0000 0.0911360768
C   C40       1.0  0.21340  0.29340  0.21000  1.0000 0.0911360768
C   C41       1.0  0.67300  0.72760  0.14040  1.0000 -0.1890398587
C   C42       1.0  0.27240  0.32700  0.14040  1.0000 -0.1890398587
C   C43       1.0  0.70840  0.62940  0.19550  1.0000 0.0911360768
C   C44       1.0  0.37060  0.29160  0.19550  1.0000 0.0911360768
C   C45       1.0  0.66810  0.89170  0.15470  1.0000 0.1875902557
C   C46       1.0  0.10830  0.33190  0.15470  1.0000 0.1875902557
C   C47       1.0  0.64920  0.94360  0.22900  1.0000 -0.1988028096
C   C48       1.0  0.05640  0.35080  0.22900  1.0000 -0.1988028096
C   C49       1.0  0.61057  0.04157  0.17080  1.0000 0.0349412759
C   C50       1.0  0.95843  0.38943  0.17080  1.0000 0.0353474816
C   C51       1.0  0.59509  0.08469  0.04260  1.0000 -0.1846952314
C   C52       1.0  0.91531  0.40491  0.04260  1.0000 -0.1846952314
C   C53       1.0  0.61550  0.02750  0.97440  1.0000 0.1875902557
C   C54       1.0  0.97250  0.38450  0.97440  1.0000 0.1875902557
C   C55       1.0  0.54420  0.19500  0.63500  1.0000 0.0690426355
C   C56       1.0  0.80500  0.45580  0.63500  1.0000 0.0690426355
C   C57       1.0  0.55530  0.16210  0.76220  1.0000 -0.1988028096
C   C58       1.0  0.83790  0.44470  0.76220  1.0000 -0.1988028096
C   C59       1.0  0.60177  0.06797  0.83700  1.0000 0.0911360768
C   C60       1.0  0.93203  0.39823  0.83700  1.0000 0.0911360768
C   C61       1.0  0.63430  0.01170  0.77670  1.0000 -0.1692678916
C   C62       1.0  0.98830  0.36570  0.77670  1.0000 -0.1692678916
C   C63       1.0  0.62060  0.05020  0.64910  1.0000 0.0976406683
C   C64       1.0  0.94980  0.37940  0.64910  1.0000 0.0976406683
C   C65       1.0  0.58661  0.09961  0.24720  1.0000 0.5355601733
C   C66       1.0  0.90039  0.41339  0.24720  1.0000 0.5355601733
C   C67       1.0  0.73290  0.26710  0.42140  1.0000 0.4732668524
C   C68       1.0  0.64680  0.35320  0.37730  1.0000 0.4732668524
N   N1        1.0  0.58666  0.77400  0.68700  1.0000 -0.2402349922
N   N2        1.0  0.22600  0.41334  0.68700  1.0000 -0.2402349922
N   N3        1.0  0.93178  0.65038  0.97050  1.0000 -0.3109810228
N   N4        1.0  0.34962  0.06822  0.97050  1.0000 -0.3109810228
N   N5        1.0  0.14016  0.57696  0.42280  1.0000 -0.2402349922
N   N6        1.0  0.42304  0.85984  0.42280  1.0000 -0.2402349922
N   N7        1.0  0.77400  0.58666  0.31300  1.0000 -0.2402349922
N   N8        1.0  0.41334  0.22600  0.31300  1.0000 -0.2402349922
N   N9        1.0  0.65038  0.93178  0.02950  1.0000 -0.3109810228
N   N10       1.0  0.06822  0.34962  0.02950  1.0000 -0.3109810228
N   N11       1.0  0.57696  0.14016  0.57720  1.0000 -0.2402349922
N   N12       1.0  0.85984  0.42304  0.57720  1.0000 -0.2402349922
O   O1        1.0  0.18938  0.56310  0.80240  1.0000 -0.5222201521
O   O2        1.0  0.43690  0.81062  0.80240  1.0000 -0.5222201521
O   O3        1.0  0.05673  0.59177  0.64040  1.0000 -0.540833878
O   O4        1.0  0.40823  0.94327  0.64040  1.0000 -0.540833878
O   O5        1.0  0.18629  0.71347  0.56290  1.0000 -0.4798884268
O   O6        1.0  0.28653  0.81371  0.56290  1.0000 -0.4798884268
O   O7        1.0  0.33457  0.56509  0.63930  1.0000 -0.5012768979
O   O8        1.0  0.43491  0.66543  0.63930  1.0000 -0.5012768979
O   O9        1.0  0.56310  0.18938  0.19760  1.0000 -0.5222201521
O   O10       1.0  0.81062  0.43690  0.19760  1.0000 -0.5222201521
O   O11       1.0  0.59177  0.05673  0.35960  1.0000 -0.540833878
O   O12       1.0  0.94327  0.40823  0.35960  1.0000 -0.540833878
O   O13       1.0  0.71347  0.18629  0.43710  1.0000 -0.4798884268
O   O14       1.0  0.81371  0.28653  0.43710  1.0000 -0.4798884268
O   O15       1.0  0.56509  0.33457  0.36070  1.0000 -0.5012768979
O   O16       1.0  0.66543  0.43491  0.36070  1.0000 -0.5012768979
