# DDEC6 charges by PACMAN v1.1 (https://github.com/mtap-research/PACMAN-charge/)
data_2015[Co][crs]3[ASR]1
_chemical_formula_sum              "Co4 H120 C168 N24"
_cell_length_a       19.3184
_cell_length_b       19.3184
_cell_length_c       19.3184
_cell_angle_alpha    90
_cell_angle_beta     90
_cell_angle_gamma    90

_symmetry_space_group_name_H-M    "P 1"
_symmetry_Int_Tables_number       1

loop_
  _symmetry_equiv_pos_as_xyz
  'x, y, z'

loop_
  _atom_site_type_symbol
  _atom_site_label
  _atom_site_symmetry_multiplicity
  _atom_site_fract_x
  _atom_site_fract_y
  _atom_site_fract_z
  _atom_site_occupancy
  _atom_site_charge
Co  Co1       1.0  0.25000  0.25000  0.75000  1.0000 0.6244338457
Co  Co2       1.0  0.25000  0.75000  0.25000  1.0000 0.6244338457
Co  Co3       1.0  0.75000  0.25000  0.25000  1.0000 0.625200123
Co  Co4       1.0  0.75000  0.75000  0.75000  1.0000 0.625200123
H   H1        1.0  0.00270  0.31230  0.88080  1.0000 0.1216435559
H   H2        1.0  0.31230  0.88080  0.00270  1.0000 0.1216435559
H   H3        1.0  0.88080  0.00270  0.31230  1.0000 0.1216435559
H   H4        1.0  0.31230  0.11920  0.99730  1.0000 0.1290242658
H   H5        1.0  0.88080  0.99730  0.68770  1.0000 0.1216435559
H   H6        1.0  0.11920  0.00270  0.68770  1.0000 0.1216435559
H   H7        1.0  0.99730  0.31230  0.11920  1.0000 0.1216435559
H   H8        1.0  0.68770  0.88080  0.99730  1.0000 0.1216435559
H   H9        1.0  0.00270  0.68770  0.11920  1.0000 0.1216435559
H   H10       1.0  0.99730  0.68770  0.88080  1.0000 0.1216435559
H   H11       1.0  0.68770  0.11920  0.00270  1.0000 0.1216435559
H   H12       1.0  0.11920  0.99730  0.31230  1.0000 0.1216435559
H   H13       1.0  0.49730  0.18770  0.61920  1.0000 0.1216435559
H   H14       1.0  0.18770  0.61920  0.49730  1.0000 0.1216435559
H   H15       1.0  0.61920  0.49730  0.18770  1.0000 0.1216435559
H   H16       1.0  0.18770  0.38080  0.50270  1.0000 0.1216435559
H   H17       1.0  0.61920  0.50270  0.81230  1.0000 0.1216435559
H   H18       1.0  0.38080  0.49730  0.81230  1.0000 0.1216435559
H   H19       1.0  0.50270  0.18770  0.38080  1.0000 0.1216435559
H   H20       1.0  0.81230  0.61920  0.50270  1.0000 0.1216435559
H   H21       1.0  0.49730  0.81230  0.38080  1.0000 0.1216435559
H   H22       1.0  0.50270  0.81230  0.61920  1.0000 0.1216435559
H   H23       1.0  0.81230  0.38080  0.49730  1.0000 0.1216435559
H   H24       1.0  0.38080  0.50270  0.18770  1.0000 0.1216435559
H   H25       1.0  0.89450  0.30990  0.94050  1.0000 0.1216435559
H   H26       1.0  0.30990  0.94050  0.89450  1.0000 0.1216435559
H   H27       1.0  0.94050  0.89450  0.30990  1.0000 0.1216435559
H   H28       1.0  0.30990  0.05950  0.10550  1.0000 0.1216435559
H   H29       1.0  0.94050  0.10550  0.69010  1.0000 0.1216435559
H   H30       1.0  0.05950  0.89450  0.69010  1.0000 0.1216435559
H   H31       1.0  0.10550  0.30990  0.05950  1.0000 0.1216435559
H   H32       1.0  0.69010  0.94050  0.10550  1.0000 0.1216435559
H   H33       1.0  0.89450  0.69010  0.05950  1.0000 0.1216435559
H   H34       1.0  0.10550  0.69010  0.94050  1.0000 0.1216435559
H   H35       1.0  0.69010  0.05950  0.89450  1.0000 0.1216435559
H   H36       1.0  0.05950  0.10550  0.30990  1.0000 0.1216435559
H   H37       1.0  0.60550  0.19010  0.55950  1.0000 0.1216435559
H   H38       1.0  0.19010  0.55950  0.60550  1.0000 0.1216435559
H   H39       1.0  0.55950  0.60550  0.19010  1.0000 0.1216435559
H   H40       1.0  0.19010  0.44050  0.39450  1.0000 0.1216435559
H   H41       1.0  0.55950  0.39450  0.80990  1.0000 0.1216435559
H   H42       1.0  0.44050  0.60550  0.80990  1.0000 0.1216435559
H   H43       1.0  0.39450  0.19010  0.44050  1.0000 0.1216435559
H   H44       1.0  0.80990  0.55950  0.39450  1.0000 0.1216435559
H   H45       1.0  0.60550  0.80990  0.44050  1.0000 0.1216435559
H   H46       1.0  0.39450  0.80990  0.55950  1.0000 0.1216435559
H   H47       1.0  0.80990  0.44050  0.60550  1.0000 0.1216435559
H   H48       1.0  0.44050  0.39450  0.19010  1.0000 0.1216435559
H   H49       1.0  0.10360  0.25730  0.83510  1.0000 0.1066733454
H   H50       1.0  0.25730  0.83510  0.10360  1.0000 0.1066733454
H   H51       1.0  0.83510  0.10360  0.25730  1.0000 0.1066733454
H   H52       1.0  0.25730  0.16490  0.89640  1.0000 0.1066733454
H   H53       1.0  0.83510  0.89640  0.74270  1.0000 0.1066733454
H   H54       1.0  0.16490  0.10360  0.74270  1.0000 0.1066733454
H   H55       1.0  0.89640  0.25730  0.16490  1.0000 0.1066733454
H   H56       1.0  0.74270  0.83510  0.89640  1.0000 0.1066733454
H   H57       1.0  0.10360  0.74270  0.16490  1.0000 0.1066733454
H   H58       1.0  0.89640  0.74270  0.83510  1.0000 0.1066733454
H   H59       1.0  0.74270  0.16490  0.10360  1.0000 0.1066733454
H   H60       1.0  0.16490  0.89640  0.25730  1.0000 0.1066733454
H   H61       1.0  0.39640  0.24270  0.66490  1.0000 0.1066733454
H   H62       1.0  0.24270  0.66490  0.39640  1.0000 0.1066733454
H   H63       1.0  0.66490  0.39640  0.24270  1.0000 0.1066733454
H   H64       1.0  0.24270  0.33510  0.60360  1.0000 0.1066733454
H   H65       1.0  0.66490  0.60360  0.75730  1.0000 0.1066733454
H   H66       1.0  0.33510  0.39640  0.75730  1.0000 0.1066733454
H   H67       1.0  0.60360  0.24270  0.33510  1.0000 0.1066733454
H   H68       1.0  0.75730  0.66490  0.60360  1.0000 0.1066733454
H   H69       1.0  0.39640  0.75730  0.33510  1.0000 0.1066733454
H   H70       1.0  0.60360  0.75730  0.66490  1.0000 0.1066733454
H   H71       1.0  0.75730  0.33510  0.39640  1.0000 0.1066733454
H   H72       1.0  0.33510  0.60360  0.24270  1.0000 0.1066733454
H   H73       1.0  0.28390  0.32220  0.90240  1.0000 0.1032009625
H   H74       1.0  0.32220  0.90240  0.28390  1.0000 0.1032009625
H   H75       1.0  0.90240  0.28390  0.32220  1.0000 0.1032009625
H   H76       1.0  0.32220  0.09760  0.71610  1.0000 0.1032009625
H   H77       1.0  0.90240  0.71610  0.67780  1.0000 0.1032009625
H   H78       1.0  0.09760  0.28390  0.67780  1.0000 0.1032009625
H   H79       1.0  0.71610  0.32220  0.09760  1.0000 0.1032009625
H   H80       1.0  0.67780  0.90240  0.71610  1.0000 0.1032009625
H   H81       1.0  0.28390  0.67780  0.09760  1.0000 0.1032009625
H   H82       1.0  0.71610  0.67780  0.90240  1.0000 0.1032009625
H   H83       1.0  0.67780  0.09760  0.28390  1.0000 0.1032009625
H   H84       1.0  0.09760  0.71610  0.32220  1.0000 0.1032009625
H   H85       1.0  0.21610  0.17780  0.59760  1.0000 0.1032009625
H   H86       1.0  0.17780  0.59760  0.21610  1.0000 0.1032009625
H   H87       1.0  0.59760  0.21610  0.17780  1.0000 0.1032009625
H   H88       1.0  0.17780  0.40240  0.78390  1.0000 0.1032009625
H   H89       1.0  0.59760  0.78390  0.82220  1.0000 0.1032009625
H   H90       1.0  0.40240  0.21610  0.82220  1.0000 0.1032009625
H   H91       1.0  0.78390  0.17780  0.40240  1.0000 0.1032009625
H   H92       1.0  0.82220  0.59760  0.78390  1.0000 0.1032009625
H   H93       1.0  0.21610  0.82220  0.40240  1.0000 0.1032009625
H   H94       1.0  0.78390  0.82220  0.59760  1.0000 0.1032009625
H   H95       1.0  0.82220  0.40240  0.21610  1.0000 0.1032009625
H   H96       1.0  0.40240  0.78390  0.17780  1.0000 0.1032009625
H   H97       1.0  0.19750  0.35070  0.99260  1.0000 0.1290242658
H   H98       1.0  0.35070  0.99260  0.19750  1.0000 0.1290242658
H   H99       1.0  0.99260  0.19750  0.35070  1.0000 0.1290242658
H   H100      1.0  0.35070  0.00740  0.80250  1.0000 0.1290242658
H   H101      1.0  0.99260  0.80250  0.64930  1.0000 0.1290242658
H   H102      1.0  0.00740  0.19750  0.64930  1.0000 0.1290242658
H   H103      1.0  0.80250  0.35070  0.00740  1.0000 0.1290242658
H   H104      1.0  0.64930  0.99260  0.80250  1.0000 0.1290242658
H   H105      1.0  0.19750  0.64930  0.00740  1.0000 0.1290242658
H   H106      1.0  0.80250  0.64930  0.99260  1.0000 0.1290242658
H   H107      1.0  0.64930  0.00740  0.19750  1.0000 0.1290242658
H   H108      1.0  0.00740  0.80250  0.35070  1.0000 0.1290242658
H   H109      1.0  0.30250  0.14930  0.50740  1.0000 0.1290242658
H   H110      1.0  0.14930  0.50740  0.30250  1.0000 0.1290242658
H   H111      1.0  0.50740  0.30250  0.14930  1.0000 0.1290242658
H   H112      1.0  0.14930  0.49260  0.69750  1.0000 0.1290242658
H   H113      1.0  0.50740  0.69750  0.85070  1.0000 0.1290242658
H   H114      1.0  0.49260  0.30250  0.85070  1.0000 0.1290242658
H   H115      1.0  0.69750  0.14930  0.49260  1.0000 0.1290242658
H   H116      1.0  0.85070  0.50740  0.69750  1.0000 0.1290242658
H   H117      1.0  0.30250  0.85070  0.49260  1.0000 0.1290242658
H   H118      1.0  0.69750  0.85070  0.50740  1.0000 0.1290242658
H   H119      1.0  0.85070  0.49260  0.30250  1.0000 0.1290242658
H   H120      1.0  0.49260  0.69750  0.14930  1.0000 0.1290242658
C   C1        1.0  0.06240  0.30860  0.96490  1.0000 0.0792366879
C   C2        1.0  0.30860  0.96490  0.06240  1.0000 0.0792366879
C   C3        1.0  0.96490  0.06240  0.30860  1.0000 0.0792366879
C   C4        1.0  0.30860  0.03510  0.93760  1.0000 0.0792366879
C   C5        1.0  0.96490  0.93760  0.69140  1.0000 0.0792366879
C   C6        1.0  0.03510  0.06240  0.69140  1.0000 0.0792366879
C   C7        1.0  0.93760  0.30860  0.03510  1.0000 0.0792366879
C   C8        1.0  0.69140  0.96490  0.93760  1.0000 0.0792366879
C   C9        1.0  0.06240  0.69140  0.03510  1.0000 0.0792366879
C   C10       1.0  0.93760  0.69140  0.96490  1.0000 0.0792366879
C   C11       1.0  0.69140  0.03510  0.06240  1.0000 0.0792366879
C   C12       1.0  0.03510  0.93760  0.30860  1.0000 0.0792366879
C   C13       1.0  0.43760  0.19140  0.53510  1.0000 0.0792366879
C   C14       1.0  0.19140  0.53510  0.43760  1.0000 0.0792366879
C   C15       1.0  0.53510  0.43760  0.19140  1.0000 0.0792366879
C   C16       1.0  0.19140  0.46490  0.56240  1.0000 0.0792366879
C   C17       1.0  0.53510  0.56240  0.80860  1.0000 0.0792366879
C   C18       1.0  0.46490  0.43760  0.80860  1.0000 0.0792366879
C   C19       1.0  0.56240  0.19140  0.46490  1.0000 0.0792366879
C   C20       1.0  0.80860  0.53510  0.56240  1.0000 0.0792366879
C   C21       1.0  0.43760  0.80860  0.46490  1.0000 0.0792366879
C   C22       1.0  0.56240  0.80860  0.53510  1.0000 0.0792366879
C   C23       1.0  0.80860  0.46490  0.43760  1.0000 0.0792366879
C   C24       1.0  0.46490  0.56240  0.19140  1.0000 0.0792366879
C   C25       1.0  0.00200  0.31040  0.92990  1.0000 -0.1406118568
C   C26       1.0  0.31040  0.92990  0.00200  1.0000 -0.1406118568
C   C27       1.0  0.92990  0.00200  0.31040  1.0000 -0.1406118568
C   C28       1.0  0.31040  0.07010  0.99800  1.0000 -0.1406118568
C   C29       1.0  0.92990  0.99800  0.68960  1.0000 -0.1406118568
C   C30       1.0  0.07010  0.00200  0.68960  1.0000 -0.1406118568
C   C31       1.0  0.99800  0.31040  0.07010  1.0000 -0.1406118568
C   C32       1.0  0.68960  0.92990  0.99800  1.0000 -0.1406118568
C   C33       1.0  0.00200  0.68960  0.07010  1.0000 -0.1406118568
C   C34       1.0  0.99800  0.68960  0.92990  1.0000 -0.1406118568
C   C35       1.0  0.68960  0.07010  0.00200  1.0000 -0.1406118568
C   C36       1.0  0.07010  0.99800  0.31040  1.0000 -0.1406118568
C   C37       1.0  0.49800  0.18960  0.57010  1.0000 -0.1406118568
C   C38       1.0  0.18960  0.57010  0.49800  1.0000 -0.1406118568
C   C39       1.0  0.57010  0.49800  0.18960  1.0000 -0.1406118568
C   C40       1.0  0.18960  0.42990  0.50200  1.0000 -0.1406118568
C   C41       1.0  0.57010  0.50200  0.81040  1.0000 -0.1406118568
C   C42       1.0  0.42990  0.49800  0.81040  1.0000 -0.1406118568
C   C43       1.0  0.50200  0.18960  0.42990  1.0000 -0.1406118568
C   C44       1.0  0.81040  0.57010  0.50200  1.0000 -0.1406118568
C   C45       1.0  0.49800  0.81040  0.42990  1.0000 -0.1406118568
C   C46       1.0  0.50200  0.81040  0.57010  1.0000 -0.1406118568
C   C47       1.0  0.81040  0.42990  0.49800  1.0000 -0.1406118568
C   C48       1.0  0.42990  0.50200  0.18960  1.0000 -0.1406118568
C   C49       1.0  0.93690  0.30970  0.96540  1.0000 -0.1339774301
C   C50       1.0  0.30970  0.96540  0.93690  1.0000 -0.1339774301
C   C51       1.0  0.96540  0.93690  0.30970  1.0000 -0.1339774301
C   C52       1.0  0.30970  0.03460  0.06310  1.0000 -0.1339774301
C   C53       1.0  0.96540  0.06310  0.69030  1.0000 -0.1339774301
C   C54       1.0  0.03460  0.93690  0.69030  1.0000 -0.1339774301
C   C55       1.0  0.06310  0.30970  0.03460  1.0000 -0.1339774301
C   C56       1.0  0.69030  0.96540  0.06310  1.0000 -0.1339774301
C   C57       1.0  0.93690  0.69030  0.03460  1.0000 -0.1339774301
C   C58       1.0  0.06310  0.69030  0.96540  1.0000 -0.1339774301
C   C59       1.0  0.69030  0.03460  0.93690  1.0000 -0.1339774301
C   C60       1.0  0.03460  0.06310  0.30970  1.0000 -0.1339774301
C   C61       1.0  0.56310  0.19030  0.53460  1.0000 -0.1339774301
C   C62       1.0  0.19030  0.53460  0.56310  1.0000 -0.1339774301
C   C63       1.0  0.53460  0.56310  0.19030  1.0000 -0.1339774301
C   C64       1.0  0.19030  0.46540  0.43690  1.0000 -0.1339774301
C   C65       1.0  0.53460  0.43690  0.80970  1.0000 -0.1339774301
C   C66       1.0  0.46540  0.56310  0.80970  1.0000 -0.1339774301
C   C67       1.0  0.43690  0.19030  0.46540  1.0000 -0.1339774301
C   C68       1.0  0.80970  0.53460  0.43690  1.0000 -0.1339774301
C   C69       1.0  0.56310  0.80970  0.46540  1.0000 -0.1339774301
C   C70       1.0  0.43690  0.80970  0.53460  1.0000 -0.1339774301
C   C71       1.0  0.80970  0.46540  0.56310  1.0000 -0.1339774301
C   C72       1.0  0.46540  0.43690  0.19030  1.0000 -0.1339774301
C   C73       1.0  0.13840  0.27750  0.86340  1.0000 -0.0663059946
C   C74       1.0  0.27750  0.86340  0.13840  1.0000 -0.0663059946
C   C75       1.0  0.86340  0.13840  0.27750  1.0000 -0.0663059946
C   C76       1.0  0.27750  0.13660  0.86160  1.0000 -0.0663059946
C   C77       1.0  0.86340  0.86160  0.72250  1.0000 -0.0663059946
C   C78       1.0  0.13660  0.13840  0.72250  1.0000 -0.0663059946
C   C79       1.0  0.86160  0.27750  0.13660  1.0000 -0.0663059946
C   C80       1.0  0.72250  0.86340  0.86160  1.0000 -0.0663059946
C   C81       1.0  0.13840  0.72250  0.13660  1.0000 -0.0663059946
C   C82       1.0  0.86160  0.72250  0.86340  1.0000 -0.0663059946
C   C83       1.0  0.72250  0.13660  0.13840  1.0000 -0.0663059946
C   C84       1.0  0.13660  0.86160  0.27750  1.0000 -0.0663059946
C   C85       1.0  0.36160  0.22250  0.63660  1.0000 -0.0663059946
C   C86       1.0  0.22250  0.63660  0.36160  1.0000 -0.0663059946
C   C87       1.0  0.63660  0.36160  0.22250  1.0000 -0.0663059946
C   C88       1.0  0.22250  0.36340  0.63840  1.0000 -0.0663059946
C   C89       1.0  0.63660  0.63840  0.77750  1.0000 -0.0663059946
C   C90       1.0  0.36340  0.36160  0.77750  1.0000 -0.0663059946
C   C91       1.0  0.63840  0.22250  0.36340  1.0000 -0.0663059946
C   C92       1.0  0.77750  0.63660  0.63840  1.0000 -0.0663059946
C   C93       1.0  0.36160  0.77750  0.36340  1.0000 -0.0663059946
C   C94       1.0  0.63840  0.77750  0.63660  1.0000 -0.0663059946
C   C95       1.0  0.77750  0.36340  0.36160  1.0000 -0.0663059946
C   C96       1.0  0.36340  0.63840  0.22250  1.0000 -0.0663059946
C   C97       1.0  0.23580  0.31250  0.89930  1.0000 0.0403046991
C   C98       1.0  0.31250  0.89930  0.23580  1.0000 0.0403046991
C   C99       1.0  0.89930  0.23580  0.31250  1.0000 0.0403046991
C   C100      1.0  0.31250  0.10070  0.76420  1.0000 0.0403046991
C   C101      1.0  0.89930  0.76420  0.68750  1.0000 0.0403046991
C   C102      1.0  0.10070  0.23580  0.68750  1.0000 0.0403046991
C   C103      1.0  0.76420  0.31250  0.10070  1.0000 0.0403046991
C   C104      1.0  0.68750  0.89930  0.76420  1.0000 0.0403046991
C   C105      1.0  0.23580  0.68750  0.10070  1.0000 0.0403046991
C   C106      1.0  0.76420  0.68750  0.89930  1.0000 0.0403046991
C   C107      1.0  0.68750  0.10070  0.23580  1.0000 0.0403046991
C   C108      1.0  0.10070  0.76420  0.31250  1.0000 0.0403046991
C   C109      1.0  0.26420  0.18750  0.60070  1.0000 0.0403046991
C   C110      1.0  0.18750  0.60070  0.26420  1.0000 0.0403046991
C   C111      1.0  0.60070  0.26420  0.18750  1.0000 0.0403046991
C   C112      1.0  0.18750  0.39930  0.73580  1.0000 0.0403046991
C   C113      1.0  0.60070  0.73580  0.81250  1.0000 0.0403046991
C   C114      1.0  0.39930  0.26420  0.81250  1.0000 0.0403046991
C   C115      1.0  0.73580  0.18750  0.39930  1.0000 0.0403046991
C   C116      1.0  0.81250  0.60070  0.73580  1.0000 0.0403046991
C   C117      1.0  0.26420  0.81250  0.39930  1.0000 0.0403046991
C   C118      1.0  0.73580  0.81250  0.60070  1.0000 0.0403046991
C   C119      1.0  0.81250  0.39930  0.26420  1.0000 0.0403046991
C   C120      1.0  0.39930  0.73580  0.18750  1.0000 0.0403046991
C   C121      1.0  0.18850  0.32820  0.94980  1.0000 -0.240215426
C   C122      1.0  0.32820  0.94980  0.18850  1.0000 -0.240215426
C   C123      1.0  0.94980  0.18850  0.32820  1.0000 -0.2347135242
C   C124      1.0  0.32820  0.05020  0.81150  1.0000 -0.2347135242
C   C125      1.0  0.94980  0.81150  0.67180  1.0000 -0.2347135242
C   C126      1.0  0.05020  0.18850  0.67180  1.0000 -0.240215426
C   C127      1.0  0.81150  0.32820  0.05020  1.0000 -0.2347135242
C   C128      1.0  0.67180  0.94980  0.81150  1.0000 -0.2347135242
C   C129      1.0  0.18850  0.67180  0.05020  1.0000 -0.240215426
C   C130      1.0  0.81150  0.67180  0.94980  1.0000 -0.2347135242
C   C131      1.0  0.67180  0.05020  0.18850  1.0000 -0.2347135242
C   C132      1.0  0.05020  0.81150  0.32820  1.0000 -0.240215426
C   C133      1.0  0.31150  0.17180  0.55020  1.0000 -0.2347135242
C   C134      1.0  0.17180  0.55020  0.31150  1.0000 -0.240215426
C   C135      1.0  0.55020  0.31150  0.17180  1.0000 -0.2347135242
C   C136      1.0  0.17180  0.44980  0.68850  1.0000 -0.240215426
C   C137      1.0  0.55020  0.68850  0.82820  1.0000 -0.240215426
C   C138      1.0  0.44980  0.31150  0.82820  1.0000 -0.240215426
C   C139      1.0  0.68850  0.17180  0.44980  1.0000 -0.2347135242
C   C140      1.0  0.82820  0.55020  0.68850  1.0000 -0.2347135242
C   C141      1.0  0.31150  0.82820  0.44980  1.0000 -0.240215426
C   C142      1.0  0.68850  0.82820  0.55020  1.0000 -0.2347135242
C   C143      1.0  0.82820  0.44980  0.31150  1.0000 -0.2347135242
C   C144      1.0  0.44980  0.68850  0.17180  1.0000 -0.2347135242
C   C145      1.0  0.12780  0.30570  0.92700  1.0000 0.0119459247
C   C146      1.0  0.30570  0.92700  0.12780  1.0000 0.0119459247
C   C147      1.0  0.92700  0.12780  0.30570  1.0000 0.0119459247
C   C148      1.0  0.30570  0.07300  0.87220  1.0000 0.0119459247
C   C149      1.0  0.92700  0.87220  0.69430  1.0000 0.0119459247
C   C150      1.0  0.07300  0.12780  0.69430  1.0000 0.0119459247
C   C151      1.0  0.87220  0.30570  0.07300  1.0000 0.0119459247
C   C152      1.0  0.69430  0.92700  0.87220  1.0000 0.0119459247
C   C153      1.0  0.12780  0.69430  0.07300  1.0000 0.0119459247
C   C154      1.0  0.87220  0.69430  0.92700  1.0000 0.0119459247
C   C155      1.0  0.69430  0.07300  0.12780  1.0000 0.0119459247
C   C156      1.0  0.07300  0.87220  0.30570  1.0000 0.0119459247
C   C157      1.0  0.37220  0.19430  0.57300  1.0000 0.0119459247
C   C158      1.0  0.19430  0.57300  0.37220  1.0000 0.0119459247
C   C159      1.0  0.57300  0.37220  0.19430  1.0000 0.0119459247
C   C160      1.0  0.19430  0.42700  0.62780  1.0000 0.0119459247
C   C161      1.0  0.57300  0.62780  0.80570  1.0000 0.0119459247
C   C162      1.0  0.42700  0.37220  0.80570  1.0000 0.0119459247
C   C163      1.0  0.62780  0.19430  0.42700  1.0000 0.0119459247
C   C164      1.0  0.80570  0.57300  0.62780  1.0000 0.0119459247
C   C165      1.0  0.37220  0.80570  0.42700  1.0000 0.0119459247
C   C166      1.0  0.62780  0.80570  0.57300  1.0000 0.0119459247
C   C167      1.0  0.80570  0.42700  0.37220  1.0000 0.0119459247
C   C168      1.0  0.42700  0.62780  0.19430  1.0000 0.0119459247
N   N1        1.0  0.20636  0.28280  0.84650  1.0000 -0.240215426
N   N2        1.0  0.28280  0.84650  0.20636  1.0000 -0.240215426
N   N3        1.0  0.84650  0.20636  0.28280  1.0000 -0.240215426
N   N4        1.0  0.28280  0.15350  0.79364  1.0000 -0.240215426
N   N5        1.0  0.84650  0.79364  0.71720  1.0000 -0.240215426
N   N6        1.0  0.15350  0.20636  0.71720  1.0000 -0.240215426
N   N7        1.0  0.79364  0.28280  0.15350  1.0000 -0.240215426
N   N8        1.0  0.71720  0.84650  0.79364  1.0000 -0.240215426
N   N9        1.0  0.20636  0.71720  0.15350  1.0000 -0.240215426
N   N10       1.0  0.79364  0.71720  0.84650  1.0000 -0.240215426
N   N11       1.0  0.71720  0.15350  0.20636  1.0000 -0.240215426
N   N12       1.0  0.15350  0.79364  0.28280  1.0000 -0.240215426
N   N13       1.0  0.29364  0.21720  0.65350  1.0000 -0.240215426
N   N14       1.0  0.21720  0.65350  0.29364  1.0000 -0.240215426
N   N15       1.0  0.65350  0.29364  0.21720  1.0000 -0.240215426
N   N16       1.0  0.21720  0.34650  0.70636  1.0000 -0.240215426
N   N17       1.0  0.65350  0.70636  0.78280  1.0000 -0.240215426
N   N18       1.0  0.34650  0.29364  0.78280  1.0000 -0.240215426
N   N19       1.0  0.70636  0.21720  0.34650  1.0000 -0.240215426
N   N20       1.0  0.78280  0.65350  0.70636  1.0000 -0.240215426
N   N21       1.0  0.29364  0.78280  0.34650  1.0000 -0.240215426
N   N22       1.0  0.70636  0.78280  0.65350  1.0000 -0.240215426
N   N23       1.0  0.78280  0.34650  0.29364  1.0000 -0.240215426
N   N24       1.0  0.34650  0.70636  0.21720  1.0000 -0.240215426
