# DDEC6 charges by PACMAN v1.1 (https://github.com/mtap-research/PACMAN-charge/)
data_2015[Cd][ins]3[ASR]1
_chemical_formula_sum              "Cd4 P4 H4 C4 O24"
_cell_length_a       5.63389
_cell_length_b       15.9428
_cell_length_c       11.0518
_cell_angle_alpha    90
_cell_angle_beta     119.527
_cell_angle_gamma    90

_symmetry_space_group_name_H-M    "P 1"
_symmetry_Int_Tables_number       1

loop_
  _symmetry_equiv_pos_as_xyz
  'x, y, z'

loop_
  _atom_site_type_symbol
  _atom_site_label
  _atom_site_symmetry_multiplicity
  _atom_site_fract_x
  _atom_site_fract_y
  _atom_site_fract_z
  _atom_site_occupancy
  _atom_site_charge
Cd  Cd1       1.0  0.36067  0.33175  0.06259  1.0000 1.2272761568
Cd  Cd2       1.0  0.63933  0.83175  0.43741  1.0000 1.2239387736
Cd  Cd3       1.0  0.63933  0.66825  0.93741  1.0000 1.2239387736
Cd  Cd4       1.0  0.36067  0.16825  0.56259  1.0000 1.2239387736
P   P1        1.0  0.65740  0.19603  0.34990  1.0000 1.5190018818
P   P2        1.0  0.34260  0.69603  0.15010  1.0000 1.5190018818
P   P3        1.0  0.34260  0.80397  0.65010  1.0000 1.5190018818
P   P4        1.0  0.65740  0.30397  0.84990  1.0000 1.5190018818
H   H1        1.0  0.80460  0.07960  0.35660  1.0000 0.4081659943
H   H2        1.0  0.19540  0.57960  0.14340  1.0000 0.4081659943
H   H3        1.0  0.19540  0.92040  0.64340  1.0000 0.4081659943
H   H4        1.0  0.80460  0.42040  0.85660  1.0000 0.4081659943
C   C1        1.0  0.65130  0.49390  0.05890  1.0000 0.5338959351
C   C2        1.0  0.34870  0.99390  0.44110  1.0000 0.5338959351
C   C3        1.0  0.34870  0.50610  0.94110  1.0000 0.5338959351
C   C4        1.0  0.65130  0.00610  0.55890  1.0000 0.5338959351
O   O1        1.0  0.56650  0.22620  0.20270  1.0000 -0.724365984
O   O2        1.0  0.43350  0.72620  0.29730  1.0000 -0.724365984
O   O3        1.0  0.43350  0.77380  0.79730  1.0000 -0.724365984
O   O4        1.0  0.56650  0.27380  0.70270  1.0000 -0.724365984
O   O5        1.0  0.94370  0.22440  0.45160  1.0000 -0.7404339805
O   O6        1.0  0.05630  0.72440  0.04840  1.0000 -0.7404339805
O   O7        1.0  0.05630  0.77560  0.54840  1.0000 -0.7404339805
O   O8        1.0  0.94370  0.27560  0.95160  1.0000 -0.7404339805
O   O9        1.0  0.44880  0.21960  0.39260  1.0000 -0.7461662784
O   O10       1.0  0.55120  0.71960  0.10740  1.0000 -0.7461662784
O   O11       1.0  0.55120  0.78040  0.60740  1.0000 -0.7461662784
O   O12       1.0  0.44880  0.28040  0.89260  1.0000 -0.7461662784
O   O13       1.0  0.65520  0.09630  0.34210  1.0000 -0.5672166094
O   O14       1.0  0.34480  0.59630  0.15790  1.0000 -0.5672166094
O   O15       1.0  0.34480  0.90370  0.65790  1.0000 -0.5672166094
O   O16       1.0  0.65520  0.40370  0.84210  1.0000 -0.5672166094
O   O17       1.0  0.70750  0.42880  0.13160  1.0000 -0.4386149392
O   O18       1.0  0.29250  0.92880  0.36840  1.0000 -0.4386149392
O   O19       1.0  0.29250  0.57120  0.86840  1.0000 -0.4386149392
O   O20       1.0  0.70750  0.07120  0.63160  1.0000 -0.4386149392
O   O21       1.0  0.81770  0.54970  0.07200  1.0000 -0.4690391392
O   O22       1.0  0.18230  0.04970  0.42800  1.0000 -0.4690391392
O   O23       1.0  0.18230  0.45030  0.92800  1.0000 -0.4690391392
O   O24       1.0  0.81770  0.95030  0.57200  1.0000 -0.4690391392
