# DDEC6 charges by PACMAN v1.1 (https://github.com/mtap-research/PACMAN-charge/)
data_2015[Th][fcu]3[ASR]1
_chemical_formula_sum              "Th6 H24 C48 O32"
_cell_length_a       15.5285
_cell_length_b       15.5285
_cell_length_c       15.5285
_cell_angle_alpha    60
_cell_angle_beta     60
_cell_angle_gamma    60

_symmetry_space_group_name_H-M    "P 1"
_symmetry_Int_Tables_number       1

loop_
  _symmetry_equiv_pos_as_xyz
  'x, y, z'

loop_
  _atom_site_type_symbol
  _atom_site_label
  _atom_site_symmetry_multiplicity
  _atom_site_fract_x
  _atom_site_fract_y
  _atom_site_fract_z
  _atom_site_occupancy
  _atom_site_charge
Th  Th1       1.0  0.87144  0.12856  0.12856  1.0000 2.3953955388
Th  Th2       1.0  0.12856  0.87144  0.87144  1.0000 2.3928867077
Th  Th3       1.0  0.12856  0.87144  0.12856  1.0000 2.3928867077
Th  Th4       1.0  0.87144  0.12856  0.87144  1.0000 2.3928867077
Th  Th5       1.0  0.12856  0.12856  0.87144  1.0000 2.3928867077
Th  Th6       1.0  0.87144  0.87144  0.12856  1.0000 2.3928867077
H   H1        1.0  0.57500  0.42500  0.12740  1.0000 0.1337083929
H   H2        1.0  0.42500  0.57500  0.87260  1.0000 0.1337083929
H   H3        1.0  0.12740  0.87260  0.57500  1.0000 0.1337083929
H   H4        1.0  0.87260  0.12740  0.42500  1.0000 0.1337083929
H   H5        1.0  0.12740  0.57500  0.42500  1.0000 0.1337083929
H   H6        1.0  0.87260  0.42500  0.57500  1.0000 0.1337083929
H   H7        1.0  0.57500  0.12740  0.87260  1.0000 0.1337083929
H   H8        1.0  0.42500  0.87260  0.12740  1.0000 0.1337083929
H   H9        1.0  0.42500  0.12740  0.57500  1.0000 0.1337083929
H   H10       1.0  0.57500  0.87260  0.42500  1.0000 0.1337083929
H   H11       1.0  0.87260  0.57500  0.12740  1.0000 0.1337083929
H   H12       1.0  0.12740  0.42500  0.87260  1.0000 0.1337083929
H   H13       1.0  0.42500  0.57500  0.12740  1.0000 0.1337083929
H   H14       1.0  0.57500  0.42500  0.87260  1.0000 0.1337083929
H   H15       1.0  0.87260  0.12740  0.57500  1.0000 0.1337083929
H   H16       1.0  0.12740  0.87260  0.42500  1.0000 0.1337083929
H   H17       1.0  0.87260  0.42500  0.12740  1.0000 0.1337083929
H   H18       1.0  0.12740  0.57500  0.87260  1.0000 0.1337083929
H   H19       1.0  0.42500  0.87260  0.57500  1.0000 0.1337083929
H   H20       1.0  0.57500  0.12740  0.42500  1.0000 0.1337083929
H   H21       1.0  0.57500  0.87260  0.12740  1.0000 0.1337083929
H   H22       1.0  0.42500  0.12740  0.87260  1.0000 0.1337083929
H   H23       1.0  0.12740  0.42500  0.57500  1.0000 0.1337083929
H   H24       1.0  0.87260  0.57500  0.42500  1.0000 0.1337083929
C   C1        1.0  0.68620  0.31380  0.00000  1.0000 0.6288732504
C   C2        1.0  0.31380  0.68620  0.00000  1.0000 0.6288732504
C   C3        1.0  0.00000  0.00000  0.68620  1.0000 0.6288732504
C   C4        1.0  0.00000  0.00000  0.31380  1.0000 0.6288732504
C   C5        1.0  0.00000  0.68620  0.31380  1.0000 0.6288732504
C   C6        1.0  0.00000  0.31380  0.68620  1.0000 0.6288732504
C   C7        1.0  0.68620  0.00000  0.00000  1.0000 0.6288732504
C   C8        1.0  0.31380  0.00000  0.00000  1.0000 0.6288732504
C   C9        1.0  0.31380  0.00000  0.68620  1.0000 0.6288732504
C   C10       1.0  0.68620  0.00000  0.31380  1.0000 0.6288732504
C   C11       1.0  0.00000  0.68620  0.00000  1.0000 0.6288732504
C   C12       1.0  0.00000  0.31380  0.00000  1.0000 0.6288732504
C   C13       1.0  0.59000  0.41000  0.00000  1.0000 -0.0278047508
C   C14       1.0  0.41000  0.59000  0.00000  1.0000 -0.0278047508
C   C15       1.0  0.00000  0.00000  0.59000  1.0000 -0.0278047508
C   C16       1.0  0.00000  0.00000  0.41000  1.0000 -0.0278047508
C   C17       1.0  0.00000  0.59000  0.41000  1.0000 -0.0278047508
C   C18       1.0  0.00000  0.41000  0.59000  1.0000 -0.0278047508
C   C19       1.0  0.59000  0.00000  0.00000  1.0000 -0.0278047508
C   C20       1.0  0.41000  0.00000  0.00000  1.0000 -0.0278047508
C   C21       1.0  0.41000  0.00000  0.59000  1.0000 -0.0278047508
C   C22       1.0  0.59000  0.00000  0.41000  1.0000 -0.0278047508
C   C23       1.0  0.00000  0.59000  0.00000  1.0000 -0.0278047508
C   C24       1.0  0.00000  0.41000  0.00000  1.0000 -0.0278047508
C   C25       1.0  0.54530  0.45470  0.07530  1.0000 -0.0902743944
C   C26       1.0  0.45470  0.54530  0.92470  1.0000 -0.0902743944
C   C27       1.0  0.07530  0.92470  0.54530  1.0000 -0.0902743944
C   C28       1.0  0.92470  0.07530  0.45470  1.0000 -0.0902743944
C   C29       1.0  0.07530  0.54530  0.45470  1.0000 -0.0902743944
C   C30       1.0  0.92470  0.45470  0.54530  1.0000 -0.0902743944
C   C31       1.0  0.54530  0.07530  0.92470  1.0000 -0.0902743944
C   C32       1.0  0.45470  0.92470  0.07530  1.0000 -0.0902743944
C   C33       1.0  0.45470  0.07530  0.54530  1.0000 -0.0902743944
C   C34       1.0  0.54530  0.92470  0.45470  1.0000 -0.0902743944
C   C35       1.0  0.92470  0.54530  0.07530  1.0000 -0.0902743944
C   C36       1.0  0.07530  0.45470  0.92470  1.0000 -0.0902743944
C   C37       1.0  0.45470  0.54530  0.07530  1.0000 -0.0902743944
C   C38       1.0  0.54530  0.45470  0.92470  1.0000 -0.0902743944
C   C39       1.0  0.92470  0.07530  0.54530  1.0000 -0.0902743944
C   C40       1.0  0.07530  0.92470  0.45470  1.0000 -0.0902743944
C   C41       1.0  0.92470  0.45470  0.07530  1.0000 -0.0902743944
C   C42       1.0  0.07530  0.54530  0.92470  1.0000 -0.0902743944
C   C43       1.0  0.45470  0.92470  0.54530  1.0000 -0.0902743944
C   C44       1.0  0.54530  0.07530  0.45470  1.0000 -0.0902743944
C   C45       1.0  0.54530  0.92470  0.07530  1.0000 -0.0902743944
C   C46       1.0  0.45470  0.07530  0.92470  1.0000 -0.0902743944
C   C47       1.0  0.07530  0.45470  0.54530  1.0000 -0.0902743944
C   C48       1.0  0.92470  0.54530  0.45470  1.0000 -0.0902743944
O   O1        1.0  0.72360  0.27640  0.07280  1.0000 -0.5876072431
O   O2        1.0  0.27640  0.72360  0.92720  1.0000 -0.5876072431
O   O3        1.0  0.07280  0.92720  0.72360  1.0000 -0.5876072431
O   O4        1.0  0.92720  0.07280  0.27640  1.0000 -0.5876072431
O   O5        1.0  0.07280  0.72360  0.27640  1.0000 -0.5876072431
O   O6        1.0  0.92720  0.27640  0.72360  1.0000 -0.5876072431
O   O7        1.0  0.72360  0.07280  0.92720  1.0000 -0.5876072431
O   O8        1.0  0.27640  0.92720  0.07280  1.0000 -0.5876072431
O   O9        1.0  0.27640  0.07280  0.72360  1.0000 -0.5876072431
O   O10       1.0  0.72360  0.92720  0.27640  1.0000 -0.5876072431
O   O11       1.0  0.92720  0.72360  0.07280  1.0000 -0.5876072431
O   O12       1.0  0.07280  0.27640  0.92720  1.0000 -0.5876072431
O   O13       1.0  0.27640  0.72360  0.07280  1.0000 -0.5876072431
O   O14       1.0  0.72360  0.27640  0.92720  1.0000 -0.5876072431
O   O15       1.0  0.92720  0.07280  0.72360  1.0000 -0.5876072431
O   O16       1.0  0.07280  0.92720  0.27640  1.0000 -0.5876072431
O   O17       1.0  0.92720  0.27640  0.07280  1.0000 -0.5876072431
O   O18       1.0  0.07280  0.72360  0.92720  1.0000 -0.5876072431
O   O19       1.0  0.27640  0.92720  0.72360  1.0000 -0.5876072431
O   O20       1.0  0.72360  0.07280  0.27640  1.0000 -0.5876072431
O   O21       1.0  0.72360  0.92720  0.07280  1.0000 -0.5876072431
O   O22       1.0  0.27640  0.07280  0.92720  1.0000 -0.5876072431
O   O23       1.0  0.07280  0.27640  0.72360  1.0000 -0.5876072431
O   O24       1.0  0.92720  0.72360  0.27640  1.0000 -0.5876072431
O   O25       1.0  0.06180  0.06180  0.06180  1.0000 -1.0599511648
O   O26       1.0  0.06180  0.06180  0.81460  1.0000 -1.0665279413
O   O27       1.0  0.06180  0.81460  0.06180  1.0000 -1.0599511648
O   O28       1.0  0.81460  0.06180  0.06180  1.0000 -1.0599511648
O   O29       1.0  0.93820  0.93820  0.18540  1.0000 -1.0665279413
O   O30       1.0  0.93820  0.93820  0.93820  1.0000 -1.0665279413
O   O31       1.0  0.93820  0.18540  0.93820  1.0000 -1.0665279413
O   O32       1.0  0.18540  0.93820  0.93820  1.0000 -1.0665279413
