# DDEC6 charges by PACMAN v1.1 (https://github.com/mtap-research/PACMAN-charge/)
data_2015[Mg][nan]3[ASR]10
_chemical_formula_sum              "Mg6 H16 C28 N4 O20"
_cell_length_a       11.0494
_cell_length_b       11.0494
_cell_length_c       10.9978
_cell_angle_alpha    79.308
_cell_angle_beta     100.692
_cell_angle_gamma    109.517

_symmetry_space_group_name_H-M    "P 1"
_symmetry_Int_Tables_number       1

loop_
  _symmetry_equiv_pos_as_xyz
  'x, y, z'

loop_
  _atom_site_type_symbol
  _atom_site_label
  _atom_site_symmetry_multiplicity
  _atom_site_fract_x
  _atom_site_fract_y
  _atom_site_fract_z
  _atom_site_occupancy
  _atom_site_charge
Mg  Mg1       1.0  0.87849  0.04851  0.45874  1.0000 1.3269563867
Mg  Mg2       1.0  0.04851  0.87849  0.04126  1.0000 1.3269563867
Mg  Mg3       1.0  0.12151  0.95149  0.54126  1.0000 1.3269563867
Mg  Mg4       1.0  0.95149  0.12151  0.95874  1.0000 1.3269563867
Mg  Mg5       1.0  0.90174  0.90174  0.25000  1.0000 1.376415099
Mg  Mg6       1.0  0.09826  0.09826  0.75000  1.0000 1.376415099
H   H1        1.0  0.89260  0.81740  0.47200  1.0000 0.3915241463
H   H2        1.0  0.81740  0.89260  0.02800  1.0000 0.3915241463
H   H3        1.0  0.10740  0.18260  0.52800  1.0000 0.3915241463
H   H4        1.0  0.18260  0.10740  0.97200  1.0000 0.3915241463
H   H5        1.0  0.94950  0.43850  0.13600  1.0000 0.1504914714
H   H6        1.0  0.43850  0.94950  0.36400  1.0000 0.1504914714
H   H7        1.0  0.05050  0.56150  0.86400  1.0000 0.1504914714
H   H8        1.0  0.56150  0.05050  0.63600  1.0000 0.1504914714
H   H9        1.0  0.84380  0.51620  0.44100  1.0000 0.1308771475
H   H10       1.0  0.51620  0.84380  0.05900  1.0000 0.1308771475
H   H11       1.0  0.15620  0.48380  0.55900  1.0000 0.1308771475
H   H12       1.0  0.48380  0.15620  0.94100  1.0000 0.1308771475
H   H13       1.0  0.83380  0.29820  0.53400  1.0000 0.1012832662
H   H14       1.0  0.29820  0.83380  0.96600  1.0000 0.1012832662
H   H15       1.0  0.16620  0.70180  0.46600  1.0000 0.1012832662
H   H16       1.0  0.70180  0.16620  0.03400  1.0000 0.1012832662
C   C1        1.0  0.91559  0.29623  0.27240  1.0000 0.0881420439
C   C2        1.0  0.29623  0.91559  0.22760  1.0000 0.0881420439
C   C3        1.0  0.08441  0.70377  0.72760  1.0000 0.0881420439
C   C4        1.0  0.70377  0.08441  0.77240  1.0000 0.0881420439
C   C5        1.0  0.92755  0.42065  0.21410  1.0000 -0.145590187
C   C6        1.0  0.42065  0.92755  0.28590  1.0000 -0.145590187
C   C7        1.0  0.07245  0.57935  0.78590  1.0000 -0.145590187
C   C8        1.0  0.57935  0.07245  0.71410  1.0000 -0.145590187
C   C9        1.0  0.90255  0.50605  0.27750  1.0000 0.0269853091
C   C10       1.0  0.50605  0.90255  0.22250  1.0000 0.0269853091
C   C11       1.0  0.09745  0.49395  0.72250  1.0000 0.0269853091
C   C12       1.0  0.49395  0.09745  0.77750  1.0000 0.0269853091
C   C13       1.0  0.86374  0.46046  0.39520  1.0000 -0.1578812049
C   C14       1.0  0.46046  0.86374  0.10480  1.0000 -0.1578812049
C   C15       1.0  0.13626  0.53954  0.60480  1.0000 -0.1578812049
C   C16       1.0  0.53954  0.13626  0.89520  1.0000 -0.1578812049
C   C17       1.0  0.85451  0.33449  0.44670  1.0000 0.0881420439
C   C18       1.0  0.33449  0.85451  0.05330  1.0000 0.0881420439
C   C19       1.0  0.14549  0.66551  0.55330  1.0000 0.0881420439
C   C20       1.0  0.66551  0.14549  0.94670  1.0000 0.0881420439
C   C21       1.0  0.93963  0.19611  0.21100  1.0000 0.5893105893
C   C22       1.0  0.19611  0.93963  0.28900  1.0000 0.5893105893
C   C23       1.0  0.06037  0.80389  0.78900  1.0000 0.5893105893
C   C24       1.0  0.80389  0.06037  0.71100  1.0000 0.5893105893
C   C25       1.0  0.91944  0.64594  0.22250  1.0000 0.5893105893
C   C26       1.0  0.64594  0.91944  0.27750  1.0000 0.5893105893
C   C27       1.0  0.08056  0.35406  0.77750  1.0000 0.5893105893
C   C28       1.0  0.35406  0.08056  0.72250  1.0000 0.5893105893
N   N1        1.0  0.88112  0.25242  0.38797  1.0000 -0.3164572464
N   N2        1.0  0.25242  0.88112  0.11203  1.0000 -0.3164572464
N   N3        1.0  0.11888  0.74758  0.61203  1.0000 -0.3164572464
N   N4        1.0  0.74758  0.11888  0.88797  1.0000 -0.3164572464
O   O1        1.0  0.93793  0.09097  0.27946  1.0000 -0.6695906865
O   O2        1.0  0.09097  0.93793  0.22054  1.0000 -0.6695906865
O   O3        1.0  0.06207  0.90903  0.72054  1.0000 -0.6695906865
O   O4        1.0  0.90903  0.06207  0.77946  1.0000 -0.6695906865
O   O5        1.0  0.95607  0.22259  0.09916  1.0000 -0.5820046412
O   O6        1.0  0.22259  0.95607  0.40084  1.0000 -0.5820046412
O   O7        1.0  0.04393  0.77741  0.90084  1.0000 -0.5820046412
O   O8        1.0  0.77741  0.04393  0.59916  1.0000 -0.5820046412
O   O9        1.0  0.97930  0.68856  0.13017  1.0000 -0.6069114105
O   O10       1.0  0.68856  0.97930  0.36983  1.0000 -0.6069114105
O   O11       1.0  0.02070  0.31144  0.86983  1.0000 -0.6069114105
O   O12       1.0  0.31144  0.02070  0.63017  1.0000 -0.6069114105
O   O13       1.0  0.87328  0.70730  0.27613  1.0000 -0.6236017691
O   O14       1.0  0.70730  0.87328  0.22387  1.0000 -0.6236017691
O   O15       1.0  0.12672  0.29270  0.72387  1.0000 -0.6236017691
O   O16       1.0  0.29270  0.12672  0.77613  1.0000 -0.6236017691
O   O17       1.0  0.93441  0.89201  0.44627  1.0000 -1.0691933976
O   O18       1.0  0.89201  0.93441  0.05373  1.0000 -1.0691933976
O   O19       1.0  0.06559  0.10799  0.55373  1.0000 -1.0691933976
O   O20       1.0  0.10799  0.06559  0.94627  1.0000 -1.0691933976
