# DDEC6 charges by PACMAN v1.1 (https://github.com/mtap-research/PACMAN-charge/)
data_2015[Eu][nan]3[ASR]7
_chemical_formula_sum              "Eu4 H12 C40 O32"
_cell_length_a       10.7562
_cell_length_b       7.2075
_cell_length_c       19.1456
_cell_angle_alpha    90
_cell_angle_beta     116.814
_cell_angle_gamma    90

_symmetry_space_group_name_H-M    "P 1"
_symmetry_Int_Tables_number       1

loop_
  _symmetry_equiv_pos_as_xyz
  'x, y, z'

loop_
  _atom_site_type_symbol
  _atom_site_label
  _atom_site_symmetry_multiplicity
  _atom_site_fract_x
  _atom_site_fract_y
  _atom_site_fract_z
  _atom_site_occupancy
  _atom_site_charge
Eu  Eu1       1.0  0.42743  0.51964  0.75305  1.0000 2.0638686332
Eu  Eu2       1.0  0.42743  0.98036  0.25305  1.0000 2.0638686332
Eu  Eu3       1.0  0.57257  0.48036  0.24695  1.0000 2.0638686332
Eu  Eu4       1.0  0.57257  0.01964  0.74695  1.0000 2.0638686332
H   H1        1.0  0.88800  0.45760  0.55960  1.0000 0.3768840197
H   H2        1.0  0.88800  0.04240  0.05960  1.0000 0.3768840197
H   H3        1.0  0.11200  0.54240  0.44040  1.0000 0.3768840197
H   H4        1.0  0.11200  0.95760  0.94040  1.0000 0.3768840197
H   H5        1.0  0.52700  0.31610  0.01950  1.0000 0.1501894209
H   H6        1.0  0.52700  0.18390  0.51950  1.0000 0.1501894209
H   H7        1.0  0.47300  0.68390  0.98050  1.0000 0.1501894209
H   H8        1.0  0.47300  0.81610  0.48050  1.0000 0.1501894209
H   H9        1.0  0.78530  0.85230  0.45050  1.0000 0.1393639955
H   H10       1.0  0.78530  0.64770  0.95050  1.0000 0.1393639955
H   H11       1.0  0.21470  0.14770  0.54950  1.0000 0.1393639955
H   H12       1.0  0.21470  0.35230  0.04950  1.0000 0.1393639955
C   C1        1.0  0.43590  0.82820  0.85190  1.0000 0.6215555954
C   C2        1.0  0.43590  0.67180  0.35190  1.0000 0.6215555954
C   C3        1.0  0.56410  0.17180  0.14810  1.0000 0.6215555954
C   C4        1.0  0.56410  0.32820  0.64810  1.0000 0.6215555954
C   C5        1.0  0.46920  0.25050  0.87460  1.0000 0.6215555954
C   C6        1.0  0.46920  0.24950  0.37460  1.0000 0.6215555954
C   C7        1.0  0.53080  0.74950  0.12540  1.0000 0.6215555954
C   C8        1.0  0.53080  0.75050  0.62540  1.0000 0.6215555954
C   C9        1.0  0.48620  0.11750  0.93810  1.0000 -0.033039192
C   C10       1.0  0.48620  0.38250  0.43810  1.0000 -0.033039192
C   C11       1.0  0.51380  0.88250  0.06190  1.0000 -0.033039192
C   C12       1.0  0.51380  0.61750  0.56190  1.0000 -0.033039192
C   C13       1.0  0.46950  0.92540  0.92710  1.0000 -0.0162374754
C   C14       1.0  0.46950  0.57460  0.42710  1.0000 -0.0162374754
C   C15       1.0  0.53050  0.07460  0.07290  1.0000 -0.0162374754
C   C16       1.0  0.53050  0.42540  0.57290  1.0000 -0.0162374754
C   C17       1.0  0.51620  0.18860  0.01140  1.0000 -0.1080902082
C   C18       1.0  0.51620  0.31140  0.51140  1.0000 -0.1080902082
C   C19       1.0  0.48380  0.81140  0.98860  1.0000 -0.1080902082
C   C20       1.0  0.48380  0.68860  0.48860  1.0000 -0.1080902082
C   C21       1.0  0.24170  0.85150  0.63380  1.0000 0.6575875792
C   C22       1.0  0.24170  0.64850  0.13380  1.0000 0.6575875792
C   C23       1.0  0.75830  0.14850  0.36620  1.0000 0.6575875792
C   C24       1.0  0.75830  0.35150  0.86620  1.0000 0.6575875792
C   C25       1.0  0.11400  0.92910  0.56670  1.0000 -0.033039192
C   C26       1.0  0.11400  0.57090  0.06670  1.0000 -0.033039192
C   C27       1.0  0.88600  0.07090  0.43330  1.0000 -0.033039192
C   C28       1.0  0.88600  0.42910  0.93330  1.0000 -0.033039192
C   C29       1.0  0.95560  0.68180  0.57810  1.0000 0.5610269222
C   C30       1.0  0.95560  0.81820  0.07810  1.0000 0.5610269222
C   C31       1.0  0.04440  0.31820  0.42190  1.0000 0.5610269222
C   C32       1.0  0.04440  0.18180  0.92190  1.0000 0.5610269222
C   C33       1.0  0.98410  0.84210  0.53670  1.0000 -0.0392747636
C   C34       1.0  0.98410  0.65790  0.03670  1.0000 -0.0392747636
C   C35       1.0  0.01590  0.15790  0.46330  1.0000 -0.0392747636
C   C36       1.0  0.01590  0.34210  0.96330  1.0000 -0.0392747636
C   C37       1.0  0.87100  0.91220  0.47020  1.0000 -0.1184625414
C   C38       1.0  0.87100  0.58780  0.97020  1.0000 -0.1184625414
C   C39       1.0  0.12900  0.08780  0.52980  1.0000 -0.1184625414
C   C40       1.0  0.12900  0.41220  0.02980  1.0000 -0.1184625414
O   O1        1.0  0.46870  0.41970  0.88650  1.0000 -0.5713131961
O   O2        1.0  0.46870  0.08030  0.38650  1.0000 -0.5713131961
O   O3        1.0  0.53130  0.58030  0.11350  1.0000 -0.5713131961
O   O4        1.0  0.53130  0.91970  0.61350  1.0000 -0.5713131961
O   O5        1.0  0.99560  0.68450  0.64920  1.0000 -0.4766881478
O   O6        1.0  0.99560  0.81550  0.14920  1.0000 -0.4766881478
O   O7        1.0  0.00440  0.31550  0.35080  1.0000 -0.4766881478
O   O8        1.0  0.00440  0.18450  0.85080  1.0000 -0.4766881478
O   O9        1.0  0.88470  0.54840  0.53300  1.0000 -0.45188252
O   O10       1.0  0.88470  0.95160  0.03300  1.0000 -0.45188252
O   O11       1.0  0.11530  0.45160  0.46700  1.0000 -0.45188252
O   O12       1.0  0.11530  0.04840  0.96700  1.0000 -0.45188252
O   O13       1.0  0.53280  0.80760  0.83020  1.0000 -0.7494305458
O   O14       1.0  0.53280  0.69240  0.33020  1.0000 -0.7494305458
O   O15       1.0  0.46720  0.19240  0.16980  1.0000 -0.7494305458
O   O16       1.0  0.46720  0.30760  0.66980  1.0000 -0.7494305458
O   O17       1.0  0.45180  0.18880  0.80800  1.0000 -0.7395408538
O   O18       1.0  0.45180  0.31120  0.30800  1.0000 -0.7395408538
O   O19       1.0  0.54820  0.81120  0.19200  1.0000 -0.7395408538
O   O20       1.0  0.54820  0.68880  0.69200  1.0000 -0.7395408538
O   O21       1.0  0.32180  0.74810  0.81550  1.0000 -0.5455946413
O   O22       1.0  0.32180  0.75190  0.31550  1.0000 -0.5455946413
O   O23       1.0  0.67820  0.25190  0.18450  1.0000 -0.5455946413
O   O24       1.0  0.67820  0.24810  0.68450  1.0000 -0.5455946413
O   O25       1.0  0.25390  0.67840  0.64240  1.0000 -0.6541799393
O   O26       1.0  0.25390  0.82160  0.14240  1.0000 -0.6541799393
O   O27       1.0  0.74610  0.32160  0.35760  1.0000 -0.6541799393
O   O28       1.0  0.74610  0.17840  0.85760  1.0000 -0.6541799393
O   O29       1.0  0.33140  0.96770  0.67580  1.0000 -0.6556180802
O   O30       1.0  0.33140  0.53230  0.17580  1.0000 -0.6556180802
O   O31       1.0  0.66860  0.03230  0.32420  1.0000 -0.6541799393
O   O32       1.0  0.66860  0.46770  0.82420  1.0000 -0.6556180802
