# DDEC6 charges by PACMAN v1.1 (https://github.com/mtap-research/PACMAN-charge/)
data_2015[Cd][hcb]2[ASR]2
_chemical_formula_sum              "Cd4 H12 C36 O24"
_cell_length_a       8.929
_cell_length_b       15.5317
_cell_length_c       18.2988
_cell_angle_alpha    90
_cell_angle_beta     90
_cell_angle_gamma    90

_symmetry_space_group_name_H-M    "P 1"
_symmetry_Int_Tables_number       1

loop_
  _symmetry_equiv_pos_as_xyz
  'x, y, z'

loop_
  _atom_site_type_symbol
  _atom_site_label
  _atom_site_symmetry_multiplicity
  _atom_site_fract_x
  _atom_site_fract_y
  _atom_site_fract_z
  _atom_site_occupancy
  _atom_site_charge
Cd  Cd1       1.0  0.27667  0.15501  0.42416  1.0000 1.0094418503
Cd  Cd2       1.0  0.72333  0.65501  0.57584  1.0000 1.0094418503
Cd  Cd3       1.0  0.72333  0.15501  0.92416  1.0000 1.0094418503
Cd  Cd4       1.0  0.27667  0.65501  0.07584  1.0000 1.0094418503
H   H1        1.0  0.73830  0.93040  0.73980  1.0000 0.1360146546
H   H2        1.0  0.26170  0.43040  0.26020  1.0000 0.1360146546
H   H3        1.0  0.26170  0.93040  0.23980  1.0000 0.1360146546
H   H4        1.0  0.73830  0.43040  0.76020  1.0000 0.1360146546
H   H5        1.0  0.51800  0.92920  0.54960  1.0000 0.1342361845
H   H6        1.0  0.48200  0.42920  0.45040  1.0000 0.1342361845
H   H7        1.0  0.48200  0.92920  0.04960  1.0000 0.1342361845
H   H8        1.0  0.51800  0.42920  0.95040  1.0000 0.1360146546
H   H9        1.0  0.47990  0.13000  0.68580  1.0000 0.1360146546
H   H10       1.0  0.52010  0.63000  0.31420  1.0000 0.1360146546
H   H11       1.0  0.52010  0.13000  0.18580  1.0000 0.1360146546
H   H12       1.0  0.47990  0.63000  0.81420  1.0000 0.1360146546
C   C1        1.0  0.64970  0.07910  0.79610  1.0000 0.5390945154
C   C2        1.0  0.35030  0.57910  0.20390  1.0000 0.5390945154
C   C3        1.0  0.35030  0.07910  0.29610  1.0000 0.5390945154
C   C4        1.0  0.64970  0.57910  0.70390  1.0000 0.5390945154
C   C5        1.0  0.61470  0.03640  0.72370  1.0000 -0.0181262959
C   C6        1.0  0.38530  0.53640  0.27630  1.0000 -0.0181262959
C   C7        1.0  0.38530  0.03640  0.22370  1.0000 -0.0181262959
C   C8        1.0  0.61470  0.53640  0.77630  1.0000 -0.0181262959
C   C9        1.0  0.70170  0.82760  0.62590  1.0000 0.5390945154
C   C10       1.0  0.29830  0.32760  0.37410  1.0000 0.5390945154
C   C11       1.0  0.29830  0.82760  0.12590  1.0000 0.5390945154
C   C12       1.0  0.70170  0.32760  0.87410  1.0000 0.5390945154
C   C13       1.0  0.39610  0.08470  0.55020  1.0000 0.5390945154
C   C14       1.0  0.60390  0.58470  0.44980  1.0000 0.5390945154
C   C15       1.0  0.60390  0.08470  0.05020  1.0000 0.5390945154
C   C16       1.0  0.39610  0.58470  0.94980  1.0000 0.5390945154
C   C17       1.0  0.67370  0.95690  0.70680  1.0000 -0.0780225523
C   C18       1.0  0.32630  0.45690  0.29320  1.0000 -0.0780225523
C   C19       1.0  0.32630  0.95690  0.20680  1.0000 -0.0780225523
C   C20       1.0  0.67370  0.45690  0.79320  1.0000 -0.0780225523
C   C21       1.0  0.48870  0.03860  0.60770  1.0000 -0.0181262959
C   C22       1.0  0.51130  0.53860  0.39230  1.0000 -0.0181262959
C   C23       1.0  0.51130  0.03860  0.10770  1.0000 -0.0181262959
C   C24       1.0  0.48870  0.53860  0.89230  1.0000 -0.0181262959
C   C25       1.0  0.54450  0.95670  0.59290  1.0000 -0.0780225523
C   C26       1.0  0.45550  0.45670  0.40710  1.0000 -0.0780225523
C   C27       1.0  0.45550  0.95670  0.09290  1.0000 -0.0780225523
C   C28       1.0  0.54450  0.45670  0.90710  1.0000 -0.0780225523
C   C29       1.0  0.63930  0.91550  0.64210  1.0000 -0.0181262959
C   C30       1.0  0.36070  0.41550  0.35790  1.0000 -0.0181262959
C   C31       1.0  0.36070  0.91550  0.14210  1.0000 -0.0181262959
C   C32       1.0  0.63930  0.41550  0.85790  1.0000 -0.0181262959
C   C33       1.0  0.52130  0.07670  0.67430  1.0000 -0.0780225523
C   C34       1.0  0.47870  0.57670  0.32570  1.0000 -0.0727225993
C   C35       1.0  0.47870  0.07670  0.17430  1.0000 -0.0727225993
C   C36       1.0  0.52130  0.57670  0.82570  1.0000 -0.0780225523
O   O1        1.0  0.33880  0.15510  0.56415  1.0000 -0.4470716738
O   O2        1.0  0.66120  0.65510  0.43585  1.0000 -0.4470716738
O   O3        1.0  0.66120  0.15510  0.06415  1.0000 -0.4470716738
O   O4        1.0  0.33880  0.65510  0.93585  1.0000 -0.4470716738
O   O5        1.0  0.77050  0.06030  0.82770  1.0000 -0.4688884378
O   O6        1.0  0.22950  0.56030  0.17230  1.0000 -0.4688884378
O   O7        1.0  0.22950  0.06030  0.32770  1.0000 -0.4688884378
O   O8        1.0  0.77050  0.56030  0.67230  1.0000 -0.4688884378
O   O9        1.0  0.79130  0.79480  0.66890  1.0000 -0.433156582
O   O10       1.0  0.20870  0.29480  0.33110  1.0000 -0.4359139425
O   O11       1.0  0.20870  0.79480  0.16890  1.0000 -0.4359139425
O   O12       1.0  0.79130  0.29480  0.83110  1.0000 -0.4359139425
O   O13       1.0  0.38440  0.04900  0.48851  1.0000 -0.4804941141
O   O14       1.0  0.61560  0.54900  0.51149  1.0000 -0.4804941141
O   O15       1.0  0.61560  0.04900  0.98851  1.0000 -0.4804941141
O   O16       1.0  0.38440  0.54900  0.01149  1.0000 -0.4804941141
O   O17       1.0  0.65440  0.79060  0.56941  1.0000 -0.4688884378
O   O18       1.0  0.34560  0.29060  0.43059  1.0000 -0.4688884378
O   O19       1.0  0.34560  0.79060  0.06941  1.0000 -0.4688884378
O   O20       1.0  0.65440  0.29060  0.93059  1.0000 -0.4688884378
O   O21       1.0  0.55750  0.13100  0.82217  1.0000 -0.4470716738
O   O22       1.0  0.44250  0.63100  0.17783  1.0000 -0.4470716738
O   O23       1.0  0.44250  0.13100  0.32217  1.0000 -0.4470716738
O   O24       1.0  0.55750  0.63100  0.67783  1.0000 -0.4470716738
