# DDEC6 charges by PACMAN v1.1 (https://github.com/mtap-research/PACMAN-charge/)
data_2015[Cu][utp]3[ASR]1
_chemical_formula_sum              "Cu8 H56 C104 N8 O32"
_cell_length_a       7.0312
_cell_length_b       17.2274
_cell_length_c       20.124
_cell_angle_alpha    90
_cell_angle_beta     90
_cell_angle_gamma    90

_symmetry_space_group_name_H-M    "P 1"
_symmetry_Int_Tables_number       1

loop_
  _symmetry_equiv_pos_as_xyz
  'x, y, z'

loop_
  _atom_site_type_symbol
  _atom_site_label
  _atom_site_symmetry_multiplicity
  _atom_site_fract_x
  _atom_site_fract_y
  _atom_site_fract_z
  _atom_site_occupancy
  _atom_site_charge
Cu  Cu1       1.0  0.65449  0.40521  0.99144  1.0000 0.746746314
Cu  Cu2       1.0  0.34551  0.09479  0.49144  1.0000 0.746746314
Cu  Cu3       1.0  0.15449  0.59479  0.49144  1.0000 0.746746314
Cu  Cu4       1.0  0.84551  0.90521  0.99144  1.0000 0.746746314
Cu  Cu5       1.0  0.84551  0.40521  0.50856  1.0000 0.746746314
Cu  Cu6       1.0  0.15449  0.09479  0.00856  1.0000 0.746746314
Cu  Cu7       1.0  0.34551  0.59479  0.00856  1.0000 0.746746314
Cu  Cu8       1.0  0.65449  0.90521  0.50856  1.0000 0.746746314
H   H1        1.0  0.85600  0.65300  0.01210  1.0000 0.1397168101
H   H2        1.0  0.14400  0.84700  0.51210  1.0000 0.1397168101
H   H3        1.0  0.35600  0.34700  0.51210  1.0000 0.1397168101
H   H4        1.0  0.64400  0.15300  0.01210  1.0000 0.1397168101
H   H5        1.0  0.04230  0.73980  0.18410  1.0000 0.1210253784
H   H6        1.0  0.95770  0.76020  0.68410  1.0000 0.1210253784
H   H7        1.0  0.54230  0.26020  0.68410  1.0000 0.1210253784
H   H8        1.0  0.45770  0.23980  0.18410  1.0000 0.1210253784
H   H9        1.0  0.90250  0.51580  0.17110  1.0000 0.1210253784
H   H10       1.0  0.09750  0.98420  0.67110  1.0000 0.1210253784
H   H11       1.0  0.40250  0.48420  0.67110  1.0000 0.1210253784
H   H12       1.0  0.59750  0.01580  0.17110  1.0000 0.1210253784
H   H13       1.0  0.97550  0.72930  0.28870  1.0000 0.1397168101
H   H14       1.0  0.02450  0.77070  0.78870  1.0000 0.1397168101
H   H15       1.0  0.47550  0.27070  0.78870  1.0000 0.1397168101
H   H16       1.0  0.52450  0.22930  0.28870  1.0000 0.1397168101
H   H17       1.0  0.03080  0.71560  0.39830  1.0000 0.1210253784
H   H18       1.0  0.96920  0.78440  0.89830  1.0000 0.1210253784
H   H19       1.0  0.53080  0.28440  0.89830  1.0000 0.1210253784
H   H20       1.0  0.46920  0.21560  0.39830  1.0000 0.1210253784
H   H21       1.0  0.12290  0.49320  0.37520  1.0000 0.1272765633
H   H22       1.0  0.87710  0.00680  0.87520  1.0000 0.1272765633
H   H23       1.0  0.62290  0.50680  0.87520  1.0000 0.1272765633
H   H24       1.0  0.37710  0.99320  0.37520  1.0000 0.1272765633
H   H25       1.0  0.05870  0.50240  0.26520  1.0000 0.1397168101
H   H26       1.0  0.94130  0.99760  0.76520  1.0000 0.1397168101
H   H27       1.0  0.55870  0.49760  0.76520  1.0000 0.1397168101
H   H28       1.0  0.44130  0.00240  0.26520  1.0000 0.1397168101
H   H29       1.0  0.64400  0.65300  0.48790  1.0000 0.1397168101
H   H30       1.0  0.35600  0.84700  0.98790  1.0000 0.1397168101
H   H31       1.0  0.14400  0.34700  0.98790  1.0000 0.1397168101
H   H32       1.0  0.85600  0.15300  0.48790  1.0000 0.1397168101
H   H33       1.0  0.45770  0.73980  0.31590  1.0000 0.1210253784
H   H34       1.0  0.54230  0.76020  0.81590  1.0000 0.1210253784
H   H35       1.0  0.95770  0.26020  0.81590  1.0000 0.1210253784
H   H36       1.0  0.04230  0.23980  0.31590  1.0000 0.1210253784
H   H37       1.0  0.59750  0.51580  0.32890  1.0000 0.1210253784
H   H38       1.0  0.40250  0.98420  0.82890  1.0000 0.1210253784
H   H39       1.0  0.09750  0.48420  0.82890  1.0000 0.1210253784
H   H40       1.0  0.90250  0.01580  0.32890  1.0000 0.1210253784
H   H41       1.0  0.52450  0.72930  0.21130  1.0000 0.1397168101
H   H42       1.0  0.47550  0.77070  0.71130  1.0000 0.1397168101
H   H43       1.0  0.02450  0.27070  0.71130  1.0000 0.1397168101
H   H44       1.0  0.97550  0.22930  0.21130  1.0000 0.1397168101
H   H45       1.0  0.46920  0.71560  0.10170  1.0000 0.1210253784
H   H46       1.0  0.53080  0.78440  0.60170  1.0000 0.1210253784
H   H47       1.0  0.96920  0.28440  0.60170  1.0000 0.1210253784
H   H48       1.0  0.03080  0.21560  0.10170  1.0000 0.1210253784
H   H49       1.0  0.37710  0.49320  0.12480  1.0000 0.1272765633
H   H50       1.0  0.62290  0.00680  0.62480  1.0000 0.1272765633
H   H51       1.0  0.87710  0.50680  0.62480  1.0000 0.1272765633
H   H52       1.0  0.12290  0.99320  0.12480  1.0000 0.1272765633
H   H53       1.0  0.44130  0.50240  0.23480  1.0000 0.1397168101
H   H54       1.0  0.55870  0.99760  0.73480  1.0000 0.1397168101
H   H55       1.0  0.94130  0.49760  0.73480  1.0000 0.1397168101
H   H56       1.0  0.05870  0.00240  0.23480  1.0000 0.1397168101
C   C1        1.0  0.79310  0.50848  0.04843  1.0000 0.5091628779
C   C2        1.0  0.20690  0.99152  0.54843  1.0000 0.5091628779
C   C3        1.0  0.29310  0.49152  0.54843  1.0000 0.5091628779
C   C4        1.0  0.70690  0.00848  0.04843  1.0000 0.5091628779
C   C5        1.0  0.96450  0.78811  0.06469  1.0000 0.5517886404
C   C6        1.0  0.03550  0.71189  0.56469  1.0000 0.5517886404
C   C7        1.0  0.46450  0.21189  0.56469  1.0000 0.5517886404
C   C8        1.0  0.53550  0.28811  0.06469  1.0000 0.5517886404
C   C9        1.0  0.87300  0.57398  0.08699  1.0000 -0.0142257267
C   C10       1.0  0.12700  0.92602  0.58699  1.0000 -0.0142257267
C   C11       1.0  0.37300  0.42602  0.58699  1.0000 -0.0142257267
C   C12       1.0  0.62700  0.07398  0.08699  1.0000 -0.0142257267
C   C13       1.0  0.88870  0.64633  0.05655  1.0000 -0.1216053681
C   C14       1.0  0.11130  0.85367  0.55655  1.0000 -0.1216053681
C   C15       1.0  0.38870  0.35367  0.55655  1.0000 -0.1216053681
C   C16       1.0  0.61130  0.14633  0.05655  1.0000 -0.1216053681
C   C17       1.0  0.95430  0.70780  0.09411  1.0000 -0.0047280368
C   C18       1.0  0.04570  0.79220  0.59411  1.0000 -0.0047280368
C   C19       1.0  0.45430  0.29220  0.59411  1.0000 -0.0047280368
C   C20       1.0  0.54570  0.20780  0.09411  1.0000 -0.0047280368
C   C21       1.0  0.99760  0.69772  0.15977  1.0000 -0.1513031663
C   C22       1.0  0.00240  0.80228  0.65977  1.0000 -0.1513031663
C   C23       1.0  0.49760  0.30228  0.65977  1.0000 -0.1513031663
C   C24       1.0  0.50240  0.19772  0.15977  1.0000 -0.1513031663
C   C25       1.0  0.97690  0.62627  0.19121  1.0000 0.0476217207
C   C26       1.0  0.02310  0.87373  0.69121  1.0000 0.0476217207
C   C27       1.0  0.47690  0.37373  0.69121  1.0000 0.0476217207
C   C28       1.0  0.52310  0.12627  0.19121  1.0000 0.0476217207
C   C29       1.0  0.91510  0.56465  0.15204  1.0000 -0.1513031663
C   C30       1.0  0.08490  0.93535  0.65204  1.0000 -0.1513031663
C   C31       1.0  0.41510  0.43535  0.65204  1.0000 -0.1513031663
C   C32       1.0  0.58490  0.06465  0.15204  1.0000 -0.1513031663
C   C33       1.0  0.01100  0.61771  0.26247  1.0000 0.1103934639
C   C34       1.0  0.98900  0.88229  0.76247  1.0000 0.1103934639
C   C35       1.0  0.51100  0.38229  0.76247  1.0000 0.1103934639
C   C36       1.0  0.48900  0.11771  0.26247  1.0000 0.1103934639
C   C37       1.0  0.00460  0.68043  0.30546  1.0000 -0.1866726544
C   C38       1.0  0.99540  0.81957  0.80546  1.0000 -0.1866726544
C   C39       1.0  0.50460  0.31957  0.80546  1.0000 -0.1866726544
C   C40       1.0  0.49540  0.18043  0.30546  1.0000 -0.1866726544
C   C41       1.0  0.03960  0.67227  0.37097  1.0000 0.0890678626
C   C42       1.0  0.96040  0.82773  0.87097  1.0000 0.0890678626
C   C43       1.0  0.53960  0.32773  0.87097  1.0000 0.0890678626
C   C44       1.0  0.46040  0.17227  0.37097  1.0000 0.0890678626
C   C45       1.0  0.09240  0.54147  0.35753  1.0000 0.0890678626
C   C46       1.0  0.90760  0.95853  0.85753  1.0000 0.0890678626
C   C47       1.0  0.59240  0.45853  0.85753  1.0000 0.0890678626
C   C48       1.0  0.40760  0.04147  0.35753  1.0000 0.0890678626
C   C49       1.0  0.05490  0.54687  0.29136  1.0000 -0.1866726544
C   C50       1.0  0.94510  0.95313  0.79136  1.0000 -0.1866726544
C   C51       1.0  0.55490  0.45313  0.79136  1.0000 -0.1866726544
C   C52       1.0  0.44510  0.04687  0.29136  1.0000 -0.1866726544
C   C53       1.0  0.70690  0.50848  0.45157  1.0000 0.5091628779
C   C54       1.0  0.29310  0.99152  0.95157  1.0000 0.5091628779
C   C55       1.0  0.20690  0.49152  0.95157  1.0000 0.5091628779
C   C56       1.0  0.79310  0.00848  0.45157  1.0000 0.5091628779
C   C57       1.0  0.53550  0.78811  0.43531  1.0000 0.5517886404
C   C58       1.0  0.46450  0.71189  0.93531  1.0000 0.5517886404
C   C59       1.0  0.03550  0.21189  0.93531  1.0000 0.5517886404
C   C60       1.0  0.96450  0.28811  0.43531  1.0000 0.5517886404
C   C61       1.0  0.62700  0.57398  0.41301  1.0000 -0.0142257267
C   C62       1.0  0.37300  0.92602  0.91301  1.0000 -0.0142257267
C   C63       1.0  0.12700  0.42602  0.91301  1.0000 -0.0142257267
C   C64       1.0  0.87300  0.07398  0.41301  1.0000 -0.0142257267
C   C65       1.0  0.61130  0.64633  0.44345  1.0000 -0.1216053681
C   C66       1.0  0.38870  0.85367  0.94345  1.0000 -0.1216053681
C   C67       1.0  0.11130  0.35367  0.94345  1.0000 -0.1216053681
C   C68       1.0  0.88870  0.14633  0.44345  1.0000 -0.1216053681
C   C69       1.0  0.54570  0.70780  0.40589  1.0000 -0.0047280368
C   C70       1.0  0.45430  0.79220  0.90589  1.0000 -0.0047280368
C   C71       1.0  0.04570  0.29220  0.90589  1.0000 -0.0047280368
C   C72       1.0  0.95430  0.20780  0.40589  1.0000 -0.0047280368
C   C73       1.0  0.50240  0.69772  0.34023  1.0000 -0.1513031663
C   C74       1.0  0.49760  0.80228  0.84023  1.0000 -0.1513031663
C   C75       1.0  0.00240  0.30228  0.84023  1.0000 -0.1513031663
C   C76       1.0  0.99760  0.19772  0.34023  1.0000 -0.1513031663
C   C77       1.0  0.52310  0.62627  0.30879  1.0000 0.0476217207
C   C78       1.0  0.47690  0.87373  0.80879  1.0000 0.0476217207
C   C79       1.0  0.02310  0.37373  0.80879  1.0000 0.0476217207
C   C80       1.0  0.97690  0.12627  0.30879  1.0000 0.0476217207
C   C81       1.0  0.58490  0.56465  0.34796  1.0000 -0.1513031663
C   C82       1.0  0.41510  0.93535  0.84796  1.0000 -0.1513031663
C   C83       1.0  0.08490  0.43535  0.84796  1.0000 -0.1513031663
C   C84       1.0  0.91510  0.06465  0.34796  1.0000 -0.1513031663
C   C85       1.0  0.48900  0.61771  0.23753  1.0000 0.1103934639
C   C86       1.0  0.51100  0.88229  0.73753  1.0000 0.1103934639
C   C87       1.0  0.98900  0.38229  0.73753  1.0000 0.1103934639
C   C88       1.0  0.01100  0.11771  0.23753  1.0000 0.1103934639
C   C89       1.0  0.49540  0.68043  0.19454  1.0000 -0.1866726544
C   C90       1.0  0.50460  0.81957  0.69454  1.0000 -0.1866726544
C   C91       1.0  0.99540  0.31957  0.69454  1.0000 -0.1866726544
C   C92       1.0  0.00460  0.18043  0.19454  1.0000 -0.1846204277
C   C93       1.0  0.46040  0.67227  0.12903  1.0000 0.0890678626
C   C94       1.0  0.53960  0.82773  0.62903  1.0000 0.0890678626
C   C95       1.0  0.96040  0.32773  0.62903  1.0000 0.0890678626
C   C96       1.0  0.03960  0.17227  0.12903  1.0000 0.0890678626
C   C97       1.0  0.40760  0.54147  0.14247  1.0000 0.0890678626
C   C98       1.0  0.59240  0.95853  0.64247  1.0000 0.0890678626
C   C99       1.0  0.90760  0.45853  0.64247  1.0000 0.0890678626
C   C100      1.0  0.09240  0.04147  0.14247  1.0000 0.0890678626
C   C101      1.0  0.44510  0.54687  0.20864  1.0000 -0.1866726544
C   C102      1.0  0.55490  0.95313  0.70864  1.0000 -0.1866726544
C   C103      1.0  0.94510  0.45313  0.70864  1.0000 -0.1866726544
C   C104      1.0  0.05490  0.04687  0.20864  1.0000 -0.1866726544
N   N1        1.0  0.08710  0.60317  0.39824  1.0000 -0.2550735648
N   N2        1.0  0.91290  0.89683  0.89824  1.0000 -0.2550735648
N   N3        1.0  0.58710  0.39683  0.89824  1.0000 -0.2550735648
N   N4        1.0  0.41290  0.10317  0.39824  1.0000 -0.2546902772
N   N5        1.0  0.41290  0.60317  0.10176  1.0000 -0.2550735648
N   N6        1.0  0.58710  0.89683  0.60176  1.0000 -0.2550735648
N   N7        1.0  0.91290  0.39683  0.60176  1.0000 -0.2550735648
N   N8        1.0  0.08710  0.10317  0.10176  1.0000 -0.2546902772
O   O1        1.0  0.79550  0.44124  0.07222  1.0000 -0.4481418159
O   O2        1.0  0.20450  0.05876  0.57222  1.0000 -0.4481418159
O   O3        1.0  0.29550  0.55876  0.57222  1.0000 -0.4481418159
O   O4        1.0  0.70450  0.94124  0.07222  1.0000 -0.4481418159
O   O5        1.0  0.72010  0.51719  0.99293  1.0000 -0.4881727572
O   O6        1.0  0.27990  0.98281  0.49293  1.0000 -0.4881727572
O   O7        1.0  0.22010  0.48281  0.49293  1.0000 -0.4881727572
O   O8        1.0  0.77990  0.01719  0.99293  1.0000 -0.4881727572
O   O9        1.0  0.86990  0.79861  0.01188  1.0000 -0.5195518013
O   O10       1.0  0.13010  0.70139  0.51188  1.0000 -0.5195518013
O   O11       1.0  0.36990  0.20139  0.51188  1.0000 -0.5195518013
O   O12       1.0  0.63010  0.29861  0.01188  1.0000 -0.5195518013
O   O13       1.0  0.05730  0.83898  0.09236  1.0000 -0.5262535091
O   O14       1.0  0.94270  0.66102  0.59236  1.0000 -0.5262535091
O   O15       1.0  0.55730  0.16102  0.59236  1.0000 -0.5262535091
O   O16       1.0  0.44270  0.33898  0.09236  1.0000 -0.5262535091
O   O17       1.0  0.70450  0.44124  0.42778  1.0000 -0.4481418159
O   O18       1.0  0.29550  0.05876  0.92778  1.0000 -0.4481418159
O   O19       1.0  0.20450  0.55876  0.92778  1.0000 -0.4481418159
O   O20       1.0  0.79550  0.94124  0.42778  1.0000 -0.4481418159
O   O21       1.0  0.77990  0.51719  0.50707  1.0000 -0.4881727572
O   O22       1.0  0.22010  0.98281  0.00707  1.0000 -0.4881727572
O   O23       1.0  0.27990  0.48281  0.00707  1.0000 -0.4881727572
O   O24       1.0  0.72010  0.01719  0.50707  1.0000 -0.4881727572
O   O25       1.0  0.63010  0.79861  0.48812  1.0000 -0.5195518013
O   O26       1.0  0.36990  0.70139  0.98812  1.0000 -0.5195518013
O   O27       1.0  0.13010  0.20139  0.98812  1.0000 -0.5195518013
O   O28       1.0  0.86990  0.29861  0.48812  1.0000 -0.5195518013
O   O29       1.0  0.44270  0.83898  0.40764  1.0000 -0.5262535091
O   O30       1.0  0.55730  0.66102  0.90764  1.0000 -0.5262535091
O   O31       1.0  0.94270  0.16102  0.90764  1.0000 -0.5262535091
O   O32       1.0  0.05730  0.33898  0.40764  1.0000 -0.5262535091
