# DDEC6 charges by PACMAN v1.1 (https://github.com/mtap-research/PACMAN-charge/)
data_2016[Tb][ant]3[ASR]1
_chemical_formula_sum              "Tb4 H12 C28 S2 N4 O24"
_cell_length_a       14.7947
_cell_length_b       14.7947
_cell_length_c       6.762
_cell_angle_alpha    87.8295
_cell_angle_beta     92.1705
_cell_angle_gamma    125.378

_symmetry_space_group_name_H-M    "P 1"
_symmetry_Int_Tables_number       1

loop_
  _symmetry_equiv_pos_as_xyz
  'x, y, z'

loop_
  _atom_site_type_symbol
  _atom_site_label
  _atom_site_symmetry_multiplicity
  _atom_site_fract_x
  _atom_site_fract_y
  _atom_site_fract_z
  _atom_site_occupancy
  _atom_site_charge
Tb  Tb1       1.0  0.91044  0.70326  0.01157  1.0000 2.0707594782
Tb  Tb2       1.0  0.70326  0.91044  0.48843  1.0000 2.0707594782
Tb  Tb3       1.0  0.08956  0.29674  0.98843  1.0000 2.0707594782
Tb  Tb4       1.0  0.29674  0.08956  0.51157  1.0000 2.0628760884
H   H1        1.0  0.59210  0.30590  0.05170  1.0000 0.1176508683
H   H2        1.0  0.30590  0.59210  0.44830  1.0000 0.1176508683
H   H3        1.0  0.40790  0.69410  0.94830  1.0000 0.1176508683
H   H4        1.0  0.69410  0.40790  0.55170  1.0000 0.1176508683
H   H5        1.0  0.88180  0.34240  0.08960  1.0000 0.1290185991
H   H6        1.0  0.34240  0.88180  0.41040  1.0000 0.1290185991
H   H7        1.0  0.11820  0.65760  0.91040  1.0000 0.1290185991
H   H8        1.0  0.65760  0.11820  0.58960  1.0000 0.1290185991
H   H9        1.0  0.59180  0.04420  0.13370  1.0000 0.1142433713
H   H10       1.0  0.04420  0.59180  0.36630  1.0000 0.1142433713
H   H11       1.0  0.40820  0.95580  0.86630  1.0000 0.1142433713
H   H12       1.0  0.95580  0.40820  0.63370  1.0000 0.1142433713
C   C1        1.0  0.63130  0.27450  0.06910  1.0000 0.0544877517
C   C2        1.0  0.27450  0.63130  0.43090  1.0000 0.0544877517
C   C3        1.0  0.36870  0.72550  0.93090  1.0000 0.0544877517
C   C4        1.0  0.72550  0.36870  0.56910  1.0000 0.0544877517
C   C5        1.0  0.74570  0.34470  0.06690  1.0000 -0.0735362122
C   C6        1.0  0.34470  0.74570  0.43310  1.0000 -0.0735362122
C   C7        1.0  0.25430  0.65530  0.93310  1.0000 -0.0735362122
C   C8        1.0  0.65530  0.25430  0.56690  1.0000 -0.0735362122
C   C9        1.0  0.80470  0.29790  0.08930  1.0000 -0.0735362122
C   C10       1.0  0.29790  0.80470  0.41070  1.0000 -0.0735362122
C   C11       1.0  0.19530  0.70210  0.91070  1.0000 -0.0735362122
C   C12       1.0  0.70210  0.19530  0.58930  1.0000 -0.0735362122
C   C13       1.0  0.74586  0.18314  0.11120  1.0000 -0.0828255211
C   C14       1.0  0.18314  0.74586  0.38880  1.0000 -0.0828255211
C   C15       1.0  0.25414  0.81686  0.88880  1.0000 -0.0828255211
C   C16       1.0  0.81686  0.25414  0.61120  1.0000 -0.0828255211
C   C17       1.0  0.63080  0.12060  0.11540  1.0000 0.0605505126
C   C18       1.0  0.12060  0.63080  0.38460  1.0000 0.0605505126
C   C19       1.0  0.36920  0.87940  0.88460  1.0000 0.0605505126
C   C20       1.0  0.87940  0.36920  0.61540  1.0000 0.0605505126
C   C21       1.0  0.80320  0.46760  0.04500  1.0000 0.5675756465
C   C22       1.0  0.46760  0.80320  0.45500  1.0000 0.5675756465
C   C23       1.0  0.19680  0.53240  0.95500  1.0000 0.5675756465
C   C24       1.0  0.53240  0.19680  0.54500  1.0000 0.5675756465
C   C25       1.0  0.80240  0.12520  0.13540  1.0000 0.6450871061
C   C26       1.0  0.12520  0.80240  0.36460  1.0000 0.6450871061
C   C27       1.0  0.19760  0.87480  0.86460  1.0000 0.6450871061
C   C28       1.0  0.87480  0.19760  0.63540  1.0000 0.6450871061
S   S1        1.0  0.79868  0.79868  0.75000  1.0000 1.3128560613
S   S2        1.0  0.20132  0.20132  0.25000  1.0000 1.3009495567
N   N1        1.0  0.57309  0.16451  0.09440  1.0000 -0.229388537
N   N2        1.0  0.16451  0.57309  0.40560  1.0000 -0.229388537
N   N3        1.0  0.42691  0.83549  0.90560  1.0000 -0.229388537
N   N4        1.0  0.83549  0.42691  0.59440  1.0000 -0.229388537
O   O1        1.0  0.74613  0.50327  0.99270  1.0000 -0.635285742
O   O2        1.0  0.50327  0.74613  0.50730  1.0000 -0.635285742
O   O3        1.0  0.25387  0.49673  0.00730  1.0000 -0.635285742
O   O4        1.0  0.49673  0.25387  0.49270  1.0000 -0.6339334418
O   O5        1.0  0.90600  0.53240  0.07720  1.0000 -0.6180065741
O   O6        1.0  0.53240  0.90600  0.42280  1.0000 -0.6180065741
O   O7        1.0  0.09400  0.46760  0.92280  1.0000 -0.6180065741
O   O8        1.0  0.46760  0.09400  0.57720  1.0000 -0.6180065741
O   O9        1.0  0.90225  0.17835  0.09590  1.0000 -0.635285742
O   O10       1.0  0.17835  0.90225  0.40410  1.0000 -0.6339334418
O   O11       1.0  0.09775  0.82165  0.90410  1.0000 -0.635285742
O   O12       1.0  0.82165  0.09775  0.59590  1.0000 -0.635285742
O   O13       1.0  0.74408  0.02492  0.19090  1.0000 -0.6541022827
O   O14       1.0  0.02492  0.74408  0.30910  1.0000 -0.6541022827
O   O15       1.0  0.25592  0.97508  0.80910  1.0000 -0.6541022827
O   O16       1.0  0.97508  0.25592  0.69090  1.0000 -0.6541022827
O   O17       1.0  0.90475  0.81565  0.70930  1.0000 -0.6916863789
O   O18       1.0  0.81565  0.90475  0.79070  1.0000 -0.6916863789
O   O19       1.0  0.09525  0.18435  0.29070  1.0000 -0.6916863789
O   O20       1.0  0.18435  0.09525  0.20930  1.0000 -0.6916863789
O   O21       1.0  0.75498  0.72402  0.92190  1.0000 -0.7178768386
O   O22       1.0  0.72402  0.75498  0.57810  1.0000 -0.7178768386
O   O23       1.0  0.24502  0.27598  0.07810  1.0000 -0.7178768386
O   O24       1.0  0.27598  0.24502  0.42190  1.0000 -0.7178768386
