# DDEC6 charges by PACMAN v1.1 (https://github.com/mtap-research/PACMAN-charge/)
data_2016[Tb][nan]3[ASR]10
_chemical_formula_sum              "Tb8 H56 C120 O56"
_cell_length_a       21.6941
_cell_length_b       21.6941
_cell_length_c       21.6941
_cell_angle_alpha    95.8518
_cell_angle_beta     95.8518
_cell_angle_gamma    142.758

_symmetry_space_group_name_H-M    "P 1"
_symmetry_Int_Tables_number       1

loop_
  _symmetry_equiv_pos_as_xyz
  'x, y, z'

loop_
  _atom_site_type_symbol
  _atom_site_label
  _atom_site_symmetry_multiplicity
  _atom_site_fract_x
  _atom_site_fract_y
  _atom_site_fract_z
  _atom_site_occupancy
  _atom_site_charge
Tb  Tb1       1.0  0.92539  0.51479  0.99970  1.0000 2.0977990287
Tb  Tb2       1.0  0.51509  0.92569  0.00030  1.0000 2.0977990287
Tb  Tb3       1.0  0.17569  0.67539  0.91060  1.0000 2.0977990287
Tb  Tb4       1.0  0.76479  0.26509  0.08940  1.0000 2.0977990287
Tb  Tb5       1.0  0.32461  0.23521  0.50030  1.0000 2.0977990287
Tb  Tb6       1.0  0.73491  0.82431  0.49970  1.0000 2.0977990287
Tb  Tb7       1.0  0.07431  0.07461  0.58940  1.0000 2.0977990287
Tb  Tb8       1.0  0.48521  0.48491  0.41060  1.0000 2.0977990287
H   H1        1.0  0.79050  0.43910  0.23680  1.0000 0.122224873
H   H2        1.0  0.20230  0.55370  0.76320  1.0000 0.122224873
H   H3        1.0  0.80370  0.54050  0.85140  1.0000 0.122224873
H   H4        1.0  0.68910  0.95230  0.14860  1.0000 0.122224873
H   H5        1.0  0.45950  0.31090  0.26320  1.0000 0.122224873
H   H6        1.0  0.04770  0.19630  0.73680  1.0000 0.122224873
H   H7        1.0  0.44630  0.20950  0.64860  1.0000 0.122224873
H   H8        1.0  0.56090  0.79770  0.35140  1.0000 0.122224873
H   H9        1.0  0.79980  0.52470  0.32170  1.0000 0.1118473517
H   H10       1.0  0.20300  0.47810  0.67830  1.0000 0.1118473517
H   H11       1.0  0.72810  0.54980  0.77510  1.0000 0.1118473517
H   H12       1.0  0.77470  0.95300  0.22490  1.0000 0.1118473517
H   H13       1.0  0.45020  0.22530  0.17830  1.0000 0.1118473517
H   H14       1.0  0.04700  0.27190  0.82170  1.0000 0.1118473517
H   H15       1.0  0.52190  0.20020  0.72490  1.0000 0.1118473517
H   H16       1.0  0.47530  0.79700  0.27510  1.0000 0.1118473517
H   H17       1.0  0.01750  0.78980  0.26770  1.0000 0.1296472954
H   H18       1.0  0.52210  0.74980  0.73230  1.0000 0.1296472954
H   H19       1.0  0.99980  0.76750  0.72770  1.0000 0.1296472954
H   H20       1.0  0.03980  0.27210  0.27230  1.0000 0.1296472954
H   H21       1.0  0.23250  0.96020  0.23230  1.0000 0.1296472954
H   H22       1.0  0.72790  0.00020  0.76770  1.0000 0.1296472954
H   H23       1.0  0.25020  0.98250  0.77230  1.0000 0.1296472954
H   H24       1.0  0.21020  0.47790  0.22770  1.0000 0.1296472954
H   H25       1.0  0.74940  0.58770  0.33950  1.0000 0.122224873
H   H26       1.0  0.24820  0.40990  0.66050  1.0000 0.122224873
H   H27       1.0  0.65990  0.49940  0.66170  1.0000 0.122224873
H   H28       1.0  0.83770  0.99820  0.33830  1.0000 0.122224873
H   H29       1.0  0.50060  0.16230  0.16050  1.0000 0.122224873
H   H30       1.0  0.00180  0.34010  0.83950  1.0000 0.122224873
H   H31       1.0  0.59010  0.25060  0.83830  1.0000 0.122224873
H   H32       1.0  0.41230  0.75180  0.16170  1.0000 0.122224873
H   H33       1.0  0.89870  0.85590  0.45440  1.0000 0.1296472954
H   H34       1.0  0.40150  0.44430  0.54560  1.0000 0.1296472954
H   H35       1.0  0.69430  0.64870  0.54280  1.0000 0.1296472954
H   H36       1.0  0.10590  0.15150  0.45720  1.0000 0.1296472954
H   H37       1.0  0.35130  0.89410  0.04560  1.0000 0.1296472954
H   H38       1.0  0.84850  0.30570  0.95440  1.0000 0.1296472954
H   H39       1.0  0.55570  0.10130  0.95720  1.0000 0.1296472954
H   H40       1.0  0.14410  0.59850  0.04280  1.0000 0.1296472954
H   H41       1.0  0.06440  0.86760  0.37460  1.0000 0.122224873
H   H42       1.0  0.49300  0.68980  0.62540  1.0000 0.122224873
H   H43       1.0  0.93980  0.81440  0.69680  1.0000 0.122224873
H   H44       1.0  0.11760  0.24300  0.30320  1.0000 0.122224873
H   H45       1.0  0.18560  0.88240  0.12540  1.0000 0.122224873
H   H46       1.0  0.75700  0.06020  0.87460  1.0000 0.122224873
H   H47       1.0  0.31020  0.93560  0.80320  1.0000 0.122224873
H   H48       1.0  0.13240  0.50700  0.19680  1.0000 0.122224873
H   H49       1.0  0.02790  0.69570  0.14720  1.0000 0.3492656904
H   H50       1.0  0.54850  0.88070  0.85280  1.0000 0.3492656904
H   H51       1.0  0.13070  0.77790  0.83220  1.0000 0.3492656904
H   H52       1.0  0.94570  0.29850  0.16780  1.0000 0.3492656904
H   H53       1.0  0.22210  0.05430  0.35280  1.0000 0.3492656904
H   H54       1.0  0.70150  0.86930  0.64720  1.0000 0.3492656904
H   H55       1.0  0.11930  0.97210  0.66780  1.0000 0.3492656904
H   H56       1.0  0.30430  0.45150  0.33220  1.0000 0.3492656904
C   C1        1.0  0.88820  0.50330  0.14930  1.0000 0.6728371041
C   C2        1.0  0.35400  0.73890  0.85070  1.0000 0.6728371041
C   C3        1.0  0.98890  0.63820  0.88490  1.0000 0.6728371041
C   C4        1.0  0.75330  0.10400  0.11510  1.0000 0.6728371041
C   C5        1.0  0.36180  0.24670  0.35070  1.0000 0.6728371041
C   C6        1.0  0.89600  0.01110  0.64930  1.0000 0.6728371041
C   C7        1.0  0.26110  0.11180  0.61510  1.0000 0.6728371041
C   C8        1.0  0.49670  0.64600  0.38490  1.0000 0.6728371041
C   C9        1.0  0.09670  0.99790  0.45420  1.0000 0.6374158221
C   C10       1.0  0.54370  0.64250  0.54580  1.0000 0.6374158221
C   C11       1.0  0.89250  0.84670  0.59880  1.0000 0.6374158221
C   C12       1.0  0.24790  0.29370  0.40120  1.0000 0.6374158221
C   C13       1.0  0.15330  0.75210  0.04580  1.0000 0.6374158221
C   C14       1.0  0.70630  0.10750  0.95420  1.0000 0.6374158221
C   C15       1.0  0.35750  0.90330  0.90120  1.0000 0.6374158221
C   C16       1.0  0.00210  0.45630  0.09880  1.0000 0.6374158221
C   C17       1.0  0.90040  0.56350  0.20310  1.0000 -0.1787338951
C   C18       1.0  0.36040  0.69730  0.79690  1.0000 -0.1787338951
C   C19       1.0  0.94730  0.65040  0.83690  1.0000 -0.1787338951
C   C20       1.0  0.81350  0.11040  0.16310  1.0000 -0.1787338951
C   C21       1.0  0.34960  0.18650  0.29690  1.0000 -0.1787338951
C   C22       1.0  0.88960  0.05270  0.70310  1.0000 -0.1787338951
C   C23       1.0  0.30270  0.09960  0.66310  1.0000 -0.1787338951
C   C24       1.0  0.43650  0.63960  0.33690  1.0000 -0.1787338951
C   C25       1.0  0.83680  0.51010  0.24310  1.0000 -0.0783851263
C   C26       1.0  0.26700  0.59370  0.75690  1.0000 -0.0783851263
C   C27       1.0  0.84370  0.58680  0.82670  1.0000 -0.0783851263
C   C28       1.0  0.76010  0.01700  0.17330  1.0000 -0.0783851263
C   C29       1.0  0.41320  0.23990  0.25690  1.0000 -0.0783851263
C   C30       1.0  0.98300  0.15630  0.74310  1.0000 -0.0783851263
C   C31       1.0  0.40630  0.16320  0.67330  1.0000 -0.0783851263
C   C32       1.0  0.48990  0.73300  0.32670  1.0000 -0.0783851263
C   C33       1.0  0.83980  0.56000  0.29340  1.0000 -0.1901301616
C   C34       1.0  0.26660  0.54640  0.70660  1.0000 -0.1901301616
C   C35       1.0  0.79640  0.58980  0.77980  1.0000 -0.1901301616
C   C36       1.0  0.81000  0.01660  0.22020  1.0000 -0.1901301616
C   C37       1.0  0.41020  0.19000  0.20660  1.0000 -0.1901301616
C   C38       1.0  0.98340  0.20360  0.79340  1.0000 -0.1901301616
C   C39       1.0  0.45360  0.16020  0.72020  1.0000 -0.1901301616
C   C40       1.0  0.44000  0.73340  0.27980  1.0000 -0.1901301616
C   C41       1.0  0.90490  0.66430  0.29880  1.0000 0.096880306
C   C42       1.0  0.36550  0.60610  0.70120  1.0000 0.096880306
C   C43       1.0  0.85610  0.65490  0.74060  1.0000 0.096880306
C   C44       1.0  0.91430  0.11550  0.25940  1.0000 0.096880306
C   C45       1.0  0.34510  0.08570  0.20120  1.0000 0.096880306
C   C46       1.0  0.88450  0.14390  0.79880  1.0000 0.096880306
C   C47       1.0  0.39390  0.09510  0.75940  1.0000 0.096880306
C   C48       1.0  0.33570  0.63450  0.24060  1.0000 0.096880306
C   C49       1.0  0.97090  0.71870  0.26100  1.0000 -0.2503389758
C   C50       1.0  0.45770  0.70990  0.73900  1.0000 -0.2503389758
C   C51       1.0  0.95990  0.72090  0.75220  1.0000 -0.2503389758
C   C52       1.0  0.96870  0.20770  0.24780  1.0000 -0.2503389758
C   C53       1.0  0.27910  0.03130  0.23900  1.0000 -0.2503389758
C   C54       1.0  0.79230  0.04010  0.76100  1.0000 -0.2503389758
C   C55       1.0  0.29010  0.02910  0.74780  1.0000 -0.2503389758
C   C56       1.0  0.28130  0.54230  0.25220  1.0000 -0.2503389758
C   C57       1.0  0.97070  0.67120  0.21330  1.0000 0.2948298412
C   C58       1.0  0.45790  0.75740  0.78670  1.0000 0.2948298412
C   C59       1.0  0.00740  0.72070  0.79950  1.0000 0.2948298412
C   C60       1.0  0.92120  0.20790  0.20050  1.0000 0.2948298412
C   C61       1.0  0.27930  0.07880  0.28670  1.0000 0.2948298412
C   C62       1.0  0.79210  0.99260  0.71330  1.0000 0.2948298412
C   C63       1.0  0.24260  0.02930  0.70050  1.0000 0.2948298412
C   C64       1.0  0.32880  0.54210  0.29950  1.0000 0.2948298412
C   C65       1.0  0.90560  0.71860  0.34860  1.0000 0.0648461016
C   C66       1.0  0.37000  0.55700  0.65140  1.0000 0.0648461016
C   C67       1.0  0.80700  0.65560  0.68700  1.0000 0.0648461016
C   C68       1.0  0.96860  0.12000  0.31300  1.0000 0.0648461016
C   C69       1.0  0.34440  0.03140  0.15140  1.0000 0.0648461016
C   C70       1.0  0.88000  0.19300  0.84860  1.0000 0.0648461016
C   C71       1.0  0.44300  0.09440  0.81300  1.0000 0.0648461016
C   C72       1.0  0.28140  0.63000  0.18700  1.0000 0.0648461016
C   C73       1.0  0.81160  0.66130  0.35930  1.0000 -0.1381008667
C   C74       1.0  0.30200  0.45230  0.64070  1.0000 -0.1381008667
C   C75       1.0  0.70230  0.56160  0.65030  1.0000 -0.1381008667
C   C76       1.0  0.91130  0.05200  0.34970  1.0000 -0.1381008667
C   C77       1.0  0.43840  0.08870  0.14070  1.0000 -0.1381008667
C   C78       1.0  0.94800  0.29770  0.85930  1.0000 -0.1381008667
C   C79       1.0  0.54770  0.18840  0.84970  1.0000 -0.1381008667
C   C80       1.0  0.33870  0.69800  0.15030  1.0000 -0.1381008667
C   C81       1.0  0.80900  0.71380  0.40060  1.0000 -0.0247231282
C   C82       1.0  0.31320  0.40840  0.59940  1.0000 -0.0247231282
C   C83       1.0  0.65840  0.55900  0.59520  1.0000 -0.0247231282
C   C84       1.0  0.96380  0.06320  0.40480  1.0000 -0.0247231282
C   C85       1.0  0.44100  0.03620  0.09940  1.0000 -0.0247231282
C   C86       1.0  0.93680  0.34160  0.90060  1.0000 -0.0247231282
C   C87       1.0  0.59160  0.19100  0.90480  1.0000 -0.0247231282
C   C88       1.0  0.28620  0.68680  0.09520  1.0000 -0.0247231282
C   C89       1.0  0.90120  0.82150  0.42850  1.0000 -0.1117141308
C   C90       1.0  0.39300  0.47270  0.57150  1.0000 -0.1117141308
C   C91       1.0  0.72270  0.65120  0.57970  1.0000 -0.1117141308
C   C92       1.0  0.07150  0.14300  0.42030  1.0000 -0.1117141308
C   C93       1.0  0.34880  0.92850  0.07150  1.0000 -0.1117141308
C   C94       1.0  0.85700  0.27730  0.92850  1.0000 -0.1117141308
C   C95       1.0  0.52730  0.09880  0.92030  1.0000 -0.1117141308
C   C96       1.0  0.17850  0.60700  0.07970  1.0000 -0.1117141308
C   C97       1.0  0.99720  0.88160  0.42040  1.0000 -0.0274643107
C   C98       1.0  0.46120  0.57680  0.57960  1.0000 -0.0274643107
C   C99       1.0  0.82680  0.74720  0.61560  1.0000 -0.0274643107
C   C100      1.0  0.13160  0.21120  0.38440  1.0000 -0.0274643107
C   C101      1.0  0.25280  0.86840  0.07960  1.0000 -0.0274643107
C   C102      1.0  0.78880  0.17320  0.92040  1.0000 -0.0274643107
C   C103      1.0  0.42320  0.00280  0.88440  1.0000 -0.0274643107
C   C104      1.0  0.11840  0.53880  0.11560  1.0000 -0.0274643107
C   C105      1.0  0.99990  0.82910  0.38020  1.0000 -0.1257720855
C   C106      1.0  0.44890  0.61970  0.61980  1.0000 -0.1257720855
C   C107      1.0  0.86970  0.74990  0.67080  1.0000 -0.1257720855
C   C108      1.0  0.07910  0.19890  0.32920  1.0000 -0.1257720855
C   C109      1.0  0.25010  0.92090  0.11980  1.0000 -0.1257720855
C   C110      1.0  0.80110  0.13030  0.88020  1.0000 -0.1257720855
C   C111      1.0  0.38030  0.00010  0.82920  1.0000 -0.1257720855
C   C112      1.0  0.17090  0.55110  0.17080  1.0000 -0.1257720855
C   C113      1.0  0.70630  0.64760  0.41130  1.0000 0.605831589
C   C114      1.0  0.23630  0.29500  0.58870  1.0000 0.605831589
C   C115      1.0  0.54500  0.45630  0.55870  1.0000 0.605831589
C   C116      1.0  0.89760  0.98630  0.44130  1.0000 0.605831589
C   C117      1.0  0.54370  0.10240  0.08870  1.0000 0.605831589
C   C118      1.0  0.01370  0.45500  0.91130  1.0000 0.605831589
C   C119      1.0  0.70500  0.29370  0.94130  1.0000 0.605831589
C   C120      1.0  0.35240  0.76370  0.05870  1.0000 0.605831589
O   O1        1.0  0.94270  0.55400  0.10970  1.0000 -0.6973196385
O   O2        1.0  0.44430  0.83300  0.89030  1.0000 -0.6973196385
O   O3        1.0  0.08300  0.69270  0.88870  1.0000 -0.6973196385
O   O4        1.0  0.80400  0.19430  0.11130  1.0000 -0.6973196385
O   O5        1.0  0.30730  0.19600  0.39030  1.0000 -0.6973196385
O   O6        1.0  0.80570  0.91700  0.60970  1.0000 -0.6973196385
O   O7        1.0  0.16700  0.05730  0.61130  1.0000 -0.6973196385
O   O8        1.0  0.44600  0.55570  0.38870  1.0000 -0.6973196385
O   O9        1.0  0.82970  0.41060  0.14370  1.0000 -0.6395776463
O   O10       1.0  0.26690  0.68600  0.85630  1.0000 -0.6395776463
O   O11       1.0  0.93600  0.57970  0.91910  1.0000 -0.6395776463
O   O12       1.0  0.66060  0.01690  0.08090  1.0000 -0.6395776463
O   O13       1.0  0.42030  0.33940  0.35630  1.0000 -0.6395776463
O   O14       1.0  0.98310  0.06400  0.64370  1.0000 -0.6395776463
O   O15       1.0  0.31400  0.17030  0.58090  1.0000 -0.6395776463
O   O16       1.0  0.58940  0.73310  0.41910  1.0000 -0.6395776463
O   O17       1.0  0.63780  0.55270  0.40690  1.0000 -0.5757474793
O   O18       1.0  0.14580  0.23090  0.59310  1.0000 -0.5757474793
O   O19       1.0  0.48090  0.38780  0.58510  1.0000 -0.5757474793
O   O20       1.0  0.80270  0.89580  0.41490  1.0000 -0.5757474793
O   O21       1.0  0.61220  0.19730  0.09310  1.0000 -0.5757474793
O   O22       1.0  0.10420  0.51910  0.90690  1.0000 -0.5757474793
O   O23       1.0  0.76910  0.36220  0.91490  1.0000 -0.5757474793
O   O24       1.0  0.44730  0.85420  0.08510  1.0000 -0.5757474793
O   O25       1.0  0.68770  0.68940  0.42970  1.0000 -0.7418767554
O   O26       1.0  0.25970  0.25800  0.57030  1.0000 -0.7418767554
O   O27       1.0  0.50800  0.43770  0.49830  1.0000 -0.7418767554
O   O28       1.0  0.93940  0.00970  0.50170  1.0000 -0.7418767554
O   O29       1.0  0.56230  0.06060  0.07030  1.0000 -0.7418767554
O   O30       1.0  0.99030  0.49200  0.92970  1.0000 -0.7418767554
O   O31       1.0  0.74200  0.31230  0.00170  1.0000 -0.7418767554
O   O32       1.0  0.31060  0.74030  0.99830  1.0000 -0.7418767554
O   O33       1.0  0.09510  0.04260  0.49370  1.0000 -0.6973196385
O   O34       1.0  0.54890  0.60140  0.50630  1.0000 -0.6973196385
O   O35       1.0  0.85140  0.84510  0.55250  1.0000 -0.6973196385
O   O36       1.0  0.29260  0.29890  0.44750  1.0000 -0.6973196385
O   O37       1.0  0.15490  0.70740  0.00630  1.0000 -0.6973196385
O   O38       1.0  0.70110  0.14860  0.99370  1.0000 -0.6973196385
O   O39       1.0  0.39860  0.90490  0.94750  1.0000 -0.6973196385
O   O40       1.0  0.95740  0.45110  0.05250  1.0000 -0.6973196385
O   O41       1.0  0.18480  0.05000  0.44640  1.0000 -0.6300689918
O   O42       1.0  0.60360  0.73840  0.55360  1.0000 -0.6300689918
O   O43       1.0  0.98840  0.93480  0.63480  1.0000 -0.6300689918
O   O44       1.0  0.30000  0.35360  0.36520  1.0000 -0.6300689918
O   O45       1.0  0.06520  0.70000  0.05360  1.0000 -0.6300689918
O   O46       1.0  0.64640  0.01160  0.94640  1.0000 -0.6300689918
O   O47       1.0  0.26160  0.81520  0.86520  1.0000 -0.6300689918
O   O48       1.0  0.95000  0.39640  0.13480  1.0000 -0.6300689918
O   O49       1.0  0.03660  0.73200  0.17540  1.0000 -0.4502492142
O   O50       1.0  0.55660  0.86120  0.82460  1.0000 -0.4502492142
O   O51       1.0  0.11120  0.78660  0.80460  1.0000 -0.4502492142
O   O52       1.0  0.98200  0.30660  0.19540  1.0000 -0.4502492142
O   O53       1.0  0.21340  0.01800  0.32460  1.0000 -0.4502492142
O   O54       1.0  0.69340  0.88880  0.67540  1.0000 -0.4502492142
O   O55       1.0  0.13880  0.96340  0.69540  1.0000 -0.4502492142
O   O56       1.0  0.26800  0.44340  0.30460  1.0000 -0.4502492142
