# DDEC6 charges by PACMAN v1.1 (https://github.com/mtap-research/PACMAN-charge/)
data_2016[Cu][nbo]3[ASR]14
_chemical_formula_sum              "Cu6 H78 C126 O30"
_cell_length_a       21.3315
_cell_length_b       21.3315
_cell_length_c       21.3315
_cell_angle_alpha    114.266
_cell_angle_beta     114.266
_cell_angle_gamma    114.266

_symmetry_space_group_name_H-M    "P 1"
_symmetry_Int_Tables_number       1

loop_
  _symmetry_equiv_pos_as_xyz
  'x, y, z'

loop_
  _atom_site_type_symbol
  _atom_site_label
  _atom_site_symmetry_multiplicity
  _atom_site_fract_x
  _atom_site_fract_y
  _atom_site_fract_z
  _atom_site_occupancy
  _atom_site_charge
Cu  Cu1       1.0  0.91966  0.91966  0.40917  1.0000 0.8411827201
Cu  Cu2       1.0  0.91966  0.40917  0.91966  1.0000 0.8411827201
Cu  Cu3       1.0  0.40917  0.91966  0.91966  1.0000 0.8411827201
Cu  Cu4       1.0  0.08035  0.08034  0.59083  1.0000 0.8411827201
Cu  Cu5       1.0  0.59083  0.08034  0.08034  1.0000 0.8411827201
Cu  Cu6       1.0  0.08034  0.59083  0.08034  1.0000 0.8411827201
H   H1        1.0  0.86150  0.04170  0.29620  1.0000 0.1191430857
H   H2        1.0  0.04170  0.29620  0.86150  1.0000 0.1191430857
H   H3        1.0  0.29620  0.86150  0.04170  1.0000 0.1191430857
H   H4        1.0  0.95830  0.13850  0.70380  1.0000 0.1191430857
H   H5        1.0  0.70380  0.95830  0.13850  1.0000 0.1191430857
H   H6        1.0  0.13850  0.70380  0.95830  1.0000 0.1191430857
H   H7        1.0  0.13850  0.95830  0.70380  1.0000 0.1191430857
H   H8        1.0  0.95830  0.70380  0.13850  1.0000 0.1191430857
H   H9        1.0  0.70380  0.13850  0.95830  1.0000 0.1191430857
H   H10       1.0  0.04170  0.86150  0.29620  1.0000 0.1191430857
H   H11       1.0  0.29620  0.04170  0.86150  1.0000 0.1191430857
H   H12       1.0  0.86150  0.29620  0.04170  1.0000 0.1191430857
H   H13       1.0  0.86180  0.13800  0.27100  1.0000 0.1282205224
H   H14       1.0  0.13800  0.27100  0.86180  1.0000 0.1282205224
H   H15       1.0  0.27100  0.86180  0.13800  1.0000 0.1282205224
H   H16       1.0  0.86200  0.13820  0.72900  1.0000 0.1282205224
H   H17       1.0  0.72900  0.86200  0.13820  1.0000 0.1282205224
H   H18       1.0  0.13820  0.72900  0.86200  1.0000 0.1282205224
H   H19       1.0  0.13820  0.86200  0.72900  1.0000 0.1282205224
H   H20       1.0  0.86200  0.72900  0.13820  1.0000 0.1282205224
H   H21       1.0  0.72900  0.13820  0.86200  1.0000 0.1282205224
H   H22       1.0  0.13800  0.86180  0.27100  1.0000 0.1282205224
H   H23       1.0  0.27100  0.13800  0.86180  1.0000 0.1282205224
H   H24       1.0  0.86180  0.27100  0.13800  1.0000 0.1282205224
H   H25       1.0  0.11270  0.37280  0.54460  1.0000 0.1191430857
H   H26       1.0  0.37280  0.54460  0.11270  1.0000 0.1191430857
H   H27       1.0  0.54460  0.11270  0.37280  1.0000 0.1191430857
H   H28       1.0  0.62720  0.88730  0.45540  1.0000 0.1191430857
H   H29       1.0  0.45540  0.62720  0.88730  1.0000 0.1191430857
H   H30       1.0  0.88730  0.45540  0.62720  1.0000 0.1191430857
H   H31       1.0  0.88730  0.62720  0.45540  1.0000 0.1191430857
H   H32       1.0  0.62720  0.45540  0.88730  1.0000 0.1191430857
H   H33       1.0  0.45540  0.88730  0.62720  1.0000 0.1191430857
H   H34       1.0  0.37280  0.11270  0.54460  1.0000 0.1191430857
H   H35       1.0  0.54460  0.37280  0.11270  1.0000 0.1191430857
H   H36       1.0  0.11270  0.54460  0.37280  1.0000 0.1191430857
H   H37       1.0  0.11620  0.27600  0.56710  1.0000 0.1282205224
H   H38       1.0  0.27600  0.56710  0.11620  1.0000 0.1282205224
H   H39       1.0  0.56710  0.11620  0.27600  1.0000 0.1282205224
H   H40       1.0  0.72400  0.88380  0.43290  1.0000 0.1282205224
H   H41       1.0  0.43290  0.72400  0.88380  1.0000 0.1282205224
H   H42       1.0  0.88380  0.43290  0.72400  1.0000 0.1282205224
H   H43       1.0  0.88380  0.72400  0.43290  1.0000 0.1282205224
H   H44       1.0  0.72400  0.43290  0.88380  1.0000 0.1282205224
H   H45       1.0  0.43290  0.88380  0.72400  1.0000 0.1282205224
H   H46       1.0  0.27600  0.11620  0.56710  1.0000 0.1282205224
H   H47       1.0  0.56710  0.27600  0.11620  1.0000 0.1282205224
H   H48       1.0  0.11620  0.56710  0.27600  1.0000 0.1282205224
H   H49       1.0  0.99430  0.39640  0.50860  1.0000 0.1126398376
H   H50       1.0  0.39640  0.50860  0.99430  1.0000 0.1126398376
H   H51       1.0  0.50860  0.99430  0.39640  1.0000 0.1126398376
H   H52       1.0  0.60360  0.00570  0.49140  1.0000 0.1126398376
H   H53       1.0  0.49140  0.60360  0.00570  1.0000 0.1126398376
H   H54       1.0  0.00570  0.49140  0.60360  1.0000 0.1126398376
H   H55       1.0  0.00570  0.60360  0.49140  1.0000 0.1126398376
H   H56       1.0  0.60360  0.49140  0.00570  1.0000 0.1126398376
H   H57       1.0  0.49140  0.00570  0.60360  1.0000 0.1126398376
H   H58       1.0  0.39640  0.99430  0.50860  1.0000 0.1126398376
H   H59       1.0  0.50860  0.39640  0.99430  1.0000 0.1126398376
H   H60       1.0  0.99430  0.50860  0.39640  1.0000 0.1126398376
H   H61       1.0  0.05870  0.25950  0.25950  1.0000 0.1126398376
H   H62       1.0  0.25950  0.25950  0.05870  1.0000 0.1126398376
H   H63       1.0  0.25950  0.05870  0.25950  1.0000 0.1126398376
H   H64       1.0  0.74050  0.94130  0.74050  1.0000 0.1126398376
H   H65       1.0  0.74050  0.74050  0.94130  1.0000 0.1126398376
H   H66       1.0  0.94130  0.74050  0.74050  1.0000 0.1126398376
H   H67       1.0  0.10070  0.36540  0.32070  1.0000 0.0994664855
H   H68       1.0  0.36540  0.32070  0.10070  1.0000 0.0994664855
H   H69       1.0  0.32070  0.10070  0.36540  1.0000 0.0994664855
H   H70       1.0  0.63460  0.89930  0.67930  1.0000 0.0994664855
H   H71       1.0  0.67930  0.63460  0.89930  1.0000 0.0994664855
H   H72       1.0  0.89930  0.67930  0.63460  1.0000 0.0994664855
H   H73       1.0  0.89930  0.63460  0.67930  1.0000 0.0994664855
H   H74       1.0  0.63460  0.67930  0.89930  1.0000 0.0994664855
H   H75       1.0  0.67930  0.89930  0.63460  1.0000 0.0994664855
H   H76       1.0  0.36540  0.10070  0.32070  1.0000 0.0994664855
H   H77       1.0  0.32070  0.36540  0.10070  1.0000 0.0994664855
H   H78       1.0  0.10070  0.32070  0.36540  1.0000 0.0994664855
C   C1        1.0  0.98790  0.08775  0.45225  1.0000 0.5777700557
C   C2        1.0  0.08775  0.45225  0.98790  1.0000 0.5777700557
C   C3        1.0  0.45225  0.98790  0.08775  1.0000 0.5777700557
C   C4        1.0  0.91225  0.01210  0.54775  1.0000 0.5777700557
C   C5        1.0  0.54775  0.91225  0.01210  1.0000 0.5777700557
C   C6        1.0  0.01210  0.54775  0.91225  1.0000 0.5777700557
C   C7        1.0  0.01210  0.91225  0.54775  1.0000 0.5777700557
C   C8        1.0  0.91225  0.54775  0.01210  1.0000 0.5777700557
C   C9        1.0  0.54775  0.01210  0.91225  1.0000 0.5777700557
C   C10       1.0  0.08775  0.98790  0.45225  1.0000 0.5777700557
C   C11       1.0  0.45225  0.08775  0.98790  1.0000 0.5777700557
C   C12       1.0  0.98790  0.45225  0.08775  1.0000 0.5777700557
C   C13       1.0  0.98720  0.14893  0.43437  1.0000 -0.0186070153
C   C14       1.0  0.14893  0.43437  0.98720  1.0000 -0.0186070153
C   C15       1.0  0.43437  0.98720  0.14893  1.0000 -0.0186070153
C   C16       1.0  0.85107  0.01280  0.56563  1.0000 -0.0186070153
C   C17       1.0  0.56563  0.85107  0.01280  1.0000 -0.0186070153
C   C18       1.0  0.01280  0.56563  0.85107  1.0000 -0.0186070153
C   C19       1.0  0.01280  0.85107  0.56563  1.0000 -0.0186070153
C   C20       1.0  0.85107  0.56563  0.01280  1.0000 -0.0186070153
C   C21       1.0  0.56563  0.01280  0.85107  1.0000 -0.0186070153
C   C22       1.0  0.14893  0.98720  0.43437  1.0000 -0.0186070153
C   C23       1.0  0.43437  0.14893  0.98720  1.0000 -0.0186070153
C   C24       1.0  0.98720  0.43437  0.14893  1.0000 -0.0186070153
C   C25       1.0  0.91334  0.10952  0.34754  1.0000 -0.0926037808
C   C26       1.0  0.10952  0.34754  0.91334  1.0000 -0.0926037808
C   C27       1.0  0.34754  0.91334  0.10952  1.0000 -0.0926037808
C   C28       1.0  0.89048  0.08666  0.65246  1.0000 -0.0926037808
C   C29       1.0  0.65246  0.89048  0.08666  1.0000 -0.0926037808
C   C30       1.0  0.08666  0.65246  0.89048  1.0000 -0.0926037808
C   C31       1.0  0.08666  0.89048  0.65246  1.0000 -0.0926037808
C   C32       1.0  0.89048  0.65246  0.08666  1.0000 -0.0926037808
C   C33       1.0  0.65246  0.08666  0.89048  1.0000 -0.0926037808
C   C34       1.0  0.10952  0.91334  0.34754  1.0000 -0.0926037808
C   C35       1.0  0.34754  0.10952  0.91334  1.0000 -0.0926037808
C   C36       1.0  0.91334  0.34754  0.10952  1.0000 -0.0926037808
C   C37       1.0  0.91270  0.16711  0.33289  1.0000 -0.1438634493
C   C38       1.0  0.16711  0.33289  0.91270  1.0000 -0.1438634493
C   C39       1.0  0.33289  0.91270  0.16711  1.0000 -0.1438634493
C   C40       1.0  0.83289  0.08730  0.66711  1.0000 -0.1438634493
C   C41       1.0  0.66711  0.83289  0.08730  1.0000 -0.1438634493
C   C42       1.0  0.08730  0.66711  0.83289  1.0000 -0.1438634493
C   C43       1.0  0.08730  0.83289  0.66711  1.0000 -0.1438634493
C   C44       1.0  0.83289  0.66711  0.08730  1.0000 -0.1438634493
C   C45       1.0  0.66711  0.08730  0.83289  1.0000 -0.1438634493
C   C46       1.0  0.16711  0.91270  0.33289  1.0000 -0.1438634493
C   C47       1.0  0.33289  0.16711  0.91270  1.0000 -0.1438634493
C   C48       1.0  0.91270  0.33289  0.16711  1.0000 -0.1438634493
C   C49       1.0  0.98454  0.26543  0.40663  1.0000 0.0862258464
C   C50       1.0  0.26543  0.40663  0.98454  1.0000 0.0862258464
C   C51       1.0  0.40663  0.98454  0.26543  1.0000 0.0862258464
C   C52       1.0  0.73457  0.01546  0.59337  1.0000 0.0862258464
C   C53       1.0  0.59337  0.73457  0.01546  1.0000 0.0862258464
C   C54       1.0  0.01546  0.59337  0.73457  1.0000 0.0862258464
C   C55       1.0  0.01546  0.73457  0.59337  1.0000 0.0862258464
C   C56       1.0  0.73457  0.59337  0.01546  1.0000 0.0862258464
C   C57       1.0  0.59337  0.01546  0.73457  1.0000 0.0862258464
C   C58       1.0  0.26543  0.98454  0.40663  1.0000 0.0862258464
C   C59       1.0  0.40663  0.26543  0.98454  1.0000 0.0862258464
C   C60       1.0  0.98454  0.40663  0.26543  1.0000 0.0862258464
C   C61       1.0  0.06059  0.30496  0.49325  1.0000 -0.1533154235
C   C62       1.0  0.30496  0.49325  0.06059  1.0000 -0.1533154235
C   C63       1.0  0.49325  0.06059  0.30496  1.0000 -0.1533154235
C   C64       1.0  0.69504  0.93941  0.50675  1.0000 -0.1533154235
C   C65       1.0  0.50675  0.69504  0.93941  1.0000 -0.1533154235
C   C66       1.0  0.93941  0.50675  0.69504  1.0000 -0.1533154235
C   C67       1.0  0.93941  0.69504  0.50675  1.0000 -0.1533154235
C   C68       1.0  0.69504  0.50675  0.93941  1.0000 -0.1533154235
C   C69       1.0  0.50675  0.93941  0.69504  1.0000 -0.1533154235
C   C70       1.0  0.30496  0.06059  0.49325  1.0000 -0.1533154235
C   C71       1.0  0.49325  0.30496  0.06059  1.0000 -0.1533154235
C   C72       1.0  0.06059  0.49325  0.30496  1.0000 -0.1533154235
C   C73       1.0  0.06248  0.24730  0.50702  1.0000 -0.0926037808
C   C74       1.0  0.24730  0.50702  0.06248  1.0000 -0.0926037808
C   C75       1.0  0.50702  0.06248  0.24730  1.0000 -0.0926037808
C   C76       1.0  0.75270  0.93752  0.49298  1.0000 -0.0926037808
C   C77       1.0  0.49298  0.75270  0.93752  1.0000 -0.0926037808
C   C78       1.0  0.93752  0.49298  0.75270  1.0000 -0.0926037808
C   C79       1.0  0.93752  0.75270  0.49298  1.0000 -0.0926037808
C   C80       1.0  0.75270  0.49298  0.93752  1.0000 -0.0926037808
C   C81       1.0  0.49298  0.93752  0.75270  1.0000 -0.0926037808
C   C82       1.0  0.24730  0.06248  0.50702  1.0000 -0.0926037808
C   C83       1.0  0.50702  0.24730  0.06248  1.0000 -0.0926037808
C   C84       1.0  0.06248  0.50702  0.24730  1.0000 -0.0926037808
C   C85       1.0  0.98180  0.33018  0.39742  1.0000 -0.0281624331
C   C86       1.0  0.33018  0.39742  0.98180  1.0000 -0.0281624331
C   C87       1.0  0.39742  0.98180  0.33018  1.0000 -0.0281624331
C   C88       1.0  0.66982  0.01820  0.60258  1.0000 -0.0281624331
C   C89       1.0  0.60258  0.66982  0.01820  1.0000 -0.0281624331
C   C90       1.0  0.01820  0.60258  0.66982  1.0000 -0.0281624331
C   C91       1.0  0.01820  0.66982  0.60258  1.0000 -0.0281624331
C   C92       1.0  0.66982  0.60258  0.01820  1.0000 -0.0281624331
C   C93       1.0  0.60258  0.01820  0.66982  1.0000 -0.0281624331
C   C94       1.0  0.33018  0.98180  0.39742  1.0000 -0.0281624331
C   C95       1.0  0.39742  0.33018  0.98180  1.0000 -0.0281624331
C   C96       1.0  0.98180  0.39742  0.33018  1.0000 -0.0281624331
C   C97       1.0  0.99103  0.39712  0.46315  1.0000 -0.1925966862
C   C98       1.0  0.39712  0.46315  0.99103  1.0000 -0.1925966862
C   C99       1.0  0.46315  0.99103  0.39712  1.0000 -0.1925966862
C   C100      1.0  0.60288  0.00897  0.53685  1.0000 -0.1925966862
C   C101      1.0  0.53685  0.60288  0.00897  1.0000 -0.1925966862
C   C102      1.0  0.00897  0.53685  0.60288  1.0000 -0.1925966862
C   C103      1.0  0.00897  0.60288  0.53685  1.0000 -0.1925966862
C   C104      1.0  0.60288  0.53685  0.00897  1.0000 -0.1925966862
C   C105      1.0  0.53685  0.00897  0.60288  1.0000 -0.1925966862
C   C106      1.0  0.39712  0.99103  0.46315  1.0000 -0.1925966862
C   C107      1.0  0.46315  0.39712  0.99103  1.0000 -0.1925966862
C   C108      1.0  0.99103  0.46315  0.39712  1.0000 -0.1925966862
C   C109      1.0  0.99578  0.46511  0.46511  1.0000 0.0744023387
C   C110      1.0  0.46511  0.46511  0.99578  1.0000 0.0744023387
C   C111      1.0  0.46511  0.99578  0.46511  1.0000 0.0744023387
C   C112      1.0  0.53489  0.00422  0.53489  1.0000 0.0744023387
C   C113      1.0  0.53489  0.53489  0.00422  1.0000 0.0744023387
C   C114      1.0  0.00422  0.53489  0.53489  1.0000 0.0744023387
C   C115      1.0  0.97556  0.32987  0.32987  1.0000 0.1526949569
C   C116      1.0  0.32987  0.32987  0.97556  1.0000 0.1526949569
C   C117      1.0  0.32987  0.97556  0.32987  1.0000 0.1526949569
C   C118      1.0  0.67013  0.02444  0.67013  1.0000 0.1526949569
C   C119      1.0  0.67013  0.67013  0.02444  1.0000 0.1526949569
C   C120      1.0  0.02444  0.67013  0.67013  1.0000 0.1526949569
C   C121      1.0  0.06540  0.30625  0.30625  1.0000 -0.2383792957
C   C122      1.0  0.30625  0.30625  0.06540  1.0000 -0.2383792957
C   C123      1.0  0.30625  0.06540  0.30625  1.0000 -0.2383792957
C   C124      1.0  0.69375  0.93460  0.69375  1.0000 -0.2383792957
C   C125      1.0  0.69375  0.69375  0.93460  1.0000 -0.2383792957
C   C126      1.0  0.93460  0.69375  0.69375  1.0000 -0.2383792957
O   O1        1.0  0.05734  0.13458  0.53887  1.0000 -0.5330523586
O   O2        1.0  0.13458  0.53887  0.05734  1.0000 -0.5330523586
O   O3        1.0  0.53887  0.05734  0.13458  1.0000 -0.5330523586
O   O4        1.0  0.86542  0.94266  0.46113  1.0000 -0.5330523586
O   O5        1.0  0.46113  0.86542  0.94266  1.0000 -0.5330523586
O   O6        1.0  0.94266  0.46113  0.86542  1.0000 -0.5330523586
O   O7        1.0  0.94266  0.86542  0.46113  1.0000 -0.5330523586
O   O8        1.0  0.86542  0.46113  0.94266  1.0000 -0.5330523586
O   O9        1.0  0.46113  0.94266  0.86542  1.0000 -0.5330523586
O   O10       1.0  0.13458  0.05734  0.53887  1.0000 -0.5330523586
O   O11       1.0  0.53887  0.13458  0.05734  1.0000 -0.5330523586
O   O12       1.0  0.05734  0.53887  0.13458  1.0000 -0.5330523586
O   O13       1.0  0.92178  0.99910  0.38436  1.0000 -0.4996229371
O   O14       1.0  0.99910  0.38436  0.92178  1.0000 -0.4996229371
O   O15       1.0  0.38436  0.92178  0.99910  1.0000 -0.4996229371
O   O16       1.0  0.00090  0.07822  0.61564  1.0000 -0.4996229371
O   O17       1.0  0.61564  0.00090  0.07822  1.0000 -0.4996229371
O   O18       1.0  0.07822  0.61564  0.00090  1.0000 -0.4996229371
O   O19       1.0  0.07822  0.00090  0.61564  1.0000 -0.4996229371
O   O20       1.0  0.00090  0.61564  0.07822  1.0000 -0.4996229371
O   O21       1.0  0.61564  0.07822  0.00090  1.0000 -0.4996229371
O   O22       1.0  0.99910  0.92178  0.38436  1.0000 -0.4996229371
O   O23       1.0  0.38436  0.99910  0.92178  1.0000 -0.4996229371
O   O24       1.0  0.92178  0.38436  0.99910  1.0000 -0.4996229371
O   O25       1.0  0.96904  0.26593  0.26593  1.0000 -0.1767163213
O   O26       1.0  0.26593  0.26593  0.96904  1.0000 -0.1739711002
O   O27       1.0  0.26593  0.96904  0.26593  1.0000 -0.1767163213
O   O28       1.0  0.73407  0.03096  0.73407  1.0000 -0.1739711002
O   O29       1.0  0.73407  0.73407  0.03096  1.0000 -0.1739711002
O   O30       1.0  0.03096  0.73407  0.73407  1.0000 -0.1767163213
