# DDEC6 charges by PACMAN v1.1 (https://github.com/mtap-research/PACMAN-charge/)
data_2016[Cu][nbo]3[ASR]16
_chemical_formula_sum              "Cu6 H78 C126 O30"
_cell_length_a       21.3008
_cell_length_b       21.3008
_cell_length_c       21.3008
_cell_angle_alpha    114.518
_cell_angle_beta     114.518
_cell_angle_gamma    114.518

_symmetry_space_group_name_H-M    "P 1"
_symmetry_Int_Tables_number       1

loop_
  _symmetry_equiv_pos_as_xyz
  'x, y, z'

loop_
  _atom_site_type_symbol
  _atom_site_label
  _atom_site_symmetry_multiplicity
  _atom_site_fract_x
  _atom_site_fract_y
  _atom_site_fract_z
  _atom_site_occupancy
  _atom_site_charge
Cu  Cu1       1.0  0.91743  0.91742  0.40739  1.0000 0.8435651307
Cu  Cu2       1.0  0.91743  0.40739  0.91743  1.0000 0.8435651307
Cu  Cu3       1.0  0.40739  0.91742  0.91743  1.0000 0.8435651307
Cu  Cu4       1.0  0.08258  0.08258  0.59261  1.0000 0.8435651307
Cu  Cu5       1.0  0.59261  0.08257  0.08258  1.0000 0.8435651307
Cu  Cu6       1.0  0.08258  0.59261  0.08258  1.0000 0.8435651307
H   H1        1.0  0.85910  0.03890  0.29390  1.0000 0.1192083471
H   H2        1.0  0.03890  0.29390  0.85910  1.0000 0.1192083471
H   H3        1.0  0.29390  0.85910  0.03890  1.0000 0.1192083471
H   H4        1.0  0.96110  0.14090  0.70610  1.0000 0.1192083471
H   H5        1.0  0.70610  0.96110  0.14090  1.0000 0.1192083471
H   H6        1.0  0.14090  0.70610  0.96110  1.0000 0.1192083471
H   H7        1.0  0.14090  0.96110  0.70610  1.0000 0.1192083471
H   H8        1.0  0.96110  0.70610  0.14090  1.0000 0.1192083471
H   H9        1.0  0.70610  0.14090  0.96110  1.0000 0.1192083471
H   H10       1.0  0.03890  0.85910  0.29390  1.0000 0.1192083471
H   H11       1.0  0.29390  0.03890  0.85910  1.0000 0.1192083471
H   H12       1.0  0.85910  0.29390  0.03890  1.0000 0.1192083471
H   H13       1.0  0.86010  0.13500  0.26850  1.0000 0.1288014123
H   H14       1.0  0.13500  0.26850  0.86010  1.0000 0.1288014123
H   H15       1.0  0.26850  0.86010  0.13500  1.0000 0.1288014123
H   H16       1.0  0.86500  0.13990  0.73150  1.0000 0.1288014123
H   H17       1.0  0.73150  0.86500  0.13990  1.0000 0.1288014123
H   H18       1.0  0.13990  0.73150  0.86500  1.0000 0.1288014123
H   H19       1.0  0.13990  0.86500  0.73150  1.0000 0.1288014123
H   H20       1.0  0.86500  0.73150  0.13990  1.0000 0.1288014123
H   H21       1.0  0.73150  0.13990  0.86500  1.0000 0.1288014123
H   H22       1.0  0.13500  0.86010  0.26850  1.0000 0.1288014123
H   H23       1.0  0.26850  0.13500  0.86010  1.0000 0.1288014123
H   H24       1.0  0.86010  0.26850  0.13500  1.0000 0.1288014123
H   H25       1.0  0.11740  0.37520  0.54560  1.0000 0.1192083471
H   H26       1.0  0.37520  0.54560  0.11740  1.0000 0.1192083471
H   H27       1.0  0.54560  0.11740  0.37520  1.0000 0.1192083471
H   H28       1.0  0.62480  0.88260  0.45440  1.0000 0.1192083471
H   H29       1.0  0.45440  0.62480  0.88260  1.0000 0.1192083471
H   H30       1.0  0.88260  0.45440  0.62480  1.0000 0.1192083471
H   H31       1.0  0.88260  0.62480  0.45440  1.0000 0.1192083471
H   H32       1.0  0.62480  0.45440  0.88260  1.0000 0.1192083471
H   H33       1.0  0.45440  0.88260  0.62480  1.0000 0.1192083471
H   H34       1.0  0.37520  0.11740  0.54560  1.0000 0.1192083471
H   H35       1.0  0.54560  0.37520  0.11740  1.0000 0.1192083471
H   H36       1.0  0.11740  0.54560  0.37520  1.0000 0.1192083471
H   H37       1.0  0.11990  0.27930  0.57000  1.0000 0.1288014123
H   H38       1.0  0.27930  0.57000  0.11990  1.0000 0.1288014123
H   H39       1.0  0.57000  0.11990  0.27930  1.0000 0.1288014123
H   H40       1.0  0.72070  0.88010  0.43000  1.0000 0.1288014123
H   H41       1.0  0.43000  0.72070  0.88010  1.0000 0.1288014123
H   H42       1.0  0.88010  0.43000  0.72070  1.0000 0.1288014123
H   H43       1.0  0.88010  0.72070  0.43000  1.0000 0.1288014123
H   H44       1.0  0.72070  0.43000  0.88010  1.0000 0.1288014123
H   H45       1.0  0.43000  0.88010  0.72070  1.0000 0.1288014123
H   H46       1.0  0.27930  0.11990  0.57000  1.0000 0.1288014123
H   H47       1.0  0.57000  0.27930  0.11990  1.0000 0.1288014123
H   H48       1.0  0.11990  0.57000  0.27930  1.0000 0.1288014123
H   H49       1.0  0.99470  0.39680  0.50900  1.0000 0.1119413404
H   H50       1.0  0.39680  0.50900  0.99470  1.0000 0.1119413404
H   H51       1.0  0.50900  0.99470  0.39680  1.0000 0.1119413404
H   H52       1.0  0.60320  0.00530  0.49100  1.0000 0.1119413404
H   H53       1.0  0.49100  0.60320  0.00530  1.0000 0.1119413404
H   H54       1.0  0.00530  0.49100  0.60320  1.0000 0.1119413404
H   H55       1.0  0.00530  0.60320  0.49100  1.0000 0.1119413404
H   H56       1.0  0.60320  0.49100  0.00530  1.0000 0.1119413404
H   H57       1.0  0.49100  0.00530  0.60320  1.0000 0.1119413404
H   H58       1.0  0.39680  0.99470  0.50900  1.0000 0.1119413404
H   H59       1.0  0.50900  0.39680  0.99470  1.0000 0.1119413404
H   H60       1.0  0.99470  0.50900  0.39680  1.0000 0.1119413404
H   H61       1.0  0.06370  0.26330  0.26330  1.0000 0.1119413404
H   H62       1.0  0.26330  0.26330  0.06370  1.0000 0.1119413404
H   H63       1.0  0.26330  0.06370  0.26330  1.0000 0.1119413404
H   H64       1.0  0.73670  0.93630  0.73670  1.0000 0.1119413404
H   H65       1.0  0.73670  0.73670  0.93630  1.0000 0.1119413404
H   H66       1.0  0.93630  0.73670  0.73670  1.0000 0.1119413404
H   H67       1.0  0.10450  0.36960  0.32500  1.0000 0.0982692069
H   H68       1.0  0.36960  0.32500  0.10450  1.0000 0.0982692069
H   H69       1.0  0.32500  0.10450  0.36960  1.0000 0.0982692069
H   H70       1.0  0.63040  0.89550  0.67500  1.0000 0.0982692069
H   H71       1.0  0.67500  0.63040  0.89550  1.0000 0.0982692069
H   H72       1.0  0.89550  0.67500  0.63040  1.0000 0.0982692069
H   H73       1.0  0.89550  0.63040  0.67500  1.0000 0.0982692069
H   H74       1.0  0.63040  0.67500  0.89550  1.0000 0.0982692069
H   H75       1.0  0.67500  0.89550  0.63040  1.0000 0.0982692069
H   H76       1.0  0.36960  0.10450  0.32500  1.0000 0.0982692069
H   H77       1.0  0.32500  0.36960  0.10450  1.0000 0.0982692069
H   H78       1.0  0.10450  0.32500  0.36960  1.0000 0.0982692069
C   C1        1.0  0.98722  0.08677  0.45121  1.0000 0.5762550975
C   C2        1.0  0.08677  0.45121  0.98722  1.0000 0.5762550975
C   C3        1.0  0.45121  0.98722  0.08677  1.0000 0.5762550975
C   C4        1.0  0.91323  0.01278  0.54879  1.0000 0.5762550975
C   C5        1.0  0.54879  0.91323  0.01278  1.0000 0.5762550975
C   C6        1.0  0.01278  0.54879  0.91323  1.0000 0.5762550975
C   C7        1.0  0.01278  0.91323  0.54879  1.0000 0.5762550975
C   C8        1.0  0.91323  0.54879  0.01278  1.0000 0.5762550975
C   C9        1.0  0.54879  0.01278  0.91323  1.0000 0.5762550975
C   C10       1.0  0.08677  0.98722  0.45121  1.0000 0.5762550975
C   C11       1.0  0.45121  0.08677  0.98722  1.0000 0.5762550975
C   C12       1.0  0.98722  0.45121  0.08677  1.0000 0.5762550975
C   C13       1.0  0.98651  0.14757  0.43312  1.0000 -0.0209500542
C   C14       1.0  0.14757  0.43312  0.98651  1.0000 -0.0209500542
C   C15       1.0  0.43312  0.98651  0.14757  1.0000 -0.0209500542
C   C16       1.0  0.85243  0.01349  0.56688  1.0000 -0.0209500542
C   C17       1.0  0.56688  0.85243  0.01349  1.0000 -0.0209500542
C   C18       1.0  0.01349  0.56688  0.85243  1.0000 -0.0209500542
C   C19       1.0  0.01349  0.85243  0.56688  1.0000 -0.0209500542
C   C20       1.0  0.85243  0.56688  0.01349  1.0000 -0.0209500542
C   C21       1.0  0.56688  0.01349  0.85243  1.0000 -0.0209500542
C   C22       1.0  0.14757  0.98651  0.43312  1.0000 -0.0209500542
C   C23       1.0  0.43312  0.14757  0.98651  1.0000 -0.0209500542
C   C24       1.0  0.98651  0.43312  0.14757  1.0000 -0.0209500542
C   C25       1.0  0.91269  0.10807  0.34664  1.0000 -0.0917823411
C   C26       1.0  0.10807  0.34664  0.91269  1.0000 -0.0917823411
C   C27       1.0  0.34664  0.91269  0.10807  1.0000 -0.0917823411
C   C28       1.0  0.89193  0.08731  0.65336  1.0000 -0.0917823411
C   C29       1.0  0.65336  0.89193  0.08731  1.0000 -0.0917823411
C   C30       1.0  0.08731  0.65336  0.89193  1.0000 -0.0917823411
C   C31       1.0  0.08731  0.89193  0.65336  1.0000 -0.0917823411
C   C32       1.0  0.89193  0.65336  0.08731  1.0000 -0.0917823411
C   C33       1.0  0.65336  0.08731  0.89193  1.0000 -0.0917823411
C   C34       1.0  0.10807  0.91269  0.34664  1.0000 -0.0917823411
C   C35       1.0  0.34664  0.10807  0.91269  1.0000 -0.0917823411
C   C36       1.0  0.91269  0.34664  0.10807  1.0000 -0.0917823411
C   C37       1.0  0.91231  0.16580  0.33189  1.0000 -0.141931471
C   C38       1.0  0.16580  0.33189  0.91231  1.0000 -0.141931471
C   C39       1.0  0.33189  0.91231  0.16580  1.0000 -0.141931471
C   C40       1.0  0.83420  0.08769  0.66811  1.0000 -0.141931471
C   C41       1.0  0.66811  0.83420  0.08769  1.0000 -0.141931471
C   C42       1.0  0.08769  0.66811  0.83420  1.0000 -0.141931471
C   C43       1.0  0.08769  0.83420  0.66811  1.0000 -0.141931471
C   C44       1.0  0.83420  0.66811  0.08769  1.0000 -0.141931471
C   C45       1.0  0.66811  0.08769  0.83420  1.0000 -0.141931471
C   C46       1.0  0.16580  0.91231  0.33189  1.0000 -0.141931471
C   C47       1.0  0.33189  0.16580  0.91231  1.0000 -0.141931471
C   C48       1.0  0.91231  0.33189  0.16580  1.0000 -0.141931471
C   C49       1.0  0.98389  0.26397  0.40514  1.0000 0.0890926161
C   C50       1.0  0.26397  0.40514  0.98389  1.0000 0.0890926161
C   C51       1.0  0.40514  0.98389  0.26397  1.0000 0.0890926161
C   C52       1.0  0.73603  0.01611  0.59486  1.0000 0.0890926161
C   C53       1.0  0.59486  0.73603  0.01611  1.0000 0.0890926161
C   C54       1.0  0.01611  0.59486  0.73603  1.0000 0.0890926161
C   C55       1.0  0.01611  0.73603  0.59486  1.0000 0.0890926161
C   C56       1.0  0.73603  0.59486  0.01611  1.0000 0.0890926161
C   C57       1.0  0.59486  0.01611  0.73603  1.0000 0.0890926161
C   C58       1.0  0.26397  0.98389  0.40514  1.0000 0.0890926161
C   C59       1.0  0.40514  0.26397  0.98389  1.0000 0.0890926161
C   C60       1.0  0.98389  0.40514  0.26397  1.0000 0.0890926161
C   C61       1.0  0.06330  0.30608  0.49392  1.0000 -0.1569565168
C   C62       1.0  0.30608  0.49392  0.06330  1.0000 -0.1569565168
C   C63       1.0  0.49392  0.06330  0.30608  1.0000 -0.1569565168
C   C64       1.0  0.69392  0.93670  0.50608  1.0000 -0.1569565168
C   C65       1.0  0.50608  0.69392  0.93670  1.0000 -0.1569565168
C   C66       1.0  0.93670  0.50608  0.69392  1.0000 -0.1569565168
C   C67       1.0  0.93670  0.69392  0.50608  1.0000 -0.1569565168
C   C68       1.0  0.69392  0.50608  0.93670  1.0000 -0.1569565168
C   C69       1.0  0.50608  0.93670  0.69392  1.0000 -0.1569565168
C   C70       1.0  0.30608  0.06330  0.49392  1.0000 -0.1569565168
C   C71       1.0  0.49392  0.30608  0.06330  1.0000 -0.1569565168
C   C72       1.0  0.06330  0.49392  0.30608  1.0000 -0.1569565168
C   C73       1.0  0.06503  0.24905  0.50842  1.0000 -0.0917823411
C   C74       1.0  0.24905  0.50842  0.06503  1.0000 -0.0917823411
C   C75       1.0  0.50842  0.06503  0.24905  1.0000 -0.0917823411
C   C76       1.0  0.75095  0.93497  0.49158  1.0000 -0.0917823411
C   C77       1.0  0.49158  0.75095  0.93497  1.0000 -0.0917823411
C   C78       1.0  0.93497  0.49158  0.75095  1.0000 -0.0917823411
C   C79       1.0  0.93497  0.75095  0.49158  1.0000 -0.0917823411
C   C80       1.0  0.75095  0.49158  0.93497  1.0000 -0.0917823411
C   C81       1.0  0.49158  0.93497  0.75095  1.0000 -0.0917823411
C   C82       1.0  0.24905  0.06503  0.50842  1.0000 -0.0917823411
C   C83       1.0  0.50842  0.24905  0.06503  1.0000 -0.0917823411
C   C84       1.0  0.06503  0.50842  0.24905  1.0000 -0.0958170598
C   C85       1.0  0.98171  0.32901  0.39658  1.0000 -0.0209500542
C   C86       1.0  0.32901  0.39658  0.98171  1.0000 -0.0209500542
C   C87       1.0  0.39658  0.98171  0.32901  1.0000 -0.0209500542
C   C88       1.0  0.67099  0.01829  0.60342  1.0000 -0.0209500542
C   C89       1.0  0.60342  0.67099  0.01829  1.0000 -0.0209500542
C   C90       1.0  0.01829  0.60342  0.67099  1.0000 -0.0209500542
C   C91       1.0  0.01829  0.67099  0.60342  1.0000 -0.0209500542
C   C92       1.0  0.67099  0.60342  0.01829  1.0000 -0.0209500542
C   C93       1.0  0.60342  0.01829  0.67099  1.0000 -0.0209500542
C   C94       1.0  0.32901  0.98171  0.39658  1.0000 -0.0209500542
C   C95       1.0  0.39658  0.32901  0.98171  1.0000 -0.0209500542
C   C96       1.0  0.98171  0.39658  0.32901  1.0000 -0.0209500542
C   C97       1.0  0.99139  0.39716  0.46335  1.0000 -0.1980101931
C   C98       1.0  0.39716  0.46335  0.99139  1.0000 -0.1980101931
C   C99       1.0  0.46335  0.99139  0.39716  1.0000 -0.1980101931
C   C100      1.0  0.60284  0.00861  0.53665  1.0000 -0.1980101931
C   C101      1.0  0.53665  0.60284  0.00861  1.0000 -0.1980101931
C   C102      1.0  0.00861  0.53665  0.60284  1.0000 -0.1980101931
C   C103      1.0  0.00861  0.60284  0.53665  1.0000 -0.1980101931
C   C104      1.0  0.60284  0.53665  0.00861  1.0000 -0.1980101931
C   C105      1.0  0.53665  0.00861  0.60284  1.0000 -0.1980101931
C   C106      1.0  0.39716  0.99139  0.46335  1.0000 -0.1980101931
C   C107      1.0  0.46335  0.39716  0.99139  1.0000 -0.1980101931
C   C108      1.0  0.99139  0.46335  0.39716  1.0000 -0.1980101931
C   C109      1.0  0.99628  0.46516  0.46516  1.0000 0.0746435865
C   C110      1.0  0.46516  0.46516  0.99628  1.0000 0.0746435865
C   C111      1.0  0.46516  0.99628  0.46516  1.0000 0.0746435865
C   C112      1.0  0.53484  0.00372  0.53484  1.0000 0.0746435865
C   C113      1.0  0.53484  0.53484  0.00372  1.0000 0.0746435865
C   C114      1.0  0.00372  0.53484  0.53484  1.0000 0.0746435865
C   C115      1.0  0.97654  0.32998  0.32998  1.0000 0.1438301374
C   C116      1.0  0.32998  0.32998  0.97654  1.0000 0.1438301374
C   C117      1.0  0.32998  0.97654  0.32998  1.0000 0.1438301374
C   C118      1.0  0.67002  0.02346  0.67002  1.0000 0.1438301374
C   C119      1.0  0.67002  0.67002  0.02346  1.0000 0.1438301374
C   C120      1.0  0.02346  0.67002  0.67002  1.0000 0.1438301374
C   C121      1.0  0.06896  0.30942  0.30942  1.0000 -0.2386303152
C   C122      1.0  0.30942  0.30942  0.06896  1.0000 -0.2386303152
C   C123      1.0  0.30942  0.06896  0.30942  1.0000 -0.2386303152
C   C124      1.0  0.69058  0.93104  0.69058  1.0000 -0.2386303152
C   C125      1.0  0.69058  0.69058  0.93104  1.0000 -0.2386303152
C   C126      1.0  0.93104  0.69058  0.69058  1.0000 -0.2386303152
O   O1        1.0  0.05872  0.13570  0.53994  1.0000 -0.5295512334
O   O2        1.0  0.13570  0.53994  0.05872  1.0000 -0.5295512334
O   O3        1.0  0.53994  0.05872  0.13570  1.0000 -0.5295512334
O   O4        1.0  0.86430  0.94128  0.46006  1.0000 -0.5295512334
O   O5        1.0  0.46006  0.86430  0.94128  1.0000 -0.5295512334
O   O6        1.0  0.94128  0.46006  0.86430  1.0000 -0.5295512334
O   O7        1.0  0.94128  0.86430  0.46006  1.0000 -0.5295512334
O   O8        1.0  0.86430  0.46006  0.94128  1.0000 -0.5295512334
O   O9        1.0  0.46006  0.94128  0.86430  1.0000 -0.5295512334
O   O10       1.0  0.13570  0.05872  0.53994  1.0000 -0.5295512334
O   O11       1.0  0.53994  0.13570  0.05872  1.0000 -0.5295512334
O   O12       1.0  0.05872  0.53994  0.13570  1.0000 -0.5295512334
O   O13       1.0  0.91961  0.99645  0.38234  1.0000 -0.4910992762
O   O14       1.0  0.99645  0.38234  0.91961  1.0000 -0.4910992762
O   O15       1.0  0.38234  0.91961  0.99645  1.0000 -0.4910992762
O   O16       1.0  0.00355  0.08039  0.61766  1.0000 -0.4910992762
O   O17       1.0  0.61766  0.00355  0.08039  1.0000 -0.4910992762
O   O18       1.0  0.08039  0.61766  0.00355  1.0000 -0.4910992762
O   O19       1.0  0.08039  0.00355  0.61766  1.0000 -0.4910992762
O   O20       1.0  0.00355  0.61766  0.08039  1.0000 -0.4910992762
O   O21       1.0  0.61766  0.08039  0.00355  1.0000 -0.4910992762
O   O22       1.0  0.99645  0.91961  0.38234  1.0000 -0.4910992762
O   O23       1.0  0.38234  0.99645  0.91961  1.0000 -0.4910992762
O   O24       1.0  0.91961  0.38234  0.99645  1.0000 -0.4910992762
O   O25       1.0  0.96942  0.26469  0.26469  1.0000 -0.1918060239
O   O26       1.0  0.26469  0.26469  0.96942  1.0000 -0.1918060239
O   O27       1.0  0.26469  0.96942  0.26469  1.0000 -0.1918060239
O   O28       1.0  0.73531  0.03058  0.73531  1.0000 -0.1918060239
O   O29       1.0  0.73531  0.73531  0.03058  1.0000 -0.1918060239
O   O30       1.0  0.03058  0.73531  0.73531  1.0000 -0.1918060239
