# DDEC6 charges by PACMAN v1.1 (https://github.com/mtap-research/PACMAN-charge/)
data_2016[Pr][pcu]3[ASR]2
_chemical_formula_sum              "Pr2 H24 C48 O12"
_cell_length_a       10.4425
_cell_length_b       11.4902
_cell_length_c       12.9208
_cell_angle_alpha    106.462
_cell_angle_beta     90.503
_cell_angle_gamma    93.335

_symmetry_space_group_name_H-M    "P 1"
_symmetry_Int_Tables_number       1

loop_
  _symmetry_equiv_pos_as_xyz
  'x, y, z'

loop_
  _atom_site_type_symbol
  _atom_site_label
  _atom_site_symmetry_multiplicity
  _atom_site_fract_x
  _atom_site_fract_y
  _atom_site_fract_z
  _atom_site_occupancy
  _atom_site_charge
Pr  Pr1       1.0  0.52060  0.55219  0.65825  1.0000 2.067365647
Pr  Pr2       1.0  0.47940  0.44781  0.34175  1.0000 2.067365647
H   H1        1.0  0.60243  0.90760  0.73095  1.0000 0.1076210644
H   H2        1.0  0.39757  0.09240  0.26905  1.0000 0.1076210644
H   H3        1.0  0.69205  0.09760  0.69741  1.0000 0.0982772018
H   H4        1.0  0.30795  0.90240  0.30259  1.0000 0.0982772018
H   H5        1.0  0.69963  0.29568  0.84616  1.0000 0.0982772018
H   H6        1.0  0.30037  0.70432  0.15384  1.0000 0.0982772018
H   H7        1.0  0.61232  0.30307  0.02506  1.0000 0.1076210644
H   H8        1.0  0.38768  0.69693  0.97494  1.0000 0.1076210644
H   H9        1.0  0.75569  0.70278  0.58975  1.0000 0.0915744757
H   H10       1.0  0.24431  0.29722  0.41025  1.0000 0.0915744757
H   H11       1.0  0.85037  0.85571  0.74986  1.0000 0.1076210644
H   H12       1.0  0.14963  0.14429  0.25014  1.0000 0.1076210644
H   H13       1.0  0.08081  0.84558  0.80791  1.0000 0.1076210644
H   H14       1.0  0.91919  0.15442  0.19209  1.0000 0.1076210644
H   H15       1.0  0.20935  0.67908  0.70984  1.0000 0.1215742087
H   H16       1.0  0.79065  0.32092  0.29016  1.0000 0.1215742087
H   H17       1.0  0.26709  0.21748  0.55317  1.0000 0.1076210644
H   H18       1.0  0.73291  0.78252  0.44683  1.0000 0.1076210644
H   H19       1.0  0.07421  0.10922  0.60070  1.0000 0.0982772018
H   H20       1.0  0.92579  0.89078  0.39930  1.0000 0.0982772018
H   H21       1.0  0.08535  0.89480  0.61199  1.0000 0.0915744757
H   H22       1.0  0.91465  0.10520  0.38801  1.0000 0.0915744757
H   H23       1.0  0.28311  0.78565  0.56587  1.0000 0.1076210644
H   H24       1.0  0.71689  0.21435  0.43413  1.0000 0.1076210644
C   C1        1.0  0.50755  0.76582  0.83407  1.0000 0.5870471006
C   C2        1.0  0.49245  0.23418  0.16593  1.0000 0.5870471006
C   C3        1.0  0.50138  0.88749  0.91786  1.0000 -0.0877781505
C   C4        1.0  0.49862  0.11251  0.08214  1.0000 -0.0877781505
C   C5        1.0  0.55481  0.99506  0.89822  1.0000 0.0518448798
C   C6        1.0  0.44519  0.00494  0.10178  1.0000 0.0518448798
C   C7        1.0  0.60601  0.99395  0.79529  1.0000 -0.1259525979
C   C8        1.0  0.39399  0.00605  0.20471  1.0000 -0.1259525979
C   C9        1.0  0.65543  0.10001  0.77725  1.0000 -0.0801800906
C   C10       1.0  0.34457  0.89999  0.22275  1.0000 -0.0801800906
C   C11       1.0  0.65797  0.21200  0.86074  1.0000 -0.0801800906
C   C12       1.0  0.34203  0.78800  0.13926  1.0000 -0.0801800906
C   C13       1.0  0.60922  0.21704  0.96036  1.0000 -0.1259525979
C   C14       1.0  0.39078  0.78296  0.03964  1.0000 -0.1242677017
C   C15       1.0  0.55461  0.10900  0.98193  1.0000 0.0518448798
C   C16       1.0  0.44539  0.89100  0.01807  1.0000 0.0518448798
C   C17       1.0  0.73638  0.51102  0.43136  1.0000 0.6192551857
C   C18       1.0  0.26362  0.48898  0.56864  1.0000 0.6192551857
C   C19       1.0  0.87251  0.50687  0.46668  1.0000 -0.1000930065
C   C20       1.0  0.12749  0.49313  0.53332  1.0000 -0.1000930065
C   C21       1.0  0.92560  0.59649  0.55818  1.0000 0.0518448798
C   C22       1.0  0.07440  0.40351  0.44182  1.0000 0.0518448798
C   C23       1.0  0.85381  0.69535  0.61707  1.0000 -0.1360219562
C   C24       1.0  0.14619  0.30465  0.38293  1.0000 -0.1360219562
C   C25       1.0  0.90791  0.78156  0.70565  1.0000 -0.0731433301
C   C26       1.0  0.09209  0.21844  0.29435  1.0000 -0.0731433301
C   C27       1.0  0.03694  0.77510  0.73879  1.0000 -0.0731433301
C   C28       1.0  0.96306  0.22490  0.26121  1.0000 -0.0731433301
C   C29       1.0  0.10991  0.68248  0.68362  1.0000 -0.1360219562
C   C30       1.0  0.89009  0.31752  0.31638  1.0000 -0.1360219562
C   C31       1.0  0.05575  0.58994  0.59227  1.0000 0.0576008657
C   C32       1.0  0.94425  0.41006  0.40773  1.0000 0.0576008657
C   C33       1.0  0.49040  0.25306  0.49925  1.0000 0.660945118
C   C34       1.0  0.50960  0.74694  0.50075  1.0000 0.660945118
C   C35       1.0  0.49490  0.12144  0.49664  1.0000 -0.1090422565
C   C36       1.0  0.50510  0.87856  0.50336  1.0000 -0.1090422565
C   C37       1.0  0.38592  0.06235  0.52776  1.0000 0.0518448798
C   C38       1.0  0.61408  0.93765  0.47224  1.0000 0.0518448798
C   C39       1.0  0.26975  0.12276  0.55467  1.0000 -0.1259525979
C   C40       1.0  0.73025  0.87724  0.44533  1.0000 -0.1259525979
C   C41       1.0  0.16357  0.06277  0.58245  1.0000 -0.0731433301
C   C42       1.0  0.83643  0.93723  0.41755  1.0000 -0.0731433301
C   C43       1.0  0.16926  0.94076  0.58716  1.0000 -0.0801800906
C   C44       1.0  0.83074  0.05924  0.41284  1.0000 -0.0801800906
C   C45       1.0  0.27944  0.87987  0.56258  1.0000 -0.1242677017
C   C46       1.0  0.72056  0.12013  0.43742  1.0000 -0.1242677017
C   C47       1.0  0.39104  0.93861  0.53146  1.0000 0.0518448798
C   C48       1.0  0.60896  0.06139  0.46854  1.0000 0.0518448798
O   O1        1.0  0.61584  0.71605  0.81452  1.0000 -0.640719294
O   O2        1.0  0.38416  0.28395  0.18548  1.0000 -0.640719294
O   O3        1.0  0.40383  0.71121  0.78427  1.0000 -0.6311546558
O   O4        1.0  0.59617  0.28879  0.21573  1.0000 -0.6311546558
O   O5        1.0  0.64545  0.49014  0.49432  1.0000 -0.7792427236
O   O6        1.0  0.35455  0.50986  0.50568  1.0000 -0.7792427236
O   O7        1.0  0.70761  0.52606  0.34084  1.0000 -0.584294557
O   O8        1.0  0.29239  0.47394  0.65916  1.0000 -0.584294557
O   O9        1.0  0.51542  0.33287  0.58939  1.0000 -0.652166962
O   O10       1.0  0.48458  0.66713  0.41061  1.0000 -0.652166962
O   O11       1.0  0.46027  0.27689  0.41114  1.0000 -0.6789306397
O   O12       1.0  0.53973  0.72311  0.58886  1.0000 -0.6789306397
