# DDEC6 charges by PACMAN v1.1 (https://github.com/mtap-research/PACMAN-charge/)
data_2016[Zn][nan]3[ASR]5
_chemical_formula_sum              "Zn6 H40 C96 O48"
_cell_length_a       9.7199
_cell_length_b       20.5008
_cell_length_c       20.5008
_cell_angle_alpha    86.7784
_cell_angle_beta     76.2868
_cell_angle_gamma    76.2868

_symmetry_space_group_name_H-M    "P 1"
_symmetry_Int_Tables_number       1

loop_
  _symmetry_equiv_pos_as_xyz
  'x, y, z'

loop_
  _atom_site_type_symbol
  _atom_site_label
  _atom_site_symmetry_multiplicity
  _atom_site_fract_x
  _atom_site_fract_y
  _atom_site_fract_z
  _atom_site_occupancy
  _atom_site_charge
Zn  Zn1       1.0  0.75000  0.50000  0.50000  1.0000 0.9608774894
Zn  Zn2       1.0  0.50000  0.00000  0.00000  1.0000 0.9608774894
Zn  Zn3       1.0  0.23682  0.13818  0.63818  1.0000 0.9608774894
Zn  Zn4       1.0  0.01318  0.86182  0.36182  1.0000 0.9608774894
Zn  Zn5       1.0  0.12500  0.63818  0.86182  1.0000 0.9608774894
Zn  Zn6       1.0  0.62500  0.36182  0.13818  1.0000 0.9608774894
H   H1        1.0  0.46645  0.30095  0.56478  1.0000 0.1223088144
H   H2        1.0  0.33217  0.69905  0.43522  1.0000 0.1223088144
H   H3        1.0  0.96878  0.56478  0.69905  1.0000 0.1223088144
H   H4        1.0  0.23260  0.43522  0.30095  1.0000 0.1257090135
H   H5        1.0  0.78355  0.93522  0.19905  1.0000 0.1223088144
H   H6        1.0  0.91783  0.06478  0.80095  1.0000 0.1223088144
H   H7        1.0  0.28122  0.80095  0.93522  1.0000 0.1223088144
H   H8        1.0  0.01740  0.19905  0.06478  1.0000 0.1223088144
H   H9        1.0  0.42760  0.24931  0.77397  1.0000 0.1223088144
H   H10       1.0  0.45089  0.75069  0.22603  1.0000 0.1223088144
H   H11       1.0  0.79843  0.77397  0.75069  1.0000 0.1223088144
H   H12       1.0  0.32308  0.22603  0.24931  1.0000 0.1223088144
H   H13       1.0  0.82240  0.72603  0.25069  1.0000 0.1223088144
H   H14       1.0  0.79911  0.27397  0.74931  1.0000 0.1223088144
H   H15       1.0  0.45157  0.74931  0.72603  1.0000 0.1223088144
H   H16       1.0  0.92692  0.25069  0.27397  1.0000 0.1223088144
H   H17       1.0  0.59011  0.42505  0.69407  1.0000 0.1257090135
H   H18       1.0  0.70923  0.57495  0.30593  1.0000 0.1257090135
H   H19       1.0  0.71582  0.69407  0.57495  1.0000 0.1257090135
H   H20       1.0  0.98484  0.30593  0.42505  1.0000 0.1257090135
H   H21       1.0  0.65989  0.80593  0.07495  1.0000 0.1257090135
H   H22       1.0  0.54077  0.19407  0.92505  1.0000 0.1257090135
H   H23       1.0  0.53418  0.92505  0.80593  1.0000 0.1257090135
H   H24       1.0  0.26516  0.07495  0.19407  1.0000 0.1257090135
H   H25       1.0  0.38863  0.45842  0.79941  1.0000 0.1454264535
H   H26       1.0  0.64646  0.54158  0.20059  1.0000 0.1454264535
H   H27       1.0  0.81195  0.79941  0.54158  1.0000 0.1454264535
H   H28       1.0  0.15295  0.20059  0.45842  1.0000 0.1454264535
H   H29       1.0  0.86137  0.70059  0.04158  1.0000 0.1454264535
H   H30       1.0  0.60354  0.29941  0.95842  1.0000 0.1454264535
H   H31       1.0  0.43805  0.95842  0.70059  1.0000 0.1454264535
H   H32       1.0  0.09705  0.04158  0.29941  1.0000 0.1454264535
H   H33       1.0  0.64947  0.03873  0.51798  1.0000 0.3649174584
H   H34       1.0  0.20618  0.96127  0.48202  1.0000 0.3649174584
H   H35       1.0  0.83255  0.51798  0.96127  1.0000 0.3649174584
H   H36       1.0  0.31180  0.48202  0.03873  1.0000 0.3649174584
H   H37       1.0  0.60053  0.98202  0.46127  1.0000 0.3649174584
H   H38       1.0  0.04382  0.01798  0.53873  1.0000 0.3649174584
H   H39       1.0  0.41745  0.53873  0.98202  1.0000 0.3649174584
H   H40       1.0  0.93820  0.46127  0.01798  1.0000 0.3649174584
C   C1        1.0  0.58465  0.41096  0.56630  1.0000 0.5481441468
C   C2        1.0  0.56192  0.58904  0.43370  1.0000 0.5481441468
C   C3        1.0  0.84904  0.56630  0.58904  1.0000 0.5481441468
C   C4        1.0  0.00439  0.43370  0.41096  1.0000 0.5481441468
C   C5        1.0  0.66535  0.93370  0.08904  1.0000 0.5481441468
C   C6        1.0  0.68808  0.06630  0.91096  1.0000 0.5481441468
C   C7        1.0  0.40096  0.91096  0.93370  1.0000 0.5481441468
C   C8        1.0  0.24561  0.08904  0.06630  1.0000 0.5481441468
C   C9        1.0  0.38411  0.21219  0.65821  1.0000 0.5557972921
C   C10       1.0  0.25450  0.78781  0.34179  1.0000 0.5557972921
C   C11       1.0  0.95769  0.65821  0.78781  1.0000 0.5481441468
C   C12       1.0  0.40370  0.34179  0.21219  1.0000 0.5557972921
C   C13       1.0  0.86589  0.84179  0.28781  1.0000 0.5557972921
C   C14       1.0  0.99550  0.15821  0.71219  1.0000 0.5481441468
C   C15       1.0  0.29231  0.71219  0.84179  1.0000 0.5557972921
C   C16       1.0  0.84630  0.28781  0.15821  1.0000 0.5481441468
C   C17       1.0  0.53665  0.36679  0.62377  1.0000 -0.002611908
C   C18       1.0  0.52720  0.63321  0.37623  1.0000 -0.002611908
C   C19       1.0  0.83959  0.62377  0.63321  1.0000 -0.002611908
C   C20       1.0  0.09657  0.37623  0.36679  1.0000 -0.002611908
C   C21       1.0  0.71335  0.87623  0.13321  1.0000 -0.002611908
C   C22       1.0  0.72280  0.12377  0.86679  1.0000 -0.002611908
C   C23       1.0  0.41041  0.86679  0.87623  1.0000 -0.002611908
C   C24       1.0  0.15343  0.13321  0.12377  1.0000 -0.002611908
C   C25       1.0  0.48364  0.31129  0.61363  1.0000 -0.082117979
C   C26       1.0  0.40856  0.68871  0.38637  1.0000 -0.082117979
C   C27       1.0  0.90273  0.61363  0.68871  1.0000 -0.082117979
C   C28       1.0  0.20507  0.38637  0.31129  1.0000 -0.082117979
C   C29       1.0  0.76636  0.88637  0.18871  1.0000 -0.082117979
C   C30       1.0  0.84144  0.11363  0.81129  1.0000 -0.082117979
C   C31       1.0  0.34727  0.81129  0.88637  1.0000 -0.082117979
C   C32       1.0  0.04493  0.18871  0.11363  1.0000 -0.082117979
C   C33       1.0  0.44762  0.26899  0.66811  1.0000 -0.0210501983
C   C34       1.0  0.38473  0.73101  0.33189  1.0000 -0.0210501983
C   C35       1.0  0.88427  0.66811  0.73101  1.0000 -0.0210501983
C   C36       1.0  0.28338  0.33189  0.26899  1.0000 -0.0210501983
C   C37       1.0  0.80238  0.83189  0.23101  1.0000 -0.0210501983
C   C38       1.0  0.86527  0.16811  0.76899  1.0000 -0.0210501983
C   C39       1.0  0.36573  0.76899  0.83189  1.0000 -0.0210501983
C   C40       1.0  0.96662  0.23101  0.16811  1.0000 -0.0210501983
C   C41       1.0  0.46085  0.28257  0.73250  1.0000 -0.1210747633
C   C42       1.0  0.47591  0.71743  0.26750  1.0000 -0.1210747633
C   C43       1.0  0.80665  0.73250  0.71743  1.0000 -0.1210747633
C   C44       1.0  0.25659  0.26750  0.28257  1.0000 -0.1210747633
C   C45       1.0  0.78915  0.76750  0.21743  1.0000 -0.1210747633
C   C46       1.0  0.77409  0.23250  0.78257  1.0000 -0.1210747633
C   C47       1.0  0.44335  0.78257  0.76750  1.0000 -0.1210747633
C   C48       1.0  0.99341  0.21743  0.23250  1.0000 -0.1210747633
C   C49       1.0  0.50934  0.33954  0.74329  1.0000 0.0541575934
C   C50       1.0  0.59217  0.66046  0.25671  1.0000 0.0541575934
C   C51       1.0  0.74737  0.74329  0.66046  1.0000 0.0541575934
C   C52       1.0  0.15112  0.25671  0.33954  1.0000 0.0554097047
C   C53       1.0  0.74066  0.75671  0.16046  1.0000 0.0541575934
C   C54       1.0  0.65783  0.24329  0.83954  1.0000 0.0541575934
C   C55       1.0  0.50263  0.83954  0.75671  1.0000 0.0541575934
C   C56       1.0  0.09888  0.16046  0.24329  1.0000 0.0541575934
C   C57       1.0  0.54787  0.38131  0.68827  1.0000 -0.1210747633
C   C58       1.0  0.61746  0.61869  0.31173  1.0000 -0.1210747633
C   C59       1.0  0.76386  0.68827  0.61869  1.0000 -0.1210747633
C   C60       1.0  0.07082  0.31173  0.38131  1.0000 -0.1210747633
C   C61       1.0  0.70213  0.81173  0.11869  1.0000 -0.1210747633
C   C62       1.0  0.63254  0.18827  0.88131  1.0000 -0.1210747633
C   C63       1.0  0.48614  0.88131  0.81173  1.0000 -0.1210747633
C   C64       1.0  0.17918  0.11869  0.18827  1.0000 -0.1210747633
C   C65       1.0  0.49219  0.01625  0.58877  1.0000 0.5758317425
C   C66       1.0  0.09721  0.98375  0.41123  1.0000 0.5758317425
C   C67       1.0  0.91904  0.58877  0.98375  1.0000 0.5758317425
C   C68       1.0  0.49156  0.41123  0.01625  1.0000 0.5758317425
C   C69       1.0  0.75781  0.91123  0.48375  1.0000 0.5758317425
C   C70       1.0  0.15279  0.08877  0.51625  1.0000 0.5758317425
C   C71       1.0  0.33096  0.51625  0.91123  1.0000 0.5758317425
C   C72       1.0  0.75844  0.48375  0.08877  1.0000 0.5758317425
C   C73       1.0  0.42078  0.44629  0.90011  1.0000 -0.1210747633
C   C74       1.0  0.76718  0.55371  0.09989  1.0000 -0.1210747633
C   C75       1.0  0.67911  0.90011  0.55371  1.0000 -0.1210747633
C   C76       1.0  0.13293  0.09989  0.44629  1.0000 -0.1210747633
C   C77       1.0  0.82922  0.59989  0.05371  1.0000 -0.1210747633
C   C78       1.0  0.48282  0.40011  0.94629  1.0000 -0.1210747633
C   C79       1.0  0.57089  0.94629  0.59989  1.0000 -0.1210747633
C   C80       1.0  0.11707  0.05371  0.40011  1.0000 -0.1210747633
C   C81       1.0  0.43768  0.42340  0.83444  1.0000 -0.1111007301
C   C82       1.0  0.69552  0.57660  0.16556  1.0000 -0.1111007301
C   C83       1.0  0.72788  0.83444  0.57660  1.0000 -0.1111007301
C   C84       1.0  0.13892  0.16556  0.42340  1.0000 -0.1111007301
C   C85       1.0  0.81232  0.66556  0.07660  1.0000 -0.1111007301
C   C86       1.0  0.55448  0.33444  0.92340  1.0000 -0.1111007301
C   C87       1.0  0.52212  0.92340  0.66556  1.0000 -0.1111007301
C   C88       1.0  0.11108  0.07660  0.33444  1.0000 -0.1111007301
C   C89       1.0  0.50949  0.35801  0.81220  1.0000 0.0541575934
C   C90       1.0  0.67970  0.64199  0.18780  1.0000 0.0541575934
C   C91       1.0  0.67831  0.81220  0.64199  1.0000 0.0541575934
C   C92       1.0  0.13250  0.18780  0.35801  1.0000 0.0541575934
C   C93       1.0  0.74051  0.68780  0.14199  1.0000 0.0541575934
C   C94       1.0  0.57030  0.31220  0.85801  1.0000 0.0541575934
C   C95       1.0  0.57169  0.85801  0.68780  1.0000 0.0541575934
C   C96       1.0  0.11750  0.14199  0.31220  1.0000 0.0541575934
O   O1        1.0  0.64643  0.45692  0.57931  1.0000 -0.4665324041
O   O2        1.0  0.68266  0.54308  0.42069  1.0000 -0.4665324041
O   O3        1.0  0.77426  0.57931  0.54308  1.0000 -0.4665324041
O   O4        1.0  0.89664  0.42069  0.45692  1.0000 -0.4665324041
O   O5        1.0  0.60357  0.92069  0.04308  1.0000 -0.4665324041
O   O6        1.0  0.56734  0.07931  0.95692  1.0000 -0.4665324041
O   O7        1.0  0.47574  0.95692  0.92069  1.0000 -0.4665324041
O   O8        1.0  0.35336  0.04308  0.07931  1.0000 -0.4665324041
O   O9        1.0  0.56889  0.40277  0.50826  1.0000 -0.3895241009
O   O10       1.0  0.47992  0.59723  0.49174  1.0000 -0.3956747638
O   O11       1.0  0.92285  0.50826  0.59723  1.0000 -0.3895241009
O   O12       1.0  0.02834  0.49174  0.40277  1.0000 -0.3895241009
O   O13       1.0  0.68111  0.99174  0.09723  1.0000 -0.3895241009
O   O14       1.0  0.77008  0.00826  0.90277  1.0000 -0.3895241009
O   O15       1.0  0.32715  0.90277  0.99174  1.0000 -0.3895241009
O   O16       1.0  0.22166  0.09723  0.00826  1.0000 -0.3895241009
O   O17       1.0  0.36589  0.20195  0.59927  1.0000 -0.5503678532
O   O18       1.0  0.16711  0.79805  0.40073  1.0000 -0.5503678532
O   O19       1.0  0.03485  0.59927  0.79805  1.0000 -0.5503678532
O   O20       1.0  0.43216  0.40073  0.20195  1.0000 -0.5503678532
O   O21       1.0  0.88411  0.90073  0.29805  1.0000 -0.5503678532
O   O22       1.0  0.08289  0.09927  0.70195  1.0000 -0.5503678532
O   O23       1.0  0.21515  0.70195  0.90073  1.0000 -0.5503678532
O   O24       1.0  0.81784  0.29805  0.09927  1.0000 -0.5503678532
O   O25       1.0  0.34102  0.17479  0.70727  1.0000 -0.526885903
O   O26       1.0  0.22308  0.82521  0.29273  1.0000 -0.526885903
O   O27       1.0  0.95171  0.70727  0.82521  1.0000 -0.526885903
O   O28       1.0  0.48418  0.29273  0.17479  1.0000 -0.526885903
O   O29       1.0  0.90898  0.79273  0.32521  1.0000 -0.526885903
O   O30       1.0  0.02692  0.20727  0.67479  1.0000 -0.526885903
O   O31       1.0  0.29829  0.67479  0.79273  1.0000 -0.526885903
O   O32       1.0  0.76582  0.32521  0.20727  1.0000 -0.526885903
O   O33       1.0  0.37064  0.03934  0.62491  1.0000 -0.4365851945
O   O34       1.0  0.03490  0.96066  0.37509  1.0000 -0.4347776757
O   O35       1.0  0.00444  0.62491  0.96066  1.0000 -0.4365851945
O   O36       1.0  0.59002  0.37509  0.03934  1.0000 -0.4365851945
O   O37       1.0  0.87936  0.87509  0.46066  1.0000 -0.4365851945
O   O38       1.0  0.21510  0.12491  0.53934  1.0000 -0.4365851945
O   O39       1.0  0.24556  0.53934  0.87509  1.0000 -0.4365851945
O   O40       1.0  0.65998  0.46066  0.12491  1.0000 -0.4365851945
O   O41       1.0  0.54623  0.05625  0.53845  1.0000 -0.4365851945
O   O42       1.0  0.14092  0.94375  0.46155  1.0000 -0.4365851945
O   O43       1.0  0.91532  0.53845  0.94375  1.0000 -0.4365851945
O   O44       1.0  0.39753  0.46155  0.05625  1.0000 -0.4365851945
O   O45       1.0  0.70377  0.96155  0.44375  1.0000 -0.4365851945
O   O46       1.0  0.10908  0.03845  0.55625  1.0000 -0.4365851945
O   O47       1.0  0.33468  0.55625  0.96155  1.0000 -0.4365851945
O   O48       1.0  0.85247  0.44375  0.03845  1.0000 -0.4365851945
