# DDEC6 charges by PACMAN v1.1 (https://github.com/mtap-research/PACMAN-charge/)
data_2016[Sm][nan]3[ASR]1
_chemical_formula_sum              "Sm12 H84 C180 O72"
_cell_length_a       33.5138
_cell_length_b       33.5138
_cell_length_c       33.5138
_cell_angle_alpha    155.347
_cell_angle_beta     155.347
_cell_angle_gamma    35.1441

_symmetry_space_group_name_H-M    "P 1"
_symmetry_Int_Tables_number       1

loop_
  _symmetry_equiv_pos_as_xyz
  'x, y, z'

loop_
  _atom_site_type_symbol
  _atom_site_label
  _atom_site_symmetry_multiplicity
  _atom_site_fract_x
  _atom_site_fract_y
  _atom_site_fract_z
  _atom_site_occupancy
  _atom_site_charge
Sm  Sm1       1.0  0.95983  0.45983  0.50000  1.0000 2.0983253118
Sm  Sm2       1.0  0.54017  0.04017  0.50000  1.0000 2.0983253118
Sm  Sm3       1.0  0.79017  0.79017  0.00000  1.0000 2.0983253118
Sm  Sm4       1.0  0.20983  0.20983  0.00000  1.0000 2.0983253118
Sm  Sm5       1.0  0.83896  0.08221  0.79713  1.0000 2.0500720438
Sm  Sm6       1.0  0.91779  0.71492  0.75675  1.0000 2.0500720438
Sm  Sm7       1.0  0.28508  0.04183  0.20287  1.0000 2.0500720438
Sm  Sm8       1.0  0.95817  0.16104  0.24325  1.0000 2.0500720438
Sm  Sm9       1.0  0.91104  0.20817  0.74325  1.0000 2.0500720438
Sm  Sm10      1.0  0.79183  0.53508  0.70287  1.0000 2.0500720438
Sm  Sm11      1.0  0.46492  0.16779  0.25675  1.0000 2.0500720438
Sm  Sm12      1.0  0.83221  0.08896  0.29713  1.0000 2.0500720438
H   H1        1.0  0.82280  0.19750  0.02070  1.0000 0.1386824135
H   H2        1.0  0.80250  0.82320  0.62530  1.0000 0.1386824135
H   H3        1.0  0.17680  0.80210  0.97930  1.0000 0.1386824135
H   H4        1.0  0.19790  0.17720  0.37470  1.0000 0.1386824135
H   H5        1.0  0.92720  0.44790  0.87470  1.0000 0.1386824135
H   H6        1.0  0.55210  0.42680  0.47930  1.0000 0.1386824135
H   H7        1.0  0.57320  0.05250  0.12530  1.0000 0.1386824135
H   H8        1.0  0.94750  0.07280  0.52070  1.0000 0.1386824135
H   H9        1.0  0.52300  0.31090  0.86770  1.0000 0.1012525633
H   H10       1.0  0.68910  0.55680  0.21210  1.0000 0.1012525633
H   H11       1.0  0.44320  0.65530  0.13230  1.0000 0.1012525633
H   H12       1.0  0.34470  0.47700  0.78790  1.0000 0.1012525633
H   H13       1.0  0.22700  0.59470  0.28790  1.0000 0.1012525633
H   H14       1.0  0.40530  0.69320  0.63230  1.0000 0.1012525633
H   H15       1.0  0.30680  0.93910  0.71210  1.0000 0.1012525633
H   H16       1.0  0.06090  0.77300  0.36770  1.0000 0.1012525633
H   H17       1.0  0.56100  0.22950  0.76990  1.0000 0.1210076472
H   H18       1.0  0.77050  0.54040  0.33150  1.0000 0.1210076472
H   H19       1.0  0.45960  0.79110  0.23010  1.0000 0.1210076472
H   H20       1.0  0.20890  0.43900  0.66850  1.0000 0.1210076472
H   H21       1.0  0.18900  0.45890  0.16850  1.0000 0.1210076472
H   H22       1.0  0.54110  0.70960  0.73010  1.0000 0.1210076472
H   H23       1.0  0.29040  0.02050  0.83150  1.0000 0.1210076472
H   H24       1.0  0.97950  0.81100  0.26990  1.0000 0.1210076472
H   H25       1.0  0.67680  0.25360  0.05880  1.0000 0.1210076472
H   H26       1.0  0.74640  0.80520  0.42320  1.0000 0.1210076472
H   H27       1.0  0.19480  0.61800  0.94120  1.0000 0.1210076472
H   H28       1.0  0.38200  0.32320  0.57680  1.0000 0.1210076472
H   H29       1.0  0.07320  0.63200  0.07680  1.0000 0.1210076472
H   H30       1.0  0.36800  0.44480  0.44120  1.0000 0.1210076472
H   H31       1.0  0.55520  0.99640  0.92320  1.0000 0.1210076472
H   H32       1.0  0.00360  0.92680  0.55880  1.0000 0.1210076472
H   H33       1.0  0.84770  0.26020  0.33750  1.0000 0.1386824135
H   H34       1.0  0.73980  0.07730  0.58750  1.0000 0.1386824135
H   H35       1.0  0.92270  0.51020  0.66250  1.0000 0.1386824135
H   H36       1.0  0.48980  0.15230  0.41250  1.0000 0.1386824135
H   H37       1.0  0.90230  0.73980  0.91250  1.0000 0.1386824135
H   H38       1.0  0.26020  0.17270  0.16250  1.0000 0.1386824135
H   H39       1.0  0.82730  0.98980  0.08750  1.0000 0.1386824135
H   H40       1.0  0.01020  0.09770  0.83750  1.0000 0.1386824135
H   H41       1.0  0.57840  0.21460  0.08800  1.0000 0.1210076472
H   H42       1.0  0.78540  0.87340  0.36380  1.0000 0.1210076472
H   H43       1.0  0.12660  0.49040  0.91200  1.0000 0.1210076472
H   H44       1.0  0.50960  0.42160  0.63620  1.0000 0.1210076472
H   H45       1.0  0.17160  0.75960  0.13620  1.0000 0.1210076472
H   H46       1.0  0.24040  0.37660  0.41200  1.0000 0.1210076472
H   H47       1.0  0.62340  0.03540  0.86380  1.0000 0.1210076472
H   H48       1.0  0.96460  0.82840  0.58800  1.0000 0.1210076472
H   H49       1.0  0.52400  0.28040  0.04200  1.0000 0.1210076472
H   H50       1.0  0.71960  0.76160  0.24360  1.0000 0.1210076472
H   H51       1.0  0.23840  0.48200  0.95800  1.0000 0.1210076472
H   H52       1.0  0.51800  0.47600  0.75640  1.0000 0.1210076472
H   H53       1.0  0.22600  0.76800  0.25640  1.0000 0.1210076472
H   H54       1.0  0.23200  0.48840  0.45800  1.0000 0.1210076472
H   H55       1.0  0.51160  0.96960  0.74360  1.0000 0.1210076472
H   H56       1.0  0.03040  0.77400  0.54200  1.0000 0.1210076472
H   H57       1.0  0.55450  0.46760  0.19830  1.0000 0.1103975472
H   H58       1.0  0.53240  0.73070  0.08690  1.0000 0.1103975472
H   H59       1.0  0.26930  0.35620  0.80170  1.0000 0.1103975472
H   H60       1.0  0.64380  0.44550  0.91310  1.0000 0.1103975472
H   H61       1.0  0.19550  0.89380  0.41310  1.0000 0.1103975472
H   H62       1.0  0.10620  0.51930  0.30170  1.0000 0.1103975472
H   H63       1.0  0.48070  0.78240  0.58690  1.0000 0.1103975472
H   H64       1.0  0.21760  0.80450  0.69830  1.0000 0.1103975472
H   H65       1.0  0.52140  0.53880  0.17240  1.0000 0.1012525633
H   H66       1.0  0.46120  0.63360  0.98260  1.0000 0.1012525633
H   H67       1.0  0.36640  0.34900  0.82760  1.0000 0.1012525633
H   H68       1.0  0.65100  0.47860  0.01740  1.0000 0.1012525633
H   H69       1.0  0.22860  0.90100  0.51740  1.0000 0.1012525633
H   H70       1.0  0.09900  0.61640  0.32760  1.0000 0.1012525633
H   H71       1.0  0.38360  0.71120  0.48260  1.0000 0.1012525633
H   H72       1.0  0.28880  0.77140  0.67240  1.0000 0.1012525633
H   H73       1.0  0.56370  0.46680  0.08690  1.0000 0.1012525633
H   H74       1.0  0.53320  0.62010  0.09690  1.0000 0.1012525633
H   H75       1.0  0.37990  0.47680  0.91310  1.0000 0.1012525633
H   H76       1.0  0.52320  0.43630  0.90310  1.0000 0.1012525633
H   H77       1.0  0.18630  0.77320  0.40310  1.0000 0.1012525633
H   H78       1.0  0.22680  0.62990  0.41310  1.0000 0.1012525633
H   H79       1.0  0.37010  0.78320  0.59690  1.0000 0.1012525633
H   H80       1.0  0.21680  0.81370  0.58690  1.0000 0.1012525633
H   H81       1.0  0.07270  0.07270  0.00000  1.0000 0.125465348
H   H82       1.0  0.92730  0.92730  0.00000  1.0000 0.125465348
H   H83       1.0  0.67730  0.17730  0.50000  1.0000 0.1210076472
H   H84       1.0  0.82270  0.32270  0.50000  1.0000 0.125465348
C   C1        1.0  0.72629  0.15879  0.83410  1.0000 0.6386840266
C   C2        1.0  0.84121  0.67531  0.56750  1.0000 0.6386840266
C   C3        1.0  0.32469  0.89219  0.16590  1.0000 0.6386840266
C   C4        1.0  0.10781  0.27371  0.43250  1.0000 0.6386840266
C   C5        1.0  0.02371  0.35781  0.93250  1.0000 0.6386840266
C   C6        1.0  0.64219  0.57469  0.66590  1.0000 0.6386840266
C   C7        1.0  0.42531  0.09121  0.06750  1.0000 0.6386840266
C   C8        1.0  0.90879  0.97629  0.33410  1.0000 0.6386840266
C   C9        1.0  0.69538  0.20888  0.88850  1.0000 -0.0291177858
C   C10       1.0  0.79112  0.67962  0.48650  1.0000 -0.0291177858
C   C11       1.0  0.32038  0.80688  0.11150  1.0000 -0.0291177858
C   C12       1.0  0.19312  0.30462  0.51350  1.0000 -0.0291177858
C   C13       1.0  0.05462  0.44312  0.01350  1.0000 -0.0291177858
C   C14       1.0  0.55688  0.57038  0.61150  1.0000 -0.0291177858
C   C15       1.0  0.42962  0.04112  0.98650  1.0000 -0.0291177858
C   C16       1.0  0.95888  0.94538  0.38850  1.0000 -0.0291177858
C   C17       1.0  0.76273  0.22243  0.99190  1.0000 -0.1066694784
C   C18       1.0  0.77757  0.76947  0.54030  1.0000 -0.1066694784
C   C19       1.0  0.23053  0.77083  0.00810  1.0000 -0.1066694784
C   C20       1.0  0.22917  0.23727  0.45970  1.0000 -0.1066694784
C   C21       1.0  0.98727  0.47917  0.95970  1.0000 -0.1066694784
C   C22       1.0  0.52083  0.48053  0.50810  1.0000 -0.1066694784
C   C23       1.0  0.51947  0.02757  0.04030  1.0000 -0.1066694784
C   C24       1.0  0.97243  0.01273  0.49190  1.0000 -0.1066694784
C   C25       1.0  0.74335  0.27185  0.05370  1.0000 -0.0625178631
C   C26       1.0  0.72815  0.78185  0.47150  1.0000 -0.0625178631
C   C27       1.0  0.21815  0.68965  0.94630  1.0000 -0.0625178631
C   C28       1.0  0.31035  0.25665  0.52850  1.0000 -0.0625178631
C   C29       1.0  0.00665  0.56035  0.02850  1.0000 -0.0625178631
C   C30       1.0  0.43965  0.46815  0.44630  1.0000 -0.0625178631
C   C31       1.0  0.53185  0.97815  0.97150  1.0000 -0.0625178631
C   C32       1.0  0.02185  0.99335  0.55370  1.0000 -0.0625178631
C   C33       1.0  0.82526  0.28916  0.17330  1.0000 0.6386840266
C   C34       1.0  0.71084  0.88414  0.53610  1.0000 0.6386840266
C   C35       1.0  0.11586  0.65196  0.82670  1.0000 0.6386840266
C   C36       1.0  0.34804  0.17474  0.46390  1.0000 0.6386840266
C   C37       1.0  0.92474  0.59804  0.96390  1.0000 0.6386840266
C   C38       1.0  0.40196  0.36586  0.32670  1.0000 0.6386840266
C   C39       1.0  0.63414  0.96084  0.03610  1.0000 0.6386840266
C   C40       1.0  0.03916  0.07526  0.67330  1.0000 0.6386840266
C   C41       1.0  0.65202  0.30472  0.00590  1.0000 0.0453415771
C   C42       1.0  0.69528  0.70118  0.34730  1.0000 0.0453415771
C   C43       1.0  0.29882  0.64612  0.99410  1.0000 0.0453415771
C   C44       1.0  0.35388  0.34798  0.65270  1.0000 0.0453415771
C   C45       1.0  0.09798  0.60388  0.15270  1.0000 0.0453415771
C   C46       1.0  0.39612  0.54882  0.49410  1.0000 0.0453415771
C   C47       1.0  0.45118  0.94528  0.84730  1.0000 0.0453415771
C   C48       1.0  0.05472  0.90202  0.50590  1.0000 0.0453415771
C   C49       1.0  0.58424  0.28884  0.90000  1.0000 -0.1664405422
C   C50       1.0  0.71116  0.61116  0.29540  1.0000 -0.1664405422
C   C51       1.0  0.38884  0.68424  0.10000  1.0000 -0.1664405422
C   C52       1.0  0.31576  0.41576  0.70460  1.0000 -0.1664405422
C   C53       1.0  0.16576  0.56576  0.20460  1.0000 -0.1664405422
C   C54       1.0  0.43424  0.63884  0.60000  1.0000 -0.1664405422
C   C55       1.0  0.36116  0.96116  0.79540  1.0000 -0.1664405422
C   C56       1.0  0.03884  0.83424  0.40000  1.0000 -0.1664405422
C   C57       1.0  0.60684  0.24004  0.84100  1.0000 -0.1066694784
C   C58       1.0  0.75996  0.60096  0.36680  1.0000 -0.1066694784
C   C59       1.0  0.39904  0.76584  0.15900  1.0000 -0.1066694784
C   C60       1.0  0.23416  0.39316  0.63320  1.0000 -0.1066694784
C   C61       1.0  0.14316  0.48416  0.13320  1.0000 -0.1066694784
C   C62       1.0  0.51584  0.64904  0.65900  1.0000 -0.1066694784
C   C63       1.0  0.35096  0.00996  0.86680  1.0000 -0.1066694784
C   C64       1.0  0.99004  0.85684  0.34100  1.0000 -0.1066694784
C   C65       1.0  0.62406  0.35176  0.06130  1.0000 0.0835772898
C   C66       1.0  0.64824  0.70954  0.27230  1.0000 0.0835772898
C   C67       1.0  0.29046  0.56276  0.93870  1.0000 0.0835772898
C   C68       1.0  0.43724  0.37594  0.72770  1.0000 0.0835772898
C   C69       1.0  0.12594  0.68724  0.22770  1.0000 0.0835772898
C   C70       1.0  0.31276  0.54046  0.43870  1.0000 0.0835772898
C   C71       1.0  0.45954  0.89824  0.77230  1.0000 0.0835772898
C   C72       1.0  0.10176  0.87406  0.56130  1.0000 0.0835772898
C   C73       1.0  0.64542  0.31072  0.08110  1.0000 -0.1807603839
C   C74       1.0  0.68928  0.77038  0.33470  1.0000 -0.1807603839
C   C75       1.0  0.22962  0.56432  0.91890  1.0000 -0.1807603839
C   C76       1.0  0.43568  0.35458  0.66530  1.0000 -0.1807603839
C   C77       1.0  0.10458  0.68568  0.16530  1.0000 -0.1807603839
C   C78       1.0  0.31432  0.47962  0.41890  1.0000 -0.1807603839
C   C79       1.0  0.52038  0.93928  0.83470  1.0000 -0.1807603839
C   C80       1.0  0.06072  0.89542  0.58110  1.0000 -0.1807603839
C   C81       1.0  0.61996  0.35476  0.13300  1.0000 0.0695463639
C   C82       1.0  0.64524  0.77824  0.26520  1.0000 0.0695463639
C   C83       1.0  0.22176  0.48696  0.86700  1.0000 0.0695463639
C   C84       1.0  0.51304  0.38004  0.73480  1.0000 0.0695463639
C   C85       1.0  0.13004  0.76304  0.23480  1.0000 0.0695463639
C   C86       1.0  0.23696  0.47176  0.36700  1.0000 0.0695463639
C   C87       1.0  0.52824  0.89524  0.76520  1.0000 0.0695463639
C   C88       1.0  0.10476  0.86996  0.63300  1.0000 0.0695463639
C   C89       1.0  0.65284  0.31534  0.16530  1.0000 0.0453415771
C   C90       1.0  0.68466  0.84996  0.33750  1.0000 0.0453415771
C   C91       1.0  0.15004  0.48754  0.83470  1.0000 0.0453415771
C   C92       1.0  0.51246  0.34716  0.66250  1.0000 0.0453415771
C   C93       1.0  0.09716  0.76246  0.16250  1.0000 0.0453415771
C   C94       1.0  0.23754  0.40004  0.33470  1.0000 0.0453415771
C   C95       1.0  0.59996  0.93466  0.83750  1.0000 0.0453415771
C   C96       1.0  0.06534  0.90284  0.66530  1.0000 0.0453415771
C   C97       1.0  0.74930  0.30830  0.25340  1.0000 -0.0517000397
C   C98       1.0  0.69170  0.94510  0.44100  1.0000 -0.0517000397
C   C99       1.0  0.05490  0.49590  0.74660  1.0000 -0.0517000397
C   C100      1.0  0.50410  0.25070  0.55900  1.0000 -0.0517000397
C   C101      1.0  0.00070  0.75410  0.05900  1.0000 -0.0517000397
C   C102      1.0  0.24590  0.30490  0.24660  1.0000 -0.0517000397
C   C103      1.0  0.69510  0.94170  0.94100  1.0000 -0.0517000397
C   C104      1.0  0.05830  0.99930  0.75340  1.0000 -0.0517000397
C   C105      1.0  0.78224  0.26544  0.27900  1.0000 -0.1179956909
C   C106      1.0  0.73456  0.01356  0.51680  1.0000 -0.1179956909
C   C107      1.0  0.98644  0.50324  0.72100  1.0000 -0.1179956909
C   C108      1.0  0.49676  0.21776  0.48320  1.0000 -0.1179956909
C   C109      1.0  0.96776  0.74676  0.98320  1.0000 -0.1179956909
C   C110      1.0  0.25324  0.23644  0.22100  1.0000 -0.1179956909
C   C111      1.0  0.76356  0.98456  0.01680  1.0000 -0.1179956909
C   C112      1.0  0.01544  0.03224  0.77900  1.0000 -0.1179956909
C   C113      1.0  0.71885  0.23075  0.21830  1.0000 -0.0160802397
C   C114      1.0  0.76925  0.98755  0.48810  1.0000 -0.0160802397
C   C115      1.0  0.01245  0.50055  0.78170  1.0000 -0.0160802397
C   C116      1.0  0.49945  0.28115  0.51190  1.0000 -0.0160802397
C   C117      1.0  0.03115  0.74945  0.01190  1.0000 -0.0160802397
C   C118      1.0  0.25055  0.26245  0.28170  1.0000 -0.0160802397
C   C119      1.0  0.73755  0.01925  0.98810  1.0000 -0.0160802397
C   C120      1.0  0.98075  0.96885  0.71830  1.0000 -0.0160802397
C   C121      1.0  0.75730  0.18200  0.24570  1.0000 0.5478596386
C   C122      1.0  0.81800  0.06370  0.57530  1.0000 0.5478596386
C   C123      1.0  0.93630  0.51160  0.75430  1.0000 0.5478596386
C   C124      1.0  0.48840  0.24270  0.42470  1.0000 0.5478596386
C   C125      1.0  0.99270  0.73840  0.92470  1.0000 0.5478596386
C   C126      1.0  0.26160  0.18630  0.25430  1.0000 0.5478596386
C   C127      1.0  0.81370  0.06800  0.07530  1.0000 0.5478596386
C   C128      1.0  0.93200  0.00730  0.74570  1.0000 0.5478596386
C   C129      1.0  0.62212  0.23792  0.13000  1.0000 -0.0914115638
C   C130      1.0  0.76208  0.89208  0.38420  1.0000 -0.0914115638
C   C131      1.0  0.10792  0.49212  0.87000  1.0000 -0.0914115638
C   C132      1.0  0.50788  0.37788  0.61580  1.0000 -0.0914115638
C   C133      1.0  0.12788  0.75788  0.11580  1.0000 -0.0914115638
C   C134      1.0  0.24212  0.35792  0.37000  1.0000 -0.0914115638
C   C135      1.0  0.64208  0.01208  0.88420  1.0000 -0.0914115638
C   C136      1.0  0.98792  0.87212  0.63000  1.0000 -0.0914115638
C   C137      1.0  0.58972  0.27772  0.10320  1.0000 -0.1589064303
C   C138      1.0  0.72228  0.82548  0.31200  1.0000 -0.1589064303
C   C139      1.0  0.17452  0.48652  0.89680  1.0000 -0.1589064303
C   C140      1.0  0.51348  0.41028  0.68800  1.0000 -0.1589064303
C   C141      1.0  0.16028  0.76348  0.18800  1.0000 -0.1589064303
C   C142      1.0  0.23652  0.42452  0.39680  1.0000 -0.1589064303
C   C143      1.0  0.57548  0.97228  0.81200  1.0000 -0.1589064303
C   C144      1.0  0.02772  0.83972  0.60320  1.0000 -0.1589064303
C   C145      1.0  0.57276  0.43886  0.16510  1.0000 -0.1477336887
C   C146      1.0  0.56114  0.72624  0.13390  1.0000 -0.1477336887
C   C147      1.0  0.27376  0.40766  0.83490  1.0000 -0.1477336887
C   C148      1.0  0.59234  0.42724  0.86610  1.0000 -0.1477336887
C   C149      1.0  0.17724  0.84234  0.36610  1.0000 -0.1477336887
C   C150      1.0  0.15766  0.52376  0.33490  1.0000 -0.1477336887
C   C151      1.0  0.47624  0.81114  0.63390  1.0000 -0.1477336887
C   C152      1.0  0.18886  0.82276  0.66510  1.0000 -0.1477336887
C   C153      1.0  0.55218  0.48138  0.14880  1.0000 -0.0914115638
C   C154      1.0  0.51862  0.66742  0.07080  1.0000 -0.0914115638
C   C155      1.0  0.33258  0.40338  0.85120  1.0000 -0.0914115638
C   C156      1.0  0.59662  0.44782  0.92920  1.0000 -0.0914115638
C   C157      1.0  0.19782  0.84662  0.42920  1.0000 -0.0914115638
C   C158      1.0  0.15338  0.58258  0.35120  1.0000 -0.0914115638
C   C159      1.0  0.41742  0.76862  0.57080  1.0000 -0.0914115638
C   C160      1.0  0.23138  0.80218  0.64880  1.0000 -0.0914115638
C   C161      1.0  0.57765  0.43805  0.09760  1.0000 -0.1664405422
C   C162      1.0  0.56195  0.65955  0.13960  1.0000 -0.1664405422
C   C163      1.0  0.34045  0.48005  0.90240  1.0000 -0.1664405422
C   C164      1.0  0.51995  0.42235  0.86040  1.0000 -0.1664405422
C   C165      1.0  0.17235  0.76995  0.36040  1.0000 -0.1664405422
C   C166      1.0  0.23005  0.59045  0.40240  1.0000 -0.1664405422
C   C167      1.0  0.40955  0.81195  0.63960  1.0000 -0.1664405422
C   C168      1.0  0.18805  0.82765  0.59760  1.0000 -0.1664405422
C   C169      1.0  0.82305  0.35135  0.33070  1.0000 0.6142956611
C   C170      1.0  0.64865  0.97935  0.47170  1.0000 0.6142956611
C   C171      1.0  0.02065  0.49235  0.66930  1.0000 0.6142956611
C   C172      1.0  0.50765  0.17695  0.52830  1.0000 0.6151564714
C   C173      1.0  0.92695  0.75765  0.02830  1.0000 0.6142956611
C   C174      1.0  0.24235  0.27065  0.16930  1.0000 0.6142956611
C   C175      1.0  0.72935  0.89865  0.97170  1.0000 0.6142956611
C   C176      1.0  0.10135  0.07305  0.83070  1.0000 0.6142956611
C   C177      1.0  0.05810  0.05810  0.00000  1.0000 0.4807348248
C   C178      1.0  0.94190  0.94190  0.00000  1.0000 0.4807348248
C   C179      1.0  0.69190  0.19190  0.50000  1.0000 0.4807348248
C   C180      1.0  0.80810  0.30810  0.50000  1.0000 0.4807348248
O   O1        1.0  0.88847  0.29987  0.33080  1.0000 -0.7499704476
O   O2        1.0  0.70013  0.03093  0.58860  1.0000 -0.7499704476
O   O3        1.0  0.96907  0.55767  0.66920  1.0000 -0.7499704476
O   O4        1.0  0.44233  0.11153  0.41140  1.0000 -0.7499704476
O   O5        1.0  0.86153  0.69233  0.91140  1.0000 -0.7499704476
O   O6        1.0  0.30767  0.21907  0.16920  1.0000 -0.7499704476
O   O7        1.0  0.78093  0.95013  0.08860  1.0000 -0.7499704476
O   O8        1.0  0.04987  0.13847  0.83080  1.0000 -0.7499704476
O   O9        1.0  0.81352  0.14782  0.89790  1.0000 -0.6399402845
O   O10       1.0  0.85218  0.75008  0.66570  1.0000 -0.6399402845
O   O11       1.0  0.24992  0.91562  0.10210  1.0000 -0.6399402845
O   O12       1.0  0.08438  0.18648  0.33430  1.0000 -0.6399402845
O   O13       1.0  0.93648  0.33438  0.83430  1.0000 -0.6399402845
O   O14       1.0  0.66562  0.49992  0.60210  1.0000 -0.6399402845
O   O15       1.0  0.50008  0.10218  0.16570  1.0000 -0.6399402845
O   O16       1.0  0.89782  0.06352  0.39790  1.0000 -0.6399402845
O   O17       1.0  0.66589  0.12879  0.72590  1.0000 -0.7499704476
O   O18       1.0  0.87121  0.59711  0.53710  1.0000 -0.7499704476
O   O19       1.0  0.40289  0.93999  0.27410  1.0000 -0.7499704476
O   O20       1.0  0.06001  0.33411  0.46290  1.0000 -0.7499704476
O   O21       1.0  0.08411  0.31001  0.96290  1.0000 -0.7499704476
O   O22       1.0  0.68999  0.65289  0.77410  1.0000 -0.7499704476
O   O23       1.0  0.34711  0.12121  0.03710  1.0000 -0.7499704476
O   O24       1.0  0.87879  0.91589  0.22590  1.0000 -0.7499704476
O   O25       1.0  0.84450  0.37400  0.27750  1.0000 -0.6683570746
O   O26       1.0  0.62600  0.90350  0.47050  1.0000 -0.6683570746
O   O27       1.0  0.09650  0.56700  0.72250  1.0000 -0.6683570746
O   O28       1.0  0.43300  0.15550  0.52950  1.0000 -0.6683570746
O   O29       1.0  0.90550  0.68300  0.02950  1.0000 -0.6683570746
O   O30       1.0  0.31700  0.34650  0.22250  1.0000 -0.6683570746
O   O31       1.0  0.65350  0.87600  0.97050  1.0000 -0.6683570746
O   O32       1.0  0.12400  0.09450  0.77750  1.0000 -0.6683570746
O   O33       1.0  0.86895  0.21835  0.15940  1.0000 -0.6343948695
O   O34       1.0  0.78165  0.94105  0.65060  1.0000 -0.6343948695
O   O35       1.0  0.05895  0.70955  0.84060  1.0000 -0.6343948695
O   O36       1.0  0.29045  0.13105  0.34940  1.0000 -0.6343948695
O   O37       1.0  0.88105  0.54045  0.84940  1.0000 -0.6343948695
O   O38       1.0  0.45955  0.30895  0.34060  1.0000 -0.6343948695
O   O39       1.0  0.69105  0.03165  0.15060  1.0000 -0.6343948695
O   O40       1.0  0.96835  0.11895  0.65940  1.0000 -0.6343948695
O   O41       1.0  0.69869  0.14939  0.18910  1.0000 -0.6399402845
O   O42       1.0  0.85061  0.03971  0.54930  1.0000 -0.6399402845
O   O43       1.0  0.96029  0.50959  0.81090  1.0000 -0.6399402845
O   O44       1.0  0.49041  0.30131  0.45070  1.0000 -0.6399402845
O   O45       1.0  0.05131  0.74041  0.95070  1.0000 -0.6399402845
O   O46       1.0  0.25959  0.21029  0.31090  1.0000 -0.6399402845
O   O47       1.0  0.78971  0.10061  0.04930  1.0000 -0.6399402845
O   O48       1.0  0.89939  0.94869  0.68910  1.0000 -0.6399402845
O   O49       1.0  0.84335  0.16965  0.31570  1.0000 -0.620436773
O   O50       1.0  0.83035  0.14605  0.67370  1.0000 -0.620436773
O   O51       1.0  0.85395  0.52765  0.68430  1.0000 -0.620436773
O   O52       1.0  0.47235  0.15665  0.32630  1.0000 -0.620436773
O   O53       1.0  0.90665  0.72235  0.82630  1.0000 -0.620436773
O   O54       1.0  0.27765  0.10395  0.18430  1.0000 -0.620436773
O   O55       1.0  0.89605  0.08035  0.17370  1.0000 -0.620436773
O   O56       1.0  0.91965  0.09335  0.81570  1.0000 -0.620436773
O   O57       1.0  0.97576  0.04056  0.91800  1.0000 -0.5023787397
O   O58       1.0  0.95944  0.87744  0.93520  1.0000 -0.5023787397
O   O59       1.0  0.12256  0.05776  0.08200  1.0000 -0.5023787397
O   O60       1.0  0.94224  0.02424  0.06480  1.0000 -0.5023787397
O   O61       1.0  0.77424  0.19224  0.56480  1.0000 -0.5023787397
O   O62       1.0  0.80776  0.37256  0.58200  1.0000 -0.5023787397
O   O63       1.0  0.62744  0.20944  0.43520  1.0000 -0.5023787397
O   O64       1.0  0.79056  0.22576  0.41800  1.0000 -0.5023787397
O   O65       1.0  0.81654  0.43554  0.39120  1.0000 -0.5615217763
O   O66       1.0  0.56446  0.95566  0.38100  1.0000 -0.5615217763
O   O67       1.0  0.04434  0.42534  0.60880  1.0000 -0.5615217763
O   O68       1.0  0.57466  0.18346  0.61900  1.0000 -0.5615217763
O   O69       1.0  0.93346  0.82466  0.11900  1.0000 -0.5615217763
O   O70       1.0  0.17534  0.29434  0.10880  1.0000 -0.5615217763
O   O71       1.0  0.70566  0.81446  0.88100  1.0000 -0.5615217763
O   O72       1.0  0.18554  0.06654  0.89120  1.0000 -0.5615217763
