# DDEC6 charges by PACMAN v1.1 (https://github.com/mtap-research/PACMAN-charge/)
data_2016[V][bpq]3[ASR]1
_chemical_formula_sum              "V4 H16 C32 O20"
_cell_length_a       6.8223
_cell_length_b       14.9109
_cell_length_c       15.2689
_cell_angle_alpha    90
_cell_angle_beta     90
_cell_angle_gamma    90

_symmetry_space_group_name_H-M    "P 1"
_symmetry_Int_Tables_number       1

loop_
  _symmetry_equiv_pos_as_xyz
  'x, y, z'

loop_
  _atom_site_type_symbol
  _atom_site_label
  _atom_site_symmetry_multiplicity
  _atom_site_fract_x
  _atom_site_fract_y
  _atom_site_fract_z
  _atom_site_occupancy
  _atom_site_charge
V   V1        1.0  0.18782  0.76202  0.25000  1.0000 1.8094487033
V   V2        1.0  0.31218  0.26202  0.75000  1.0000 1.8094487033
V   V3        1.0  0.68782  0.73798  0.25000  1.0000 1.8094487033
V   V4        1.0  0.81218  0.23798  0.75000  1.0000 1.8094487033
H   H1        1.0  0.78370  0.93560  0.44510  1.0000 0.1303067199
H   H2        1.0  0.71630  0.43560  0.55490  1.0000 0.1303067199
H   H3        1.0  0.28370  0.56440  0.05490  1.0000 0.1303067199
H   H4        1.0  0.21630  0.06440  0.94510  1.0000 0.1303067199
H   H5        1.0  0.21630  0.06440  0.55490  1.0000 0.1303067199
H   H6        1.0  0.28370  0.56440  0.44510  1.0000 0.1303067199
H   H7        1.0  0.71630  0.43560  0.94510  1.0000 0.1303067199
H   H8        1.0  0.78370  0.93560  0.05490  1.0000 0.1303067199
H   H9        1.0  0.80390  0.04580  0.55120  1.0000 0.1303067199
H   H10       1.0  0.69610  0.54580  0.44880  1.0000 0.1303067199
H   H11       1.0  0.30390  0.45420  0.94880  1.0000 0.1303067199
H   H12       1.0  0.19610  0.95420  0.05120  1.0000 0.1303067199
H   H13       1.0  0.19610  0.95420  0.44880  1.0000 0.1303067199
H   H14       1.0  0.30390  0.45420  0.55120  1.0000 0.1303067199
H   H15       1.0  0.69610  0.54580  0.05120  1.0000 0.1303067199
H   H16       1.0  0.80390  0.04580  0.94880  1.0000 0.1303067199
C   C1        1.0  0.47600  0.86210  0.36797  1.0000 0.6222412205
C   C2        1.0  0.02400  0.36210  0.63203  1.0000 0.6222412205
C   C3        1.0  0.97600  0.63790  0.13203  1.0000 0.6222412205
C   C4        1.0  0.52400  0.13790  0.86797  1.0000 0.6222412205
C   C5        1.0  0.52400  0.13790  0.63203  1.0000 0.6222412205
C   C6        1.0  0.97600  0.63790  0.36797  1.0000 0.6222412205
C   C7        1.0  0.02400  0.36210  0.86797  1.0000 0.6222412205
C   C8        1.0  0.47600  0.86210  0.13203  1.0000 0.6222412205
C   C9        1.0  0.48820  0.93332  0.43681  1.0000 -0.0231335043
C   C10       1.0  0.01180  0.43332  0.56319  1.0000 -0.0231335043
C   C11       1.0  0.98820  0.56668  0.06319  1.0000 -0.0231335043
C   C12       1.0  0.51180  0.06668  0.93681  1.0000 -0.0231335043
C   C13       1.0  0.51180  0.06668  0.56319  1.0000 -0.0231335043
C   C14       1.0  0.98820  0.56668  0.43681  1.0000 -0.0231335043
C   C15       1.0  0.01180  0.43332  0.93681  1.0000 -0.0231335043
C   C16       1.0  0.48820  0.93332  0.06319  1.0000 -0.0231335043
C   C17       1.0  0.66990  0.96138  0.46728  1.0000 -0.0996470311
C   C18       1.0  0.83010  0.46138  0.53272  1.0000 -0.0996470311
C   C19       1.0  0.16990  0.53862  0.03272  1.0000 -0.0996470311
C   C20       1.0  0.33010  0.03862  0.96728  1.0000 -0.0996470311
C   C21       1.0  0.33010  0.03862  0.53272  1.0000 -0.0996470311
C   C22       1.0  0.16990  0.53862  0.46728  1.0000 -0.0996470311
C   C23       1.0  0.83010  0.46138  0.96728  1.0000 -0.0996470311
C   C24       1.0  0.66990  0.96138  0.03272  1.0000 -0.0996470311
C   C25       1.0  0.68210  0.02752  0.53052  1.0000 -0.105605482
C   C26       1.0  0.81790  0.52752  0.46948  1.0000 -0.105605482
C   C27       1.0  0.18210  0.47248  0.96948  1.0000 -0.105605482
C   C28       1.0  0.31790  0.97248  0.03052  1.0000 -0.105605482
C   C29       1.0  0.31790  0.97248  0.46948  1.0000 -0.105605482
C   C30       1.0  0.18210  0.47248  0.53052  1.0000 -0.105605482
C   C31       1.0  0.81790  0.52752  0.03052  1.0000 -0.105605482
C   C32       1.0  0.68210  0.02752  0.96948  1.0000 -0.105605482
O   O1        1.0  0.97000  0.80487  0.25000  1.0000 -0.7495550968
O   O2        1.0  0.53000  0.30487  0.75000  1.0000 -0.7495550968
O   O3        1.0  0.47000  0.69513  0.25000  1.0000 -0.7495550968
O   O4        1.0  0.03000  0.19513  0.75000  1.0000 -0.7495550968
O   O5        1.0  0.63540  0.82931  0.34148  1.0000 -0.5821997531
O   O6        1.0  0.86460  0.32931  0.65852  1.0000 -0.5821997531
O   O7        1.0  0.13540  0.67069  0.15852  1.0000 -0.5821997531
O   O8        1.0  0.36460  0.17069  0.84148  1.0000 -0.5821997531
O   O9        1.0  0.36460  0.17069  0.65852  1.0000 -0.5821997531
O   O10       1.0  0.13540  0.67069  0.34148  1.0000 -0.5821997531
O   O11       1.0  0.86460  0.32931  0.84148  1.0000 -0.5821997531
O   O12       1.0  0.63540  0.82931  0.15852  1.0000 -0.5821997531
O   O13       1.0  0.30810  0.84020  0.34159  1.0000 -0.6022156932
O   O14       1.0  0.19190  0.34020  0.65841  1.0000 -0.6022156932
O   O15       1.0  0.80810  0.65980  0.15841  1.0000 -0.6022156932
O   O16       1.0  0.69190  0.15980  0.84159  1.0000 -0.6022156932
O   O17       1.0  0.69190  0.15980  0.65841  1.0000 -0.6022156932
O   O18       1.0  0.80810  0.65980  0.34159  1.0000 -0.6022156932
O   O19       1.0  0.19190  0.34020  0.84159  1.0000 -0.6022156932
O   O20       1.0  0.30810  0.84020  0.15841  1.0000 -0.6022156932
