# DDEC6 charges by PACMAN v1.1 (https://github.com/mtap-research/PACMAN-charge/)
data_2016[Tb][nan]3[ASR]1
_chemical_formula_sum              "Tb12 H76 C172 N8 O72"
_cell_length_a       33.4311
_cell_length_b       33.4311
_cell_length_c       33.4311
_cell_angle_alpha    155.417
_cell_angle_beta     155.417
_cell_angle_gamma    35.0433

_symmetry_space_group_name_H-M    "P 1"
_symmetry_Int_Tables_number       1

loop_
  _symmetry_equiv_pos_as_xyz
  'x, y, z'

loop_
  _atom_site_type_symbol
  _atom_site_label
  _atom_site_symmetry_multiplicity
  _atom_site_fract_x
  _atom_site_fract_y
  _atom_site_fract_z
  _atom_site_occupancy
  _atom_site_charge
Tb  Tb1       1.0  0.45942  0.95942  0.50000  1.0000 2.0674978165
Tb  Tb2       1.0  0.04058  0.54058  0.50000  1.0000 2.0674978165
Tb  Tb3       1.0  0.29058  0.29058  0.00000  1.0000 2.0674978165
Tb  Tb4       1.0  0.70942  0.70942  0.00000  1.0000 2.0674978165
Tb  Tb5       1.0  0.42143  0.66228  0.20731  1.0000 2.0212373106
Tb  Tb6       1.0  0.33772  0.54503  0.75915  1.0000 2.0212373106
Tb  Tb7       1.0  0.45497  0.21412  0.79269  1.0000 2.0212373106
Tb  Tb8       1.0  0.78588  0.57857  0.24085  1.0000 2.0212373106
Tb  Tb9       1.0  0.32857  0.03588  0.74085  1.0000 2.0212373106
Tb  Tb10      1.0  0.29503  0.58772  0.25915  1.0000 2.0212373106
Tb  Tb11      1.0  0.96412  0.70497  0.29269  1.0000 2.0212373106
Tb  Tb12      1.0  0.41228  0.67143  0.70731  1.0000 2.0212373106
H   H1        1.0  0.42290  0.75990  0.41440  1.0000 0.1383961705
H   H2        1.0  0.24010  0.65450  0.66300  1.0000 0.1383961705
H   H3        1.0  0.34550  0.00850  0.58560  1.0000 0.1383961705
H   H4        1.0  0.99150  0.57710  0.33700  1.0000 0.1383961705
H   H5        1.0  0.32710  0.24150  0.83700  1.0000 0.1383961705
H   H6        1.0  0.40450  0.49010  0.16300  1.0000 0.1383961705
H   H7        1.0  0.75850  0.59550  0.08560  1.0000 0.1383961705
H   H8        1.0  0.50990  0.67290  0.91440  1.0000 0.1383961705
H   H9        1.0  0.62910  0.71880  0.64450  1.0000 0.120253106
H   H10       1.0  0.28120  0.92570  0.91030  1.0000 0.120253106
H   H11       1.0  0.07430  0.98460  0.35550  1.0000 0.1290488062
H   H12       1.0  0.01540  0.37090  0.08970  1.0000 0.1290488062
H   H13       1.0  0.12090  0.26540  0.58970  1.0000 0.120253106
H   H14       1.0  0.67570  0.53120  0.41030  1.0000 0.1290488062
H   H15       1.0  0.73460  0.32430  0.85550  1.0000 0.120253106
H   H16       1.0  0.46880  0.87910  0.14450  1.0000 0.1290488062
H   H17       1.0  0.74250  0.77740  0.75750  1.0000 0.120253106
H   H18       1.0  0.22260  0.98010  0.96510  1.0000 0.120253106
H   H19       1.0  0.01990  0.98500  0.24250  1.0000 0.120253106
H   H20       1.0  0.01500  0.25750  0.03490  1.0000 0.120253106
H   H21       1.0  0.00750  0.26500  0.53490  1.0000 0.120253106
H   H22       1.0  0.73010  0.47260  0.46510  1.0000 0.120253106
H   H23       1.0  0.73500  0.26990  0.74250  1.0000 0.120253106
H   H24       1.0  0.52740  0.99250  0.25750  1.0000 0.120253106
H   H25       1.0  0.76590  0.97790  0.91700  1.0000 0.091690485
H   H26       1.0  0.02210  0.93910  0.78800  1.0000 0.091690485
H   H27       1.0  0.06090  0.84890  0.08300  1.0000 0.091690485
H   H28       1.0  0.15110  0.23410  0.21200  1.0000 0.091690485
H   H29       1.0  0.98410  0.40110  0.71200  1.0000 0.091690485
H   H30       1.0  0.68910  0.27210  0.28800  1.0000 0.091690485
H   H31       1.0  0.59890  0.31090  0.58300  1.0000 0.091690485
H   H32       1.0  0.72790  0.01590  0.41700  1.0000 0.091690485
H   H33       1.0  0.88050  0.96450  0.90320  1.0000 0.0832855893
H   H34       1.0  0.03550  0.93870  0.91600  1.0000 0.0832855893
H   H35       1.0  0.06130  0.97730  0.09680  1.0000 0.0832855893
H   H36       1.0  0.02270  0.11950  0.08400  1.0000 0.0832855893
H   H37       1.0  0.86950  0.27270  0.58400  1.0000 0.0832855893
H   H38       1.0  0.68870  0.28550  0.41600  1.0000 0.0832855893
H   H39       1.0  0.72730  0.31130  0.59680  1.0000 0.0832855893
H   H40       1.0  0.71450  0.13050  0.40320  1.0000 0.0832855893
H   H41       1.0  0.69840  0.74860  0.57380  1.0000 0.1290488062
H   H42       1.0  0.25140  0.82520  0.94980  1.0000 0.1290488062
H   H43       1.0  0.17480  0.12460  0.42620  1.0000 0.1290488062
H   H44       1.0  0.87540  0.30160  0.05020  1.0000 0.1290488062
H   H45       1.0  0.05160  0.12540  0.55020  1.0000 0.1290488062
H   H46       1.0  0.57520  0.50140  0.44980  1.0000 0.1290488062
H   H47       1.0  0.87460  0.42480  0.92620  1.0000 0.1290488062
H   H48       1.0  0.49860  0.94840  0.07380  1.0000 0.1290488062
H   H49       1.0  0.67860  0.69900  0.37780  1.0000 0.1290488062
H   H50       1.0  0.30100  0.67880  0.97960  1.0000 0.1290488062
H   H51       1.0  0.32120  0.30080  0.62220  1.0000 0.1290488062
H   H52       1.0  0.69920  0.32140  0.02040  1.0000 0.1290488062
H   H53       1.0  0.07140  0.94920  0.52040  1.0000 0.1290488062
H   H54       1.0  0.42880  0.55100  0.47960  1.0000 0.1290488062
H   H55       1.0  0.05080  0.57120  0.12220  1.0000 0.1290488062
H   H56       1.0  0.44900  0.92860  0.87780  1.0000 0.1290488062
H   H57       1.0  0.96280  0.72570  0.66990  1.0000 0.120253106
H   H58       1.0  0.27430  0.94420  0.23710  1.0000 0.120253106
H   H59       1.0  0.05580  0.29290  0.33010  1.0000 0.120253106
H   H60       1.0  0.70710  0.03720  0.76290  1.0000 0.120253106
H   H61       1.0  0.78720  0.95710  0.26290  1.0000 0.120253106
H   H62       1.0  0.69420  0.52430  0.73710  1.0000 0.120253106
H   H63       1.0  0.04290  0.30580  0.83010  1.0000 0.120253106
H   H64       1.0  0.47570  0.21280  0.16990  1.0000 0.120253106
H   H65       1.0  0.94280  0.81750  0.79290  1.0000 0.1082022754
H   H66       1.0  0.18250  0.97540  0.12530  1.0000 0.1082022754
H   H67       1.0  0.02460  0.14990  0.20710  1.0000 0.1082022754
H   H68       1.0  0.85010  0.05720  0.87470  1.0000 0.1082022754
H   H69       1.0  0.80720  0.10010  0.37470  1.0000 0.1082022754
H   H70       1.0  0.72540  0.43250  0.62530  1.0000 0.1082022754
H   H71       1.0  0.89990  0.27460  0.70710  1.0000 0.1082022754
H   H72       1.0  0.56750  0.19280  0.29290  1.0000 0.1082022754
H   H73       1.0  0.42710  0.42710  0.00000  1.0000 0.1466801842
H   H74       1.0  0.57290  0.57290  0.00000  1.0000 0.1466801842
H   H75       1.0  0.32290  0.82290  0.50000  1.0000 0.1466801842
H   H76       1.0  0.17710  0.67710  0.50000  1.0000 0.1466801842
C   C1        1.0  0.52056  0.85056  0.52820  1.0000 0.6163814781
C   C2        1.0  0.14944  0.67764  0.67000  1.0000 0.6163814781
C   C3        1.0  0.32236  0.99236  0.47180  1.0000 0.6163814781
C   C4        1.0  0.00764  0.47944  0.33000  1.0000 0.6163814781
C   C5        1.0  0.22944  0.25764  0.83000  1.0000 0.6163814781
C   C6        1.0  0.42764  0.39944  0.17000  1.0000 0.6163814781
C   C7        1.0  0.74236  0.57236  0.97180  1.0000 0.6163814781
C   C8        1.0  0.60056  0.77056  0.02820  1.0000 0.6163814781
C   C9        1.0  0.55315  0.80755  0.55780  1.0000 -0.0468705231
C   C10       1.0  0.19245  0.75025  0.74560  1.0000 -0.0468705231
C   C11       1.0  0.24975  0.99535  0.44220  1.0000 -0.0468705231
C   C12       1.0  0.00465  0.44685  0.25440  1.0000 -0.0468705231
C   C13       1.0  0.19685  0.25465  0.75440  1.0000 -0.0468705231
C   C14       1.0  0.50025  0.44245  0.24560  1.0000 -0.0468705231
C   C15       1.0  0.74535  0.49975  0.94220  1.0000 -0.0468705231
C   C16       1.0  0.55755  0.80315  0.05780  1.0000 -0.0468705231
C   C17       1.0  0.48764  0.76494  0.48490  1.0000 -0.115496118
C   C18       1.0  0.23506  0.71996  0.72270  1.0000 -0.115496118
C   C19       1.0  0.28004  0.00274  0.51510  1.0000 -0.115496118
C   C20       1.0  0.99726  0.51236  0.27730  1.0000 -0.115496118
C   C21       1.0  0.26236  0.24726  0.77730  1.0000 -0.115496118
C   C22       1.0  0.46996  0.48506  0.22270  1.0000 -0.115496118
C   C23       1.0  0.75274  0.53004  0.01510  1.0000 -0.115496118
C   C24       1.0  0.51494  0.73764  0.98490  1.0000 -0.115496118
C   C25       1.0  0.51649  0.72939  0.51470  1.0000 -0.0086130823
C   C26       1.0  0.27061  0.78531  0.78710  1.0000 -0.0086130823
C   C27       1.0  0.21469  0.00179  0.48530  1.0000 -0.0086130823
C   C28       1.0  0.99821  0.48351  0.21290  1.0000 -0.0086130823
C   C29       1.0  0.23351  0.24821  0.71290  1.0000 -0.0086130823
C   C30       1.0  0.53531  0.52061  0.28710  1.0000 -0.0086130823
C   C31       1.0  0.75179  0.46469  0.98530  1.0000 -0.0086130823
C   C32       1.0  0.47939  0.76649  0.01470  1.0000 -0.0086130823
C   C33       1.0  0.43823  0.67883  0.42520  1.0000 0.5433716295
C   C34       1.0  0.32117  0.74637  0.75940  1.0000 0.5433716295
C   C35       1.0  0.25363  0.01303  0.57480  1.0000 0.5433716295
C   C36       1.0  0.98697  0.56177  0.24060  1.0000 0.5433716295
C   C37       1.0  0.31177  0.23697  0.74060  1.0000 0.5433716295
C   C38       1.0  0.49637  0.57117  0.25940  1.0000 0.5433716295
C   C39       1.0  0.76303  0.50363  0.07480  1.0000 0.5433716295
C   C40       1.0  0.42883  0.68823  0.92520  1.0000 0.5433716295
C   C41       1.0  0.61117  0.73857  0.62080  1.0000 -0.0933703412
C   C42       1.0  0.26143  0.88223  0.87260  1.0000 -0.0933703412
C   C43       1.0  0.11777  0.99037  0.37920  1.0000 -0.0933703412
C   C44       1.0  0.00963  0.38883  0.12740  1.0000 -0.0933703412
C   C45       1.0  0.13883  0.25963  0.62740  1.0000 -0.0933703412
C   C46       1.0  0.63223  0.51143  0.37260  1.0000 -0.0933703412
C   C47       1.0  0.74037  0.36777  0.87920  1.0000 -0.0933703412
C   C48       1.0  0.48857  0.86117  0.12080  1.0000 -0.0933703412
C   C49       1.0  0.67791  0.77631  0.69040  1.0000 -0.1631049937
C   C50       1.0  0.22369  0.91409  0.90160  1.0000 -0.1631049937
C   C51       1.0  0.08591  0.98751  0.30960  1.0000 -0.1631049937
C   C52       1.0  0.01249  0.32209  0.09840  1.0000 -0.1631049937
C   C53       1.0  0.07209  0.26249  0.59840  1.0000 -0.1631049937
C   C54       1.0  0.66409  0.47369  0.40160  1.0000 -0.1631049937
C   C55       1.0  0.73751  0.33591  0.80960  1.0000 -0.1631049937
C   C56       1.0  0.52631  0.92791  0.19040  1.0000 -0.1631049937
C   C57       1.0  0.65216  0.81406  0.66390  1.0000 0.0418433425
C   C58       1.0  0.18594  0.84984  0.83810  1.0000 0.0418433425
C   C59       1.0  0.15016  0.98826  0.33610  1.0000 0.0418433425
C   C60       1.0  0.01174  0.34784  0.16190  1.0000 0.0418433425
C   C61       1.0  0.09784  0.26174  0.66190  1.0000 0.0418433425
C   C62       1.0  0.59984  0.43594  0.33810  1.0000 0.0418433425
C   C63       1.0  0.73826  0.40016  0.83610  1.0000 0.0418433425
C   C64       1.0  0.56406  0.90216  0.16390  1.0000 0.0418433425
C   C65       1.0  0.72184  0.85094  0.73130  1.0000 0.0418433425
C   C66       1.0  0.14906  0.88036  0.87090  1.0000 0.0418433425
C   C67       1.0  0.11964  0.99054  0.26870  1.0000 0.0418433425
C   C68       1.0  0.00946  0.27816  0.12910  1.0000 0.0418433425
C   C69       1.0  0.02816  0.25946  0.62910  1.0000 0.0418433425
C   C70       1.0  0.63036  0.39906  0.37090  1.0000 0.0418433425
C   C71       1.0  0.74054  0.36964  0.76870  1.0000 0.0418433425
C   C72       1.0  0.60094  0.97184  0.23130  1.0000 0.0418433425
C   C73       1.0  0.77532  0.94462  0.87170  1.0000 0.0418433425
C   C74       1.0  0.05538  0.92708  0.83070  1.0000 0.0418433425
C   C75       1.0  0.07292  0.90362  0.12830  1.0000 0.0418433425
C   C76       1.0  0.09638  0.22468  0.16930  1.0000 0.0418433425
C   C77       1.0  0.97468  0.34638  0.66930  1.0000 0.0418433425
C   C78       1.0  0.67708  0.30538  0.33070  1.0000 0.0418433425
C   C79       1.0  0.65362  0.32292  0.62830  1.0000 0.0418433425
C   C80       1.0  0.69462  0.02532  0.37170  1.0000 0.0418433425
C   C81       1.0  0.84043  0.93583  0.86000  1.0000 -0.0086130823
C   C82       1.0  0.06417  0.92417  0.90460  1.0000 -0.0086130823
C   C83       1.0  0.07583  0.98043  0.14000  1.0000 -0.0086130823
C   C84       1.0  0.01957  0.15957  0.09540  1.0000 -0.0086130823
C   C85       1.0  0.90957  0.26957  0.59540  1.0000 -0.0086130823
C   C86       1.0  0.67417  0.31417  0.40460  1.0000 -0.0086130823
C   C87       1.0  0.73043  0.32583  0.64000  1.0000 -0.0086130823
C   C88       1.0  0.68583  0.09043  0.36000  1.0000 -0.0086130823
C   C89       1.0  0.79255  0.85215  0.72960  1.0000 0.033074793
C   C90       1.0  0.14785  0.87745  0.94040  1.0000 0.033074793
C   C91       1.0  0.12255  0.06295  0.27040  1.0000 0.033074793
C   C92       1.0  0.93705  0.20745  0.05960  1.0000 0.033074793
C   C93       1.0  0.95745  0.18705  0.55960  1.0000 0.033074793
C   C94       1.0  0.62745  0.39785  0.44040  1.0000 0.033074793
C   C95       1.0  0.81295  0.37255  0.77040  1.0000 0.033074793
C   C96       1.0  0.60215  0.04255  0.22960  1.0000 0.033074793
C   C97       1.0  0.73143  0.80673  0.66230  1.0000 -0.1416693269
C   C98       1.0  0.19327  0.85557  0.92470  1.0000 -0.1416693269
C   C99       1.0  0.14443  0.06913  0.33770  1.0000 -0.1416693269
C   C100      1.0  0.93087  0.26857  0.07530  1.0000 -0.1416693269
C   C101      1.0  0.01857  0.18087  0.57530  1.0000 -0.1416693269
C   C102      1.0  0.60557  0.44327  0.42470  1.0000 -0.1416693269
C   C103      1.0  0.81913  0.39443  0.83770  1.0000 -0.1416693269
C   C104      1.0  0.55673  0.98143  0.16230  1.0000 -0.1416693269
C   C105      1.0  0.80022  0.80442  0.65300  1.0000 0.0540876785
C   C106      1.0  0.19558  0.84858  0.99580  1.0000 0.0540876785
C   C107      1.0  0.15142  0.14722  0.34700  1.0000 0.0540876785
C   C108      1.0  0.85278  0.19978  0.00420  1.0000 0.0540876785
C   C109      1.0  0.94978  0.10278  0.50420  1.0000 0.0540876785
C   C110      1.0  0.59858  0.44558  0.49580  1.0000 0.0540876785
C   C111      1.0  0.89722  0.40142  0.84700  1.0000 0.0540876785
C   C112      1.0  0.55442  0.05022  0.15300  1.0000 0.0540876785
C   C113      1.0  0.71849  0.77409  0.52980  1.0000 -0.0627282853
C   C114      1.0  0.22591  0.75571  0.94440  1.0000 -0.0627282853
C   C115      1.0  0.24429  0.18869  0.47020  1.0000 -0.0627282853
C   C116      1.0  0.81131  0.28151  0.05560  1.0000 -0.0627282853
C   C117      1.0  0.03151  0.06131  0.55560  1.0000 -0.0627282853
C   C118      1.0  0.50571  0.47591  0.44440  1.0000 -0.0627282853
C   C119      1.0  0.93869  0.49429  0.97020  1.0000 -0.0627282853
C   C120      1.0  0.52409  0.96849  0.02980  1.0000 -0.0627282853
C   C121      1.0  0.61708  0.79168  0.46640  1.0000 0.6406736044
C   C122      1.0  0.20832  0.67472  0.82540  1.0000 0.6406736044
C   C123      1.0  0.32528  0.15068  0.53360  1.0000 0.6406736044
C   C124      1.0  0.84932  0.38292  0.17460  1.0000 0.6406736044
C   C125      1.0  0.13292  0.09932  0.67460  1.0000 0.6406736044
C   C126      1.0  0.42472  0.45832  0.32540  1.0000 0.6406736044
C   C127      1.0  0.90068  0.57528  0.03360  1.0000 0.6406736044
C   C128      1.0  0.54168  0.86708  0.96640  1.0000 0.6406736044
C   C129      1.0  0.73230  0.72550  0.46400  1.0000 -0.1132325431
C   C130      1.0  0.27450  0.73850  0.00680  1.0000 -0.1132325431
C   C131      1.0  0.26150  0.26830  0.53600  1.0000 -0.1132325431
C   C132      1.0  0.73170  0.26770  0.99320  1.0000 -0.1132325431
C   C133      1.0  0.01770  0.98170  0.49320  1.0000 -0.1132325431
C   C134      1.0  0.48850  0.52450  0.50680  1.0000 -0.1132325431
C   C135      1.0  0.01830  0.51150  0.03600  1.0000 -0.1132325431
C   C136      1.0  0.47550  0.98230  0.96400  1.0000 -0.1132325431
C   C137      1.0  0.82400  0.71260  0.51900  1.0000 -0.0159384324
C   C138      1.0  0.28740  0.80640  0.11140  1.0000 -0.0159384324
C   C139      1.0  0.19360  0.30500  0.48100  1.0000 -0.0159384324
C   C140      1.0  0.69500  0.17600  0.88860  1.0000 -0.0159384324
C   C141      1.0  0.92600  0.94500  0.38860  1.0000 -0.0159384324
C   C142      1.0  0.55640  0.53740  0.61140  1.0000 -0.0159384324
C   C143      1.0  0.05500  0.44360  0.98100  1.0000 -0.0159384324
C   C144      1.0  0.46260  0.07400  0.01900  1.0000 -0.0159384324
C   C145      1.0  0.90151  0.74021  0.63590  1.0000 -0.0990248215
C   C146      1.0  0.25979  0.89569  0.16130  1.0000 -0.0990248215
C   C147      1.0  0.10431  0.26561  0.36410  1.0000 -0.0990248215
C   C148      1.0  0.73439  0.09849  0.83870  1.0000 -0.0990248215
C   C149      1.0  0.84849  0.98439  0.33870  1.0000 -0.0990248215
C   C150      1.0  0.64569  0.50979  0.66130  1.0000 -0.0990248215
C   C151      1.0  0.01561  0.35431  0.86410  1.0000 -0.0990248215
C   C152      1.0  0.49021  0.15151  0.13590  1.0000 -0.0990248215
C   C153      1.0  0.88900  0.79170  0.70710  1.0000 -0.1631049937
C   C154      1.0  0.20830  0.91540  0.09730  1.0000 -0.1631049937
C   C155      1.0  0.08460  0.18190  0.29290  1.0000 -0.1631049937
C   C156      1.0  0.81810  0.11100  0.90270  1.0000 -0.1631049937
C   C157      1.0  0.86100  0.06810  0.40270  1.0000 -0.1631049937
C   C158      1.0  0.66540  0.45830  0.59730  1.0000 -0.1631049937
C   C159      1.0  0.93190  0.33460  0.79290  1.0000 -0.1631049937
C   C160      1.0  0.54170  0.13900  0.20710  1.0000 -0.1631049937
C   C161      1.0  0.82540  0.65890  0.43170  1.0000 0.6406736044
C   C162      1.0  0.34110  0.77280  0.16650  1.0000 0.6406736044
C   C163      1.0  0.22720  0.39370  0.56830  1.0000 0.6406736044
C   C164      1.0  0.60630  0.17460  0.83350  1.0000 0.6406736044
C   C165      1.0  0.92460  0.85630  0.33350  1.0000 0.6406736044
C   C166      1.0  0.52280  0.59110  0.66650  1.0000 0.6406736044
C   C167      1.0  0.14370  0.47720  0.06830  1.0000 0.6406736044
C   C168      1.0  0.40890  0.07540  0.93170  1.0000 0.6406736044
C   C169      1.0  0.44170  0.44170  0.00000  1.0000 0.4909727044
C   C170      1.0  0.55830  0.55830  0.00000  1.0000 0.4909727044
C   C171      1.0  0.30830  0.80830  0.50000  1.0000 0.4909727044
C   C172      1.0  0.19170  0.69170  0.50000  1.0000 0.4819291202
N   N1        1.0  0.83660  0.98240  0.93460  1.0000 -0.2535468372
N   N2        1.0  0.01760  0.95220  0.85420  1.0000 -0.2553568564
N   N3        1.0  0.04780  0.90200  0.06540  1.0000 -0.2535468372
N   N4        1.0  0.09800  0.16340  0.14580  1.0000 -0.2553568564
N   N5        1.0  0.91340  0.34800  0.64580  1.0000 -0.2535468372
N   N6        1.0  0.70220  0.26760  0.35420  1.0000 -0.2553568564
N   N7        1.0  0.65200  0.29780  0.56540  1.0000 -0.2535468372
N   N8        1.0  0.73240  0.08660  0.43460  1.0000 -0.2535468372
O   O1        1.0  0.46728  0.79728  0.40820  1.0000 -0.7631314876
O   O2        1.0  0.20272  0.61092  0.67000  1.0000 -0.7631314876
O   O3        1.0  0.38908  0.05908  0.59180  1.0000 -0.7631314876
O   O4        1.0  0.94092  0.53272  0.33000  1.0000 -0.7631314876
O   O5        1.0  0.28272  0.19092  0.83000  1.0000 -0.7631314876
O   O6        1.0  0.36092  0.45272  0.17000  1.0000 -0.7631314876
O   O7        1.0  0.80908  0.63908  0.09180  1.0000 -0.7631314876
O   O8        1.0  0.54728  0.71728  0.90820  1.0000 -0.7631314876
O   O9        1.0  0.54292  0.93542  0.61790  1.0000 -0.5595597806
O   O10       1.0  0.06458  0.68248  0.60750  1.0000 -0.5595597806
O   O11       1.0  0.31752  0.92502  0.38210  1.0000 -0.5595597806
O   O12       1.0  0.07498  0.45708  0.39250  1.0000 -0.5595597806
O   O13       1.0  0.20708  0.32498  0.89250  1.0000 -0.5595597806
O   O14       1.0  0.43248  0.31458  0.10750  1.0000 -0.5595597806
O   O15       1.0  0.67502  0.56752  0.88210  1.0000 -0.5595597806
O   O16       1.0  0.68542  0.79292  0.11790  1.0000 -0.5595597806
O   O17       1.0  0.35499  0.67159  0.33100  1.0000 -0.6210014442
O   O18       1.0  0.32841  0.65941  0.68340  1.0000 -0.6210014442
O   O19       1.0  0.34059  0.02399  0.66900  1.0000 -0.6210014442
O   O20       1.0  0.97601  0.64501  0.31660  1.0000 -0.6210014442
O   O21       1.0  0.39501  0.22601  0.81660  1.0000 -0.6210014442
O   O22       1.0  0.40941  0.57841  0.18340  1.0000 -0.6210014442
O   O23       1.0  0.77399  0.59059  0.16900  1.0000 -0.6210014442
O   O24       1.0  0.42159  0.60499  0.83100  1.0000 -0.6210014442
O   O25       1.0  0.46533  0.64723  0.45410  1.0000 -0.6210014442
O   O26       1.0  0.35277  0.80687  0.81810  1.0000 -0.6210014442
O   O27       1.0  0.19313  0.01123  0.54590  1.0000 -0.6210014442
O   O28       1.0  0.98877  0.53467  0.18190  1.0000 -0.6210014442
O   O29       1.0  0.28467  0.23877  0.68190  1.0000 -0.6210014442
O   O30       1.0  0.55687  0.60277  0.31810  1.0000 -0.6210014442
O   O31       1.0  0.76123  0.44313  0.04590  1.0000 -0.6210014442
O   O32       1.0  0.39723  0.71533  0.95410  1.0000 -0.6210014442
O   O33       1.0  0.59833  0.87593  0.53420  1.0000 -0.6510598393
O   O34       1.0  0.12407  0.65827  0.72240  1.0000 -0.6510598393
O   O35       1.0  0.34173  0.06413  0.46580  1.0000 -0.6510598393
O   O36       1.0  0.93587  0.40167  0.27760  1.0000 -0.6510598393
O   O37       1.0  0.15167  0.18587  0.77760  1.0000 -0.6510598393
O   O38       1.0  0.40827  0.37407  0.22240  1.0000 -0.6510598393
O   O39       1.0  0.81413  0.59173  0.96580  1.0000 -0.6510598393
O   O40       1.0  0.62593  0.84833  0.03420  1.0000 -0.6510598393
O   O41       1.0  0.55770  0.71910  0.34820  1.0000 -0.6693048509
O   O42       1.0  0.28090  0.62910  0.83860  1.0000 -0.6693048509
O   O43       1.0  0.37090  0.20950  0.65180  1.0000 -0.6693048509
O   O44       1.0  0.79050  0.44230  0.16140  1.0000 -0.6693048509
O   O45       1.0  0.19230  0.04050  0.66140  1.0000 -0.6693048509
O   O46       1.0  0.37910  0.53090  0.33860  1.0000 -0.6693048509
O   O47       1.0  0.95950  0.62090  0.15180  1.0000 -0.6693048509
O   O48       1.0  0.46910  0.80770  0.84820  1.0000 -0.6693048509
O   O49       1.0  0.75100  0.64360  0.33060  1.0000 -0.6258096429
O   O50       1.0  0.35640  0.68700  0.10740  1.0000 -0.6258096429
O   O51       1.0  0.31300  0.42040  0.66940  1.0000 -0.6258096429
O   O52       1.0  0.57960  0.24900  0.89260  1.0000 -0.6258096429
O   O53       1.0  0.99900  0.82960  0.39260  1.0000 -0.6258096429
O   O54       1.0  0.43700  0.60640  0.60740  1.0000 -0.6258096429
O   O55       1.0  0.17040  0.56300  0.16940  1.0000 -0.6258096429
O   O56       1.0  0.39360  0.00100  0.83060  1.0000 -0.6258096429
O   O57       1.0  0.90631  0.62721  0.46450  1.0000 -0.7657976481
O   O58       1.0  0.37279  0.83729  0.27910  1.0000 -0.7657976481
O   O59       1.0  0.16271  0.44181  0.53550  1.0000 -0.7657976481
O   O60       1.0  0.55819  0.09369  0.72090  1.0000 -0.7657976481
O   O61       1.0  0.84369  0.80819  0.22090  1.0000 -0.7657976481
O   O62       1.0  0.58729  0.62279  0.77910  1.0000 -0.7657976481
O   O63       1.0  0.19181  0.41271  0.03550  1.0000 -0.7657976481
O   O64       1.0  0.37721  0.15631  0.96450  1.0000 -0.7657976481
O   O65       1.0  0.46015  0.52465  0.08590  1.0000 -0.5086460555
O   O66       1.0  0.47535  0.56125  0.93550  1.0000 -0.5086460555
O   O67       1.0  0.43875  0.37425  0.91410  1.0000 -0.5086460555
O   O68       1.0  0.62575  0.53985  0.06450  1.0000 -0.5086460555
O   O69       1.0  0.28985  0.87575  0.56450  1.0000 -0.5086460555
O   O70       1.0  0.31125  0.72535  0.43550  1.0000 -0.5086460555
O   O71       1.0  0.12425  0.68875  0.41410  1.0000 -0.5086460555
O   O72       1.0  0.27465  0.71015  0.58590  1.0000 -0.5086460555
