# DDEC6 charges by PACMAN v1.1 (https://github.com/mtap-research/PACMAN-charge/)
data_2016[Co][nan]3[ASR]11
_chemical_formula_sum              "Co6 H16 C28 N12 O12"
_cell_length_a       10.9843
_cell_length_b       10.9893
_cell_length_c       10.9919
_cell_angle_alpha    85.221
_cell_angle_beta     81.104
_cell_angle_gamma    83.024

_symmetry_space_group_name_H-M    "P 1"
_symmetry_Int_Tables_number       1

loop_
  _symmetry_equiv_pos_as_xyz
  'x, y, z'

loop_
  _atom_site_type_symbol
  _atom_site_label
  _atom_site_symmetry_multiplicity
  _atom_site_fract_x
  _atom_site_fract_y
  _atom_site_fract_z
  _atom_site_occupancy
  _atom_site_charge
Co  Co1       1.0  0.90702  0.25115  0.08360  1.0000 0.9024661896
Co  Co2       1.0  0.09298  0.74885  0.91640  1.0000 0.9024661896
Co  Co3       1.0  0.85751  0.00286  0.97040  1.0000 0.856805366
Co  Co4       1.0  0.14249  0.99714  0.02960  1.0000 0.856805366
Co  Co5       1.0  0.99607  0.49096  0.85480  1.0000 0.852737796
Co  Co6       1.0  0.00393  0.50904  0.14520  1.0000 0.852737796
H   H1        1.0  0.87650  0.01530  0.63730  1.0000 0.1406577525
H   H2        1.0  0.12350  0.98470  0.36270  1.0000 0.1406577525
H   H3        1.0  0.88120  0.10340  0.43910  1.0000 0.1142122886
H   H4        1.0  0.11880  0.89660  0.56090  1.0000 0.1142122886
H   H5        1.0  0.94140  0.42690  0.55510  1.0000 0.1406577525
H   H6        1.0  0.05860  0.57310  0.44490  1.0000 0.1406577525
H   H7        1.0  0.33410  0.49290  0.11670  1.0000 0.1406577525
H   H8        1.0  0.66590  0.50710  0.88330  1.0000 0.1406577525
H   H9        1.0  0.53760  0.40730  0.10750  1.0000 0.121590259
H   H10       1.0  0.46240  0.59270  0.89250  1.0000 0.121590259
H   H11       1.0  0.44490  0.07870  0.04320  1.0000 0.1406577525
H   H12       1.0  0.55510  0.92130  0.95680  1.0000 0.1406577525
H   H13       1.0  0.93900  0.04900  0.17400  1.0000 0.3890720052
H   H14       1.0  0.06100  0.95100  0.82600  1.0000 0.3890720052
H   H15       1.0  0.82600  0.46000  0.09300  1.0000 0.3890720052
H   H16       1.0  0.17400  0.54000  0.90700  1.0000 0.3890720052
C   C1        1.0  0.91700  0.29340  0.69090  1.0000 0.121590259
C   C2        1.0  0.08300  0.70660  0.30910  1.0000 0.121590259
C   C3        1.0  0.89890  0.16900  0.71460  1.0000 0.1406577525
C   C4        1.0  0.10110  0.83100  0.28540  1.0000 0.1406577525
C   C5        1.0  0.88720  0.09800  0.62090  1.0000 -0.1828535232
C   C6        1.0  0.11280  0.90200  0.37910  1.0000 -0.1828535232
C   C7        1.0  0.89130  0.15020  0.50300  1.0000 -0.0665857675
C   C8        1.0  0.10870  0.84980  0.49700  1.0000 -0.0665857675
C   C9        1.0  0.91070  0.27430  0.47800  1.0000 -0.118127327
C   C10       1.0  0.08930  0.72570  0.52200  1.0000 -0.118127327
C   C11       1.0  0.92570  0.34550  0.57210  1.0000 -0.118127327
C   C12       1.0  0.07430  0.65450  0.42790  1.0000 -0.118127327
C   C13       1.0  0.91180  0.32460  0.36000  1.0000 0.5411196169
C   C14       1.0  0.08820  0.67540  0.64000  1.0000 0.5411196169
C   C15       1.0  0.29720  0.21100  0.07900  1.0000 0.1142122886
C   C16       1.0  0.70280  0.78900  0.92100  1.0000 0.1142122886
C   C17       1.0  0.26660  0.33010  0.10900  1.0000 0.1142122886
C   C18       1.0  0.73340  0.66990  0.89100  1.0000 0.1142122886
C   C19       1.0  0.35560  0.40900  0.11000  1.0000 -0.1665942776
C   C20       1.0  0.64440  0.59100  0.89000  1.0000 -0.1665942776
C   C21       1.0  0.47620  0.35840  0.09900  1.0000 -0.1034760023
C   C22       1.0  0.52380  0.64160  0.90100  1.0000 -0.1034760023
C   C23       1.0  0.50910  0.23610  0.07600  1.0000 -0.0212176764
C   C24       1.0  0.49090  0.76390  0.92400  1.0000 -0.0212176764
C   C25       1.0  0.42220  0.16000  0.06200  1.0000 -0.1522857654
C   C26       1.0  0.57780  0.84000  0.93800  1.0000 -0.1522857654
C   C27       1.0  0.64510  0.18490  0.05900  1.0000 0.5920987544
C   C28       1.0  0.35490  0.81510  0.94100  1.0000 0.5920987544
N   N1        1.0  0.89420  0.14170  0.83750  1.0000 -0.2635790887
N   N2        1.0  0.10580  0.85830  0.16250  1.0000 -0.2635790887
N   N3        1.0  0.91290  0.24670  0.88500  1.0000 -0.0256727668
N   N4        1.0  0.08710  0.75330  0.11500  1.0000 -0.0256727668
N   N5        1.0  0.92650  0.33790  0.79950  1.0000 -0.2134985919
N   N6        1.0  0.07350  0.66210  0.20050  1.0000 -0.2134985919
N   N7        1.0  0.18960  0.16040  0.07180  1.0000 -0.2541878405
N   N8        1.0  0.81040  0.83960  0.92820  1.0000 -0.2541878405
N   N9        1.0  0.10030  0.25130  0.09380  1.0000 -0.0212176764
N   N10       1.0  0.89970  0.74870  0.90620  1.0000 -0.0212176764
N   N11       1.0  0.14070  0.35590  0.11340  1.0000 -0.2134985919
N   N12       1.0  0.85930  0.64410  0.88660  1.0000 -0.2134985919
O   O1        1.0  0.94680  0.06570  0.08580  1.0000 -0.8291974249
O   O2        1.0  0.05320  0.93430  0.91420  1.0000 -0.8291974249
O   O3        1.0  0.90440  0.43210  0.04390  1.0000 -0.8358252826
O   O4        1.0  0.09560  0.56790  0.95610  1.0000 -0.8358252826
O   O5        1.0  0.95000  0.43430  0.32470  1.0000 -0.582702029
O   O6        1.0  0.05000  0.56570  0.67530  1.0000 -0.582702029
O   O7        1.0  0.87340  0.26550  0.28200  1.0000 -0.5422692331
O   O8        1.0  0.12660  0.73450  0.71800  1.0000 -0.5422692331
O   O9        1.0  0.67610  0.08060  0.02490  1.0000 -0.5422692331
O   O10       1.0  0.32390  0.91940  0.97510  1.0000 -0.5422692331
O   O11       1.0  0.71530  0.25600  0.09370  1.0000 -0.5592924538
O   O12       1.0  0.28470  0.74400  0.90630  1.0000 -0.5592924538
