# DDEC6 charges by PACMAN v1.1 (https://github.com/mtap-research/PACMAN-charge/)
data_2016[Cu][nan]3[ASR]10
_chemical_formula_sum              "Cu4 H92 C96 N12 O20"
_cell_length_a       13.193
_cell_length_b       16.49
_cell_length_c       13.241
_cell_angle_alpha    90
_cell_angle_beta     118.137
_cell_angle_gamma    90

_symmetry_space_group_name_H-M    "P 1"
_symmetry_Int_Tables_number       1

loop_
  _symmetry_equiv_pos_as_xyz
  'x, y, z'

loop_
  _atom_site_type_symbol
  _atom_site_label
  _atom_site_symmetry_multiplicity
  _atom_site_fract_x
  _atom_site_fract_y
  _atom_site_fract_z
  _atom_site_occupancy
  _atom_site_charge
Cu  Cu1       1.0  0.08585  0.12033  0.66131  1.0000 0.7173891587
Cu  Cu2       1.0  0.91415  0.62033  0.33869  1.0000 0.7173891587
Cu  Cu3       1.0  0.36283  0.99200  0.83639  1.0000 0.7649375719
Cu  Cu4       1.0  0.63717  0.49200  0.16361  1.0000 0.7649375719
H   H1        1.0  0.32220  0.25500  0.74590  1.0000 0.1111195644
H   H2        1.0  0.67780  0.75500  0.25410  1.0000 0.1111195644
H   H3        1.0  0.55530  0.28740  0.90430  1.0000 0.1111195644
H   H4        1.0  0.44470  0.78740  0.09570  1.0000 0.1111195644
H   H5        1.0  0.46240  0.35450  0.84070  1.0000 0.1111195644
H   H6        1.0  0.53760  0.85450  0.15930  1.0000 0.1111195644
H   H7        1.0  0.47300  0.25130  0.01750  1.0000 0.1316214369
H   H8        1.0  0.52700  0.75130  0.98250  1.0000 0.1316214369
H   H9        1.0  0.35810  0.29690  0.93810  1.0000 0.1197909101
H   H10       1.0  0.64190  0.79690  0.06190  1.0000 0.1197909101
H   H11       1.0  0.30150  0.35420  0.39440  1.0000 0.1316214369
H   H12       1.0  0.69850  0.85420  0.60560  1.0000 0.1316214369
H   H13       1.0  0.33530  0.34060  0.24200  1.0000 0.1197909101
H   H14       1.0  0.66470  0.84060  0.75800  1.0000 0.1197909101
H   H15       1.0  0.48650  0.26540  0.26160  1.0000 0.1197909101
H   H16       1.0  0.51350  0.76540  0.73840  1.0000 0.1197909101
H   H17       1.0  0.59350  0.19370  0.42790  1.0000 0.1197909101
H   H18       1.0  0.40650  0.69370  0.57210  1.0000 0.1197909101
H   H19       1.0  0.55690  0.20930  0.58110  1.0000 0.1111195644
H   H20       1.0  0.44310  0.70930  0.41890  1.0000 0.1111195644
H   H21       1.0  0.02920  0.87760  0.49230  1.0000 0.1197909101
H   H22       1.0  0.97080  0.37760  0.50770  1.0000 0.1197909101
H   H23       1.0  0.89840  0.86060  0.45170  1.0000 0.1396119667
H   H24       1.0  0.10160  0.36060  0.54830  1.0000 0.1396119667
H   H25       1.0  0.08290  0.79760  0.65420  1.0000 0.1111195644
H   H26       1.0  0.91710  0.29760  0.34580  1.0000 0.1111195644
H   H27       1.0  0.95570  0.76960  0.61120  1.0000 0.1018959468
H   H28       1.0  0.04430  0.26960  0.38880  1.0000 0.1018959468
H   H29       1.0  0.90540  0.89960  0.64080  1.0000 0.1111195644
H   H30       1.0  0.09460  0.39960  0.35920  1.0000 0.1111195644
H   H31       1.0  0.13870  0.79680  0.99620  1.0000 0.1111195644
H   H32       1.0  0.86130  0.29680  0.00380  1.0000 0.1111195644
H   H33       1.0  0.19480  0.76210  0.18500  1.0000 0.1111195644
H   H34       1.0  0.80520  0.26210  0.81500  1.0000 0.1111195644
H   H35       1.0  0.08800  0.80590  0.27230  1.0000 0.1197909101
H   H36       1.0  0.91200  0.30590  0.72770  1.0000 0.1197909101
H   H37       1.0  0.92500  0.88450  0.17080  1.0000 0.1197909101
H   H38       1.0  0.07500  0.38450  0.82920  1.0000 0.1197909101
H   H39       1.0  0.86890  0.91930  0.98200  1.0000 0.1197909101
H   H40       1.0  0.13110  0.41930  0.01800  1.0000 0.1197909101
H   H41       1.0  0.23720  0.94140  0.95680  1.0000 0.1111195644
H   H42       1.0  0.76280  0.44140  0.04320  1.0000 0.1111195644
H   H43       1.0  0.25670  0.93960  0.13920  1.0000 0.1197909101
H   H44       1.0  0.74330  0.43960  0.86080  1.0000 0.1197909101
H   H45       1.0  0.53180  0.08220  0.23910  1.0000 0.1396119667
H   H46       1.0  0.46820  0.58220  0.76090  1.0000 0.1396119667
H   H47       1.0  0.50180  0.08310  0.05380  1.0000 0.1197909101
H   H48       1.0  0.49820  0.58310  0.94620  1.0000 0.1197909101
H   H49       1.0  0.39850  0.05840  0.35370  1.0000 0.1111195644
H   H50       1.0  0.60150  0.55840  0.64630  1.0000 0.1111195644
H   H51       1.0  0.50220  0.99960  0.38500  1.0000 0.1197909101
H   H52       1.0  0.49780  0.49960  0.61500  1.0000 0.1197909101
H   H53       1.0  0.27720  0.94320  0.30620  1.0000 0.1111195644
H   H54       1.0  0.72280  0.44320  0.69380  1.0000 0.1111195644
H   H55       1.0  0.38780  0.88890  0.35490  1.0000 0.1197909101
H   H56       1.0  0.61220  0.38890  0.64510  1.0000 0.1197909101
H   H57       1.0  0.23620  0.87790  0.44950  1.0000 0.1396119667
H   H58       1.0  0.76380  0.37790  0.55050  1.0000 0.1396119667
H   H59       1.0  0.23970  0.89410  0.62190  1.0000 0.1197909101
H   H60       1.0  0.76030  0.39410  0.37810  1.0000 0.1197909101
H   H61       1.0  0.51680  0.02760  0.73630  1.0000 0.1111195644
H   H62       1.0  0.48320  0.52760  0.26370  1.0000 0.1111195644
H   H63       1.0  0.51230  0.02020  0.56190  1.0000 0.1316214369
H   H64       1.0  0.48770  0.52020  0.43810  1.0000 0.1316214369
H   H65       1.0  0.95000  0.07620  0.77380  1.0000 0.1197909101
H   H66       1.0  0.05000  0.57620  0.22620  1.0000 0.1197909101
H   H67       1.0  0.95210  0.08530  0.94940  1.0000 0.1396119667
H   H68       1.0  0.04790  0.58530  0.05060  1.0000 0.1396119667
H   H69       1.0  0.24370  0.20890  0.06250  1.0000 0.1396119667
H   H70       1.0  0.75630  0.70890  0.93750  1.0000 0.1396119667
H   H71       1.0  0.22900  0.19920  0.88370  1.0000 0.1111195644
H   H72       1.0  0.77100  0.69920  0.11630  1.0000 0.1111195644
H   H73       1.0  0.04120  0.19150  0.13480  1.0000 0.1197909101
H   H74       1.0  0.95880  0.69150  0.86520  1.0000 0.1197909101
H   H75       1.0  0.17480  0.18270  0.19430  1.0000 0.1197909101
H   H76       1.0  0.82520  0.68270  0.80570  1.0000 0.1197909101
H   H77       1.0  0.02430  0.05880  0.13930  1.0000 0.1197909101
H   H78       1.0  0.97570  0.55880  0.86070  1.0000 0.1197909101
H   H79       1.0  0.15790  0.05020  0.19930  1.0000 0.1197909101
H   H80       1.0  0.84210  0.55020  0.80070  1.0000 0.1197909101
H   H81       1.0  0.94820  0.03500  0.25940  1.0000 0.1396119667
H   H82       1.0  0.05180  0.53500  0.74060  1.0000 0.1396119667
H   H83       1.0  0.94890  0.04550  0.43480  1.0000 0.1197909101
H   H84       1.0  0.05110  0.54550  0.56520  1.0000 0.1197909101
H   H85       1.0  0.24980  0.14790  0.56780  1.0000 0.1018959468
H   H86       1.0  0.75020  0.64790  0.43220  1.0000 0.1018959468
H   H87       1.0  0.25240  0.14780  0.39750  1.0000 0.1316214369
H   H88       1.0  0.74760  0.64780  0.60250  1.0000 0.1316214369
H   H89       1.0  0.49020  0.20770  0.69280  1.0000 0.262330286
H   H90       1.0  0.50980  0.70770  0.30720  1.0000 0.262330286
H   H91       1.0  0.06240  0.81720  0.82700  1.0000 0.2706235868
H   H92       1.0  0.93760  0.31720  0.17300  1.0000 0.2706235868
C   C1        1.0  0.41780  0.15130  0.82170  1.0000 0.5389714462
C   C2        1.0  0.58220  0.65130  0.17830  1.0000 0.5389714462
C   C3        1.0  0.40350  0.24000  0.77910  1.0000 -0.0088741705
C   C4        1.0  0.59650  0.74000  0.22090  1.0000 -0.0088741705
C   C5        1.0  0.47430  0.30040  0.87310  1.0000 -0.1895949705
C   C6        1.0  0.52570  0.80040  0.12690  1.0000 -0.1895949705
C   C7        1.0  0.44100  0.29930  0.97070  1.0000 -0.3038993256
C   C8        1.0  0.55900  0.79930  0.02930  1.0000 -0.3038993256
C   C9        1.0  0.48640  0.37550  0.04610  1.0000 0.5619902534
C   C10       1.0  0.51360  0.87550  0.95390  1.0000 0.5619902534
C   C11       1.0  0.39110  0.28980  0.59790  1.0000 0.4454360825
C   C12       1.0  0.60890  0.78980  0.40210  1.0000 0.4407607538
C   C13       1.0  0.42150  0.28100  0.50100  1.0000 -0.0199408533
C   C14       1.0  0.57850  0.78100  0.49900  1.0000 -0.0199408533
C   C15       1.0  0.36100  0.32040  0.40140  1.0000 -0.1187401416
C   C16       1.0  0.63900  0.82040  0.59860  1.0000 -0.1187401416
C   C17       1.0  0.38150  0.31400  0.31040  1.0000 -0.0917188677
C   C18       1.0  0.61850  0.81400  0.68960  1.0000 -0.0917188677
C   C19       1.0  0.46890  0.26890  0.32170  1.0000 -0.0986666223
C   C20       1.0  0.53110  0.76890  0.67830  1.0000 -0.0986666223
C   C21       1.0  0.53410  0.22720  0.42150  1.0000 -0.1084701645
C   C22       1.0  0.46590  0.72720  0.57850  1.0000 -0.1084701645
C   C23       1.0  0.51080  0.23540  0.51220  1.0000 -0.1545704382
C   C24       1.0  0.48920  0.73540  0.48780  1.0000 -0.1545704382
C   C25       1.0  0.98100  0.76350  0.42940  1.0000 0.6036240978
C   C26       1.0  0.01900  0.26350  0.57060  1.0000 0.6036240978
C   C27       1.0  0.97500  0.83740  0.49110  1.0000 -0.326927312
C   C28       1.0  0.02500  0.33740  0.50890  1.0000 -0.326927312
C   C29       1.0  0.00340  0.81520  0.61370  1.0000 -0.184890874
C   C30       1.0  0.99660  0.31520  0.38630  1.0000 -0.1895949705
C   C31       1.0  0.98630  0.88300  0.68100  1.0000 -0.0199408533
C   C32       1.0  0.01370  0.38300  0.31900  1.0000 -0.0199408533
C   C33       1.0  0.05920  0.95560  0.69220  1.0000 0.5709296388
C   C34       1.0  0.94080  0.45560  0.30780  1.0000 0.5709296388
C   C35       1.0  0.95710  0.88640  0.84870  1.0000 0.4407607538
C   C36       1.0  0.04290  0.38640  0.15130  1.0000 0.4407607538
C   C37       1.0  0.99820  0.86150  0.97040  1.0000 -0.0323806501
C   C38       1.0  0.00180  0.36150  0.02960  1.0000 -0.0323806501
C   C39       1.0  0.09590  0.81440  0.03120  1.0000 -0.1585040766
C   C40       1.0  0.90410  0.31440  0.96880  1.0000 -0.1585040766
C   C41       1.0  0.12950  0.79360  0.14430  1.0000 -0.0917188677
C   C42       1.0  0.87050  0.29360  0.85570  1.0000 -0.0917188677
C   C43       1.0  0.06550  0.81990  0.19660  1.0000 -0.0986666223
C   C44       1.0  0.93450  0.31990  0.80340  1.0000 -0.0986666223
C   C45       1.0  0.96790  0.86700  0.13580  1.0000 -0.0986666223
C   C46       1.0  0.03210  0.36700  0.86420  1.0000 -0.0986666223
C   C47       1.0  0.93420  0.88780  0.02270  1.0000 -0.1187401416
C   C48       1.0  0.06580  0.38780  0.97730  1.0000 -0.1187401416
C   C49       1.0  0.29700  0.97040  0.01430  1.0000 0.0805823502
C   C50       1.0  0.70300  0.47040  0.98570  1.0000 0.0805823502
C   C51       1.0  0.30890  0.96830  0.12430  1.0000 -0.2107667423
C   C52       1.0  0.69110  0.46830  0.87570  1.0000 -0.2107667423
C   C53       1.0  0.39850  0.00920  0.21080  1.0000 0.165810786
C   C54       1.0  0.60150  0.50920  0.78920  1.0000 0.165810786
C   C55       1.0  0.47100  0.05300  0.18300  1.0000 -0.2107667423
C   C56       1.0  0.52900  0.55300  0.81700  1.0000 -0.2107667423
C   C57       1.0  0.45240  0.05310  0.07120  1.0000 0.0901398122
C   C58       1.0  0.54760  0.55310  0.92880  1.0000 0.0901398122
C   C59       1.0  0.42040  0.00650  0.33540  1.0000 -0.2431876558
C   C60       1.0  0.57960  0.50650  0.66460  1.0000 -0.2431876558
C   C61       1.0  0.35810  0.94130  0.36180  1.0000 -0.2450148987
C   C62       1.0  0.64190  0.44130  0.63820  1.0000 -0.2431876558
C   C63       1.0  0.37070  0.94970  0.48350  1.0000 0.165810786
C   C64       1.0  0.62930  0.44970  0.51650  1.0000 0.165810786
C   C65       1.0  0.29160  0.91090  0.50500  1.0000 -0.1996635424
C   C66       1.0  0.70840  0.41090  0.49500  1.0000 -0.1996635424
C   C67       1.0  0.29420  0.92080  0.60850  1.0000 0.0642857028
C   C68       1.0  0.70580  0.42080  0.39150  1.0000 0.0642857028
C   C69       1.0  0.45650  0.00050  0.67660  1.0000 0.1018959468
C   C70       1.0  0.54350  0.50050  0.32340  1.0000 0.1018959468
C   C71       1.0  0.45560  0.99430  0.57280  1.0000 -0.2107667423
C   C72       1.0  0.54440  0.49430  0.42720  1.0000 -0.2107667423
C   C73       1.0  0.00950  0.10400  0.83340  1.0000 0.0675476712
C   C74       1.0  0.99050  0.60400  0.16660  1.0000 0.0675476712
C   C75       1.0  0.00990  0.10900  0.93810  1.0000 -0.1895949705
C   C76       1.0  0.99010  0.60900  0.06190  1.0000 -0.1895949705
C   C77       1.0  0.09890  0.15040  0.02450  1.0000 0.1593505775
C   C78       1.0  0.90110  0.65040  0.97550  1.0000 0.1593505775
C   C79       1.0  0.18130  0.18230  0.00440  1.0000 -0.2197239203
C   C80       1.0  0.81870  0.68230  0.99560  1.0000 -0.2197239203
C   C81       1.0  0.17250  0.17520  0.89700  1.0000 0.1018959468
C   C82       1.0  0.82750  0.67520  0.10300  1.0000 0.1018959468
C   C83       1.0  0.10330  0.15630  0.14220  1.0000 -0.2325214783
C   C84       1.0  0.89670  0.65630  0.85780  1.0000 -0.2325214783
C   C85       1.0  0.09560  0.08520  0.19190  1.0000 -0.2431876558
C   C86       1.0  0.90440  0.58520  0.80810  1.0000 -0.2431876558
C   C87       1.0  0.09930  0.08970  0.30840  1.0000 0.1593505775
C   C88       1.0  0.90070  0.58970  0.69160  1.0000 0.1593505775
C   C89       1.0  0.00980  0.05960  0.32100  1.0000 -0.1996635424
C   C90       1.0  0.99020  0.55960  0.67900  1.0000 -0.1996635424
C   C91       1.0  0.01050  0.06580  0.42700  1.0000 0.0901398122
C   C92       1.0  0.98950  0.56580  0.57300  1.0000 0.0901398122
C   C93       1.0  0.18670  0.12690  0.50390  1.0000 0.0901398122
C   C94       1.0  0.81330  0.62690  0.49610  1.0000 0.0901398122
C   C95       1.0  0.19050  0.12550  0.40320  1.0000 -0.2107667423
C   C96       1.0  0.80950  0.62550  0.59680  1.0000 -0.2107667423
N   N1        1.0  0.43760  0.24080  0.68760  1.0000 -0.3826425153
N   N2        1.0  0.56240  0.74080  0.31240  1.0000 -0.3826425153
N   N3        1.0  0.01190  0.85460  0.79440  1.0000 -0.3867797035
N   N4        1.0  0.98810  0.35460  0.20560  1.0000 -0.3867797035
N   N5        1.0  0.09100  0.13750  0.81500  1.0000 -0.1895949705
N   N6        1.0  0.90900  0.63750  0.18500  1.0000 -0.1895949705
N   N7        1.0  0.09870  0.10040  0.51700  1.0000 -0.2197239203
N   N8        1.0  0.90130  0.60040  0.48300  1.0000 -0.2197239203
N   N9        1.0  0.36780  0.01250  0.98750  1.0000 -0.2197239203
N   N10       1.0  0.63220  0.51250  0.01250  1.0000 -0.2197239203
N   N11       1.0  0.37430  0.96880  0.69390  1.0000 -0.2325214783
N   N12       1.0  0.62570  0.46880  0.30610  1.0000 -0.2325214783
O   O1        1.0  0.07520  0.72960  0.45920  1.0000 -0.6010837036
O   O2        1.0  0.92480  0.22960  0.54080  1.0000 -0.6010837036
O   O3        1.0  0.88760  0.73530  0.35260  1.0000 -0.5362485128
O   O4        1.0  0.11240  0.23530  0.64740  1.0000 -0.5362485128
O   O5        1.0  0.00420  0.01710  0.63770  1.0000 -0.5283985215
O   O6        1.0  0.99580  0.51710  0.36230  1.0000 -0.5283985215
O   O7        1.0  0.16710  0.95300  0.75200  1.0000 -0.6010837036
O   O8        1.0  0.83290  0.45300  0.24800  1.0000 -0.6010837036
O   O9        1.0  0.87740  0.93270  0.80200  1.0000 -0.4709359335
O   O10       1.0  0.12260  0.43270  0.19800  1.0000 -0.4709359335
O   O11       1.0  0.59240  0.37800  0.10770  1.0000 -0.5029881674
O   O12       1.0  0.40760  0.87800  0.89230  1.0000 -0.5029881674
O   O13       1.0  0.42670  0.42890  0.04140  1.0000 -0.4940202015
O   O14       1.0  0.57330  0.92890  0.95860  1.0000 -0.4940202015
O   O15       1.0  0.32730  0.11000  0.78820  1.0000 -0.5745828825
O   O16       1.0  0.67270  0.61000  0.21180  1.0000 -0.5745828825
O   O17       1.0  0.51680  0.12570  0.88160  1.0000 -0.5546166378
O   O18       1.0  0.48320  0.62570  0.11840  1.0000 -0.5546166378
O   O19       1.0  0.31730  0.33970  0.58880  1.0000 -0.4632166552
O   O20       1.0  0.68270  0.83970  0.41120  1.0000 -0.4632166552
