# DDEC6 charges by PACMAN v1.1 (https://github.com/mtap-research/PACMAN-charge/)
data_2016[Cu][nbo]3[ASR]17
_chemical_formula_sum              "Cu6 H78 C126 O30"
_cell_length_a       21.267
_cell_length_b       21.267
_cell_length_c       21.267
_cell_angle_alpha    114.619
_cell_angle_beta     114.619
_cell_angle_gamma    114.619

_symmetry_space_group_name_H-M    "P 1"
_symmetry_Int_Tables_number       1

loop_
  _symmetry_equiv_pos_as_xyz
  'x, y, z'

loop_
  _atom_site_type_symbol
  _atom_site_label
  _atom_site_symmetry_multiplicity
  _atom_site_fract_x
  _atom_site_fract_y
  _atom_site_fract_z
  _atom_site_occupancy
  _atom_site_charge
Cu  Cu1       1.0  0.40700  0.91684  0.91684  1.0000 0.8329902585
Cu  Cu2       1.0  0.91684  0.91684  0.40700  1.0000 0.8329902585
Cu  Cu3       1.0  0.91684  0.40700  0.91684  1.0000 0.8329902585
Cu  Cu4       1.0  0.08316  0.59300  0.08316  1.0000 0.8329902585
Cu  Cu5       1.0  0.08316  0.08316  0.59300  1.0000 0.8329902585
Cu  Cu6       1.0  0.59300  0.08316  0.08316  1.0000 0.8329902585
H   H1        1.0  0.29400  0.03920  0.85900  1.0000 0.1178817422
H   H2        1.0  0.03920  0.85900  0.29400  1.0000 0.1178817422
H   H3        1.0  0.85900  0.29400  0.03920  1.0000 0.1178817422
H   H4        1.0  0.96080  0.70600  0.14100  1.0000 0.1178817422
H   H5        1.0  0.14100  0.96080  0.70600  1.0000 0.1178817422
H   H6        1.0  0.70600  0.14100  0.96080  1.0000 0.1178817422
H   H7        1.0  0.70600  0.96080  0.14100  1.0000 0.1178817422
H   H8        1.0  0.96080  0.14100  0.70600  1.0000 0.1178817422
H   H9        1.0  0.14100  0.70600  0.96080  1.0000 0.1178817422
H   H10       1.0  0.03920  0.29400  0.85900  1.0000 0.1178817422
H   H11       1.0  0.85900  0.03920  0.29400  1.0000 0.1178817422
H   H12       1.0  0.29400  0.85900  0.03920  1.0000 0.1178817422
H   H13       1.0  0.26850  0.13270  0.85760  1.0000 0.128737371
H   H14       1.0  0.13270  0.85760  0.26850  1.0000 0.128737371
H   H15       1.0  0.85760  0.26850  0.13270  1.0000 0.128737371
H   H16       1.0  0.86730  0.73150  0.14240  1.0000 0.128737371
H   H17       1.0  0.14240  0.86730  0.73150  1.0000 0.128737371
H   H18       1.0  0.73150  0.14240  0.86730  1.0000 0.128737371
H   H19       1.0  0.73150  0.86730  0.14240  1.0000 0.128737371
H   H20       1.0  0.86730  0.14240  0.73150  1.0000 0.128737371
H   H21       1.0  0.14240  0.73150  0.86730  1.0000 0.128737371
H   H22       1.0  0.13270  0.26850  0.85760  1.0000 0.128737371
H   H23       1.0  0.85760  0.13270  0.26850  1.0000 0.128737371
H   H24       1.0  0.26850  0.85760  0.13270  1.0000 0.128737371
H   H25       1.0  0.54640  0.37690  0.11730  1.0000 0.1178817422
H   H26       1.0  0.37690  0.11730  0.54640  1.0000 0.1178817422
H   H27       1.0  0.11730  0.54640  0.37690  1.0000 0.1178817422
H   H28       1.0  0.62310  0.45360  0.88270  1.0000 0.1178817422
H   H29       1.0  0.88270  0.62310  0.45360  1.0000 0.1178817422
H   H30       1.0  0.45360  0.88270  0.62310  1.0000 0.1178817422
H   H31       1.0  0.45360  0.62310  0.88270  1.0000 0.1178817422
H   H32       1.0  0.62310  0.88270  0.45360  1.0000 0.1178817422
H   H33       1.0  0.88270  0.45360  0.62310  1.0000 0.1178817422
H   H34       1.0  0.37690  0.54640  0.11730  1.0000 0.1178817422
H   H35       1.0  0.11730  0.37690  0.54640  1.0000 0.1178817422
H   H36       1.0  0.54640  0.11730  0.37690  1.0000 0.1178817422
H   H37       1.0  0.57020  0.27930  0.12030  1.0000 0.128737371
H   H38       1.0  0.27930  0.12030  0.57020  1.0000 0.128737371
H   H39       1.0  0.12030  0.57020  0.27930  1.0000 0.128737371
H   H40       1.0  0.72070  0.42980  0.87970  1.0000 0.128737371
H   H41       1.0  0.87970  0.72070  0.42980  1.0000 0.128737371
H   H42       1.0  0.42980  0.87970  0.72070  1.0000 0.128737371
H   H43       1.0  0.42980  0.72070  0.87970  1.0000 0.128737371
H   H44       1.0  0.72070  0.87970  0.42980  1.0000 0.128737371
H   H45       1.0  0.87970  0.42980  0.72070  1.0000 0.128737371
H   H46       1.0  0.27930  0.57020  0.12030  1.0000 0.128737371
H   H47       1.0  0.12030  0.27930  0.57020  1.0000 0.128737371
H   H48       1.0  0.57020  0.12030  0.27930  1.0000 0.128737371
H   H49       1.0  0.50690  0.39570  0.99280  1.0000 0.1129526893
H   H50       1.0  0.39570  0.99280  0.50690  1.0000 0.1129526893
H   H51       1.0  0.99280  0.50690  0.39570  1.0000 0.1129526893
H   H52       1.0  0.60430  0.49310  0.00720  1.0000 0.1129526893
H   H53       1.0  0.00720  0.60430  0.49310  1.0000 0.1129526893
H   H54       1.0  0.49310  0.00720  0.60430  1.0000 0.1129526893
H   H55       1.0  0.49310  0.60430  0.00720  1.0000 0.1129526893
H   H56       1.0  0.60430  0.00720  0.49310  1.0000 0.1129526893
H   H57       1.0  0.00720  0.49310  0.60430  1.0000 0.1129526893
H   H58       1.0  0.39570  0.50690  0.99280  1.0000 0.1129526893
H   H59       1.0  0.99280  0.39570  0.50690  1.0000 0.1129526893
H   H60       1.0  0.50690  0.99280  0.39570  1.0000 0.1129526893
H   H61       1.0  0.27295  0.27295  0.07410  1.0000 0.1129526893
H   H62       1.0  0.27295  0.07410  0.27295  1.0000 0.1129526893
H   H63       1.0  0.07410  0.27295  0.27295  1.0000 0.1129526893
H   H64       1.0  0.72705  0.72705  0.92590  1.0000 0.1129526893
H   H65       1.0  0.92590  0.72705  0.72705  1.0000 0.1129526893
H   H66       1.0  0.72705  0.92590  0.72705  1.0000 0.1129526893
H   H67       1.0  0.37600  0.33220  0.11070  1.0000 0.0902701874
H   H68       1.0  0.33220  0.11070  0.37600  1.0000 0.0902701874
H   H69       1.0  0.11070  0.37600  0.33220  1.0000 0.0953654469
H   H70       1.0  0.66780  0.62400  0.88930  1.0000 0.0902701874
H   H71       1.0  0.88930  0.66780  0.62400  1.0000 0.0902701874
H   H72       1.0  0.62400  0.88930  0.66780  1.0000 0.0953654469
H   H73       1.0  0.62400  0.66780  0.88930  1.0000 0.0902701874
H   H74       1.0  0.66780  0.88930  0.62400  1.0000 0.0953654469
H   H75       1.0  0.88930  0.62400  0.66780  1.0000 0.0902701874
H   H76       1.0  0.33220  0.37600  0.11070  1.0000 0.0902701874
H   H77       1.0  0.11070  0.33220  0.37600  1.0000 0.0953654469
H   H78       1.0  0.37600  0.11070  0.33220  1.0000 0.0902701874
C   C1        1.0  0.45165  0.08690  0.98695  1.0000 0.5760641789
C   C2        1.0  0.08690  0.98695  0.45165  1.0000 0.5760641789
C   C3        1.0  0.98695  0.45165  0.08690  1.0000 0.5760641789
C   C4        1.0  0.91310  0.54835  0.01305  1.0000 0.5760641789
C   C5        1.0  0.01305  0.91310  0.54835  1.0000 0.5760641789
C   C6        1.0  0.54835  0.01305  0.91310  1.0000 0.5760641789
C   C7        1.0  0.54835  0.91310  0.01305  1.0000 0.5760641789
C   C8        1.0  0.91310  0.01305  0.54835  1.0000 0.5760641789
C   C9        1.0  0.01305  0.54835  0.91310  1.0000 0.5760641789
C   C10       1.0  0.08690  0.45165  0.98695  1.0000 0.5760641789
C   C11       1.0  0.98695  0.08690  0.45165  1.0000 0.5760641789
C   C12       1.0  0.45165  0.98695  0.08690  1.0000 0.5760641789
C   C13       1.0  0.43210  0.14677  0.98563  1.0000 -0.0203801137
C   C14       1.0  0.14677  0.98563  0.43210  1.0000 -0.0203801137
C   C15       1.0  0.98563  0.43210  0.14677  1.0000 -0.0203801137
C   C16       1.0  0.85323  0.56790  0.01437  1.0000 -0.0203801137
C   C17       1.0  0.01437  0.85323  0.56790  1.0000 -0.0203801137
C   C18       1.0  0.56790  0.01437  0.85323  1.0000 -0.0203801137
C   C19       1.0  0.56790  0.85323  0.01437  1.0000 -0.0203801137
C   C20       1.0  0.85323  0.01437  0.56790  1.0000 -0.0203801137
C   C21       1.0  0.01437  0.56790  0.85323  1.0000 -0.0203801137
C   C22       1.0  0.14677  0.43210  0.98563  1.0000 -0.0203801137
C   C23       1.0  0.98563  0.14677  0.43210  1.0000 -0.0203801137
C   C24       1.0  0.43210  0.98563  0.14677  1.0000 -0.0203801137
C   C25       1.0  0.34633  0.10767  0.91190  1.0000 -0.0846547948
C   C26       1.0  0.10767  0.91190  0.34633  1.0000 -0.0846547948
C   C27       1.0  0.91190  0.34633  0.10767  1.0000 -0.0846547948
C   C28       1.0  0.89233  0.65367  0.08810  1.0000 -0.0846547948
C   C29       1.0  0.08810  0.89233  0.65367  1.0000 -0.0846547948
C   C30       1.0  0.65367  0.08810  0.89233  1.0000 -0.0846547948
C   C31       1.0  0.65367  0.89233  0.08810  1.0000 -0.0846547948
C   C32       1.0  0.89233  0.08810  0.65367  1.0000 -0.0846547948
C   C33       1.0  0.08810  0.65367  0.89233  1.0000 -0.0846547948
C   C34       1.0  0.10767  0.34633  0.91190  1.0000 -0.0846547948
C   C35       1.0  0.91190  0.10767  0.34633  1.0000 -0.0846547948
C   C36       1.0  0.34633  0.91190  0.10767  1.0000 -0.0846547948
C   C37       1.0  0.33090  0.16390  0.91010  1.0000 -0.1378727523
C   C38       1.0  0.16390  0.91010  0.33090  1.0000 -0.1378727523
C   C39       1.0  0.91010  0.33090  0.16390  1.0000 -0.1378727523
C   C40       1.0  0.83610  0.66910  0.08990  1.0000 -0.1378727523
C   C41       1.0  0.08990  0.83610  0.66910  1.0000 -0.1378727523
C   C42       1.0  0.66910  0.08990  0.83610  1.0000 -0.1378727523
C   C43       1.0  0.66910  0.83610  0.08990  1.0000 -0.1378727523
C   C44       1.0  0.83610  0.08990  0.66910  1.0000 -0.1378727523
C   C45       1.0  0.08990  0.66910  0.83610  1.0000 -0.1378727523
C   C46       1.0  0.16390  0.33090  0.91010  1.0000 -0.1378727523
C   C47       1.0  0.91010  0.16390  0.33090  1.0000 -0.1378727523
C   C48       1.0  0.33090  0.91010  0.16390  1.0000 -0.1378727523
C   C49       1.0  0.40447  0.26317  0.98266  1.0000 0.0902701874
C   C50       1.0  0.26317  0.98266  0.40447  1.0000 0.0902701874
C   C51       1.0  0.98266  0.40447  0.26317  1.0000 0.0902701874
C   C52       1.0  0.73683  0.59553  0.01734  1.0000 0.0902701874
C   C53       1.0  0.01734  0.73683  0.59553  1.0000 0.0902701874
C   C54       1.0  0.59553  0.01734  0.73683  1.0000 0.0902701874
C   C55       1.0  0.59553  0.73683  0.01734  1.0000 0.0902701874
C   C56       1.0  0.73683  0.01734  0.59553  1.0000 0.0902701874
C   C57       1.0  0.01734  0.59553  0.73683  1.0000 0.0902701874
C   C58       1.0  0.26317  0.40447  0.98266  1.0000 0.0902701874
C   C59       1.0  0.98266  0.26317  0.40447  1.0000 0.0902701874
C   C60       1.0  0.40447  0.98266  0.26317  1.0000 0.0902701874
C   C61       1.0  0.49538  0.30842  0.06430  1.0000 -0.1579744721
C   C62       1.0  0.30842  0.06430  0.49538  1.0000 -0.1579744721
C   C63       1.0  0.06430  0.49538  0.30842  1.0000 -0.1579744721
C   C64       1.0  0.69158  0.50462  0.93570  1.0000 -0.1579744721
C   C65       1.0  0.93570  0.69158  0.50462  1.0000 -0.1579744721
C   C66       1.0  0.50462  0.93570  0.69158  1.0000 -0.1579744721
C   C67       1.0  0.50462  0.69158  0.93570  1.0000 -0.1579744721
C   C68       1.0  0.69158  0.93570  0.50462  1.0000 -0.1579744721
C   C69       1.0  0.93570  0.50462  0.69158  1.0000 -0.1579744721
C   C70       1.0  0.30842  0.49538  0.06430  1.0000 -0.1579744721
C   C71       1.0  0.06430  0.30842  0.49538  1.0000 -0.1579744721
C   C72       1.0  0.49538  0.06430  0.30842  1.0000 -0.1579744721
C   C73       1.0  0.50980  0.24982  0.06618  1.0000 -0.0915747693
C   C74       1.0  0.24982  0.06618  0.50980  1.0000 -0.0915747693
C   C75       1.0  0.06618  0.50980  0.24982  1.0000 -0.0915747693
C   C76       1.0  0.75018  0.49020  0.93382  1.0000 -0.0915747693
C   C77       1.0  0.93382  0.75018  0.49020  1.0000 -0.0915747693
C   C78       1.0  0.49020  0.93382  0.75018  1.0000 -0.0915747693
C   C79       1.0  0.49020  0.75018  0.93382  1.0000 -0.0915747693
C   C80       1.0  0.75018  0.93382  0.49020  1.0000 -0.0915747693
C   C81       1.0  0.93382  0.49020  0.75018  1.0000 -0.0915747693
C   C82       1.0  0.24982  0.50980  0.06618  1.0000 -0.0915747693
C   C83       1.0  0.06618  0.24982  0.50980  1.0000 -0.0915747693
C   C84       1.0  0.50980  0.06618  0.24982  1.0000 -0.0915747693
C   C85       1.0  0.39650  0.32892  0.98158  1.0000 -0.0294669083
C   C86       1.0  0.32892  0.98158  0.39650  1.0000 -0.0294669083
C   C87       1.0  0.98158  0.39650  0.32892  1.0000 -0.0294669083
C   C88       1.0  0.67108  0.60350  0.01842  1.0000 -0.0294669083
C   C89       1.0  0.01842  0.67108  0.60350  1.0000 -0.0294669083
C   C90       1.0  0.60350  0.01842  0.67108  1.0000 -0.0294669083
C   C91       1.0  0.60350  0.67108  0.01842  1.0000 -0.0294669083
C   C92       1.0  0.67108  0.01842  0.60350  1.0000 -0.0294669083
C   C93       1.0  0.01842  0.60350  0.67108  1.0000 -0.0294669083
C   C94       1.0  0.32892  0.39650  0.98158  1.0000 -0.0294669083
C   C95       1.0  0.98158  0.32892  0.39650  1.0000 -0.0294669083
C   C96       1.0  0.39650  0.98158  0.32892  1.0000 -0.0294669083
C   C97       1.0  0.46285  0.39664  0.99061  1.0000 -0.1921405027
C   C98       1.0  0.39664  0.99061  0.46285  1.0000 -0.1921405027
C   C99       1.0  0.99061  0.46285  0.39664  1.0000 -0.1921405027
C   C100      1.0  0.60336  0.53715  0.00939  1.0000 -0.1921405027
C   C101      1.0  0.00939  0.60336  0.53715  1.0000 -0.1921405027
C   C102      1.0  0.53715  0.00939  0.60336  1.0000 -0.1921405027
C   C103      1.0  0.53715  0.60336  0.00939  1.0000 -0.1921405027
C   C104      1.0  0.60336  0.00939  0.53715  1.0000 -0.1921405027
C   C105      1.0  0.00939  0.53715  0.60336  1.0000 -0.1921405027
C   C106      1.0  0.39664  0.46285  0.99061  1.0000 -0.1921405027
C   C107      1.0  0.99061  0.39664  0.46285  1.0000 -0.1921405027
C   C108      1.0  0.46285  0.99061  0.39664  1.0000 -0.1921405027
C   C109      1.0  0.46535  0.46535  0.99650  1.0000 0.0727089689
C   C110      1.0  0.46535  0.99650  0.46535  1.0000 0.0727089689
C   C111      1.0  0.99650  0.46535  0.46535  1.0000 0.0727089689
C   C112      1.0  0.53465  0.53465  0.00350  1.0000 0.0727089689
C   C113      1.0  0.00350  0.53465  0.53465  1.0000 0.0727089689
C   C114      1.0  0.53465  0.00350  0.53465  1.0000 0.0727089689
C   C115      1.0  0.32969  0.32969  0.97593  1.0000 0.1508211092
C   C116      1.0  0.32969  0.97593  0.32969  1.0000 0.1508211092
C   C117      1.0  0.97593  0.32969  0.32969  1.0000 0.1508211092
C   C118      1.0  0.67031  0.67031  0.02407  1.0000 0.1508211092
C   C119      1.0  0.02407  0.67031  0.67031  1.0000 0.1508211092
C   C120      1.0  0.67032  0.02407  0.67031  1.0000 0.1508211092
C   C121      1.0  0.31645  0.31645  0.07650  1.0000 -0.2567582631
C   C122      1.0  0.31645  0.07650  0.31645  1.0000 -0.2567582631
C   C123      1.0  0.07650  0.31645  0.31645  1.0000 -0.2567582631
C   C124      1.0  0.68355  0.68355  0.92350  1.0000 -0.2567582631
C   C125      1.0  0.92350  0.68355  0.68355  1.0000 -0.2567582631
C   C126      1.0  0.68355  0.92350  0.68355  1.0000 -0.2567582631
O   O1        1.0  0.54145  0.13771  0.06084  1.0000 -0.5285574898
O   O2        1.0  0.13771  0.06084  0.54145  1.0000 -0.5285574898
O   O3        1.0  0.06084  0.54145  0.13771  1.0000 -0.5285574898
O   O4        1.0  0.86229  0.45855  0.93916  1.0000 -0.5285574898
O   O5        1.0  0.93916  0.86229  0.45855  1.0000 -0.5285574898
O   O6        1.0  0.45855  0.93916  0.86229  1.0000 -0.5285574898
O   O7        1.0  0.45855  0.86229  0.93916  1.0000 -0.5285574898
O   O8        1.0  0.86229  0.93916  0.45855  1.0000 -0.5285574898
O   O9        1.0  0.93916  0.45855  0.86229  1.0000 -0.5285574898
O   O10       1.0  0.13771  0.54145  0.06084  1.0000 -0.5285574898
O   O11       1.0  0.06084  0.13771  0.54145  1.0000 -0.5285574898
O   O12       1.0  0.54145  0.06084  0.13771  1.0000 -0.5285574898
O   O13       1.0  0.38159  0.99598  0.91843  1.0000 -0.4898991812
O   O14       1.0  0.99598  0.91843  0.38159  1.0000 -0.4898991812
O   O15       1.0  0.91843  0.38159  0.99598  1.0000 -0.4898991812
O   O16       1.0  0.00402  0.61841  0.08157  1.0000 -0.4898991812
O   O17       1.0  0.08157  0.00402  0.61841  1.0000 -0.4898991812
O   O18       1.0  0.61841  0.08157  0.00402  1.0000 -0.4898991812
O   O19       1.0  0.61841  0.00402  0.08157  1.0000 -0.4898991812
O   O20       1.0  0.00402  0.08157  0.61841  1.0000 -0.4898991812
O   O21       1.0  0.08157  0.61841  0.00402  1.0000 -0.4898991812
O   O22       1.0  0.99598  0.38159  0.91843  1.0000 -0.4898991812
O   O23       1.0  0.91843  0.99598  0.38159  1.0000 -0.4898991812
O   O24       1.0  0.38159  0.91843  0.99598  1.0000 -0.4898991812
O   O25       1.0  0.26457  0.26457  0.96906  1.0000 -0.1775414153
O   O26       1.0  0.26457  0.96906  0.26457  1.0000 -0.1775414153
O   O27       1.0  0.96906  0.26457  0.26457  1.0000 -0.1775414153
O   O28       1.0  0.73543  0.73543  0.03094  1.0000 -0.1775414153
O   O29       1.0  0.03094  0.73543  0.73543  1.0000 -0.1748988881
O   O30       1.0  0.73543  0.03094  0.73543  1.0000 -0.1748988881
