# DDEC6 charges by PACMAN v1.1 (https://github.com/mtap-research/PACMAN-charge/)
data_2016[Cu][nbo]3[ASR]26
_chemical_formula_sum              "Cu6 H90 C132 O30"
_cell_length_a       21.3447
_cell_length_b       21.3447
_cell_length_c       21.3447
_cell_angle_alpha    114.133
_cell_angle_beta     114.133
_cell_angle_gamma    114.133

_symmetry_space_group_name_H-M    "P 1"
_symmetry_Int_Tables_number       1

loop_
  _symmetry_equiv_pos_as_xyz
  'x, y, z'

loop_
  _atom_site_type_symbol
  _atom_site_label
  _atom_site_symmetry_multiplicity
  _atom_site_fract_x
  _atom_site_fract_y
  _atom_site_fract_z
  _atom_site_occupancy
  _atom_site_charge
Cu  Cu1       1.0  0.41027  0.92325  0.92325  1.0000 0.8404931198
Cu  Cu2       1.0  0.92325  0.92325  0.41027  1.0000 0.8404931198
Cu  Cu3       1.0  0.92325  0.41027  0.92325  1.0000 0.8404931198
Cu  Cu4       1.0  0.07675  0.58973  0.07675  1.0000 0.8404931198
Cu  Cu5       1.0  0.07675  0.07675  0.58973  1.0000 0.8404931198
Cu  Cu6       1.0  0.58973  0.07675  0.07675  1.0000 0.8404931198
H   H1        1.0  0.30150  0.87500  0.05150  1.0000 0.1193926122
H   H2        1.0  0.87500  0.05150  0.30150  1.0000 0.1193926122
H   H3        1.0  0.05150  0.30150  0.87500  1.0000 0.1193926122
H   H4        1.0  0.12500  0.69850  0.94850  1.0000 0.1193926122
H   H5        1.0  0.94850  0.12500  0.69850  1.0000 0.1193926122
H   H6        1.0  0.69850  0.94850  0.12500  1.0000 0.1193926122
H   H7        1.0  0.69850  0.12500  0.94850  1.0000 0.1193926122
H   H8        1.0  0.12500  0.94850  0.69850  1.0000 0.1193926122
H   H9        1.0  0.94850  0.69850  0.12500  1.0000 0.1193926122
H   H10       1.0  0.87500  0.30150  0.05150  1.0000 0.1193926122
H   H11       1.0  0.05150  0.87500  0.30150  1.0000 0.1193926122
H   H12       1.0  0.30150  0.05150  0.87500  1.0000 0.1193926122
H   H13       1.0  0.28060  0.88190  0.15220  1.0000 0.1275546305
H   H14       1.0  0.88190  0.15220  0.28060  1.0000 0.1275546305
H   H15       1.0  0.15220  0.28060  0.88190  1.0000 0.1275546305
H   H16       1.0  0.11810  0.71940  0.84780  1.0000 0.1275546305
H   H17       1.0  0.84780  0.11810  0.71940  1.0000 0.1275546305
H   H18       1.0  0.71940  0.84780  0.11810  1.0000 0.1275546305
H   H19       1.0  0.71940  0.11810  0.84780  1.0000 0.1275546305
H   H20       1.0  0.11810  0.84780  0.71940  1.0000 0.1275546305
H   H21       1.0  0.84780  0.71940  0.11810  1.0000 0.1275546305
H   H22       1.0  0.88190  0.28060  0.15220  1.0000 0.1275546305
H   H23       1.0  0.15220  0.88190  0.28060  1.0000 0.1275546305
H   H24       1.0  0.28060  0.15220  0.88190  1.0000 0.1275546305
H   H25       1.0  0.55110  0.11250  0.37320  1.0000 0.1193926122
H   H26       1.0  0.11250  0.37320  0.55110  1.0000 0.1193926122
H   H27       1.0  0.37320  0.55110  0.11250  1.0000 0.1193926122
H   H28       1.0  0.88750  0.44890  0.62680  1.0000 0.1193926122
H   H29       1.0  0.62680  0.88750  0.44890  1.0000 0.1193926122
H   H30       1.0  0.44890  0.62680  0.88750  1.0000 0.1193926122
H   H31       1.0  0.44890  0.88750  0.62680  1.0000 0.1193926122
H   H32       1.0  0.88750  0.62680  0.44890  1.0000 0.1193926122
H   H33       1.0  0.62680  0.44890  0.88750  1.0000 0.1193926122
H   H34       1.0  0.11250  0.55110  0.37320  1.0000 0.1193926122
H   H35       1.0  0.37320  0.11250  0.55110  1.0000 0.1193926122
H   H36       1.0  0.55110  0.37320  0.11250  1.0000 0.1193926122
H   H37       1.0  0.57140  0.11230  0.27570  1.0000 0.1275546305
H   H38       1.0  0.11230  0.27570  0.57140  1.0000 0.1275546305
H   H39       1.0  0.27570  0.57140  0.11230  1.0000 0.1275546305
H   H40       1.0  0.88770  0.42860  0.72430  1.0000 0.1275546305
H   H41       1.0  0.72430  0.88770  0.42860  1.0000 0.1275546305
H   H42       1.0  0.42860  0.72430  0.88770  1.0000 0.1275546305
H   H43       1.0  0.42860  0.88770  0.72430  1.0000 0.1275546305
H   H44       1.0  0.88770  0.72430  0.42860  1.0000 0.1275546305
H   H45       1.0  0.72430  0.42860  0.88770  1.0000 0.1275546305
H   H46       1.0  0.11230  0.57140  0.27570  1.0000 0.1275546305
H   H47       1.0  0.27570  0.11230  0.57140  1.0000 0.1275546305
H   H48       1.0  0.57140  0.27570  0.11230  1.0000 0.1275546305
H   H49       1.0  0.51010  0.99710  0.39910  1.0000 0.11319738
H   H50       1.0  0.99710  0.39910  0.51010  1.0000 0.11319738
H   H51       1.0  0.39910  0.51010  0.99710  1.0000 0.11319738
H   H52       1.0  0.00290  0.48990  0.60090  1.0000 0.11319738
H   H53       1.0  0.60090  0.00290  0.48990  1.0000 0.11319738
H   H54       1.0  0.48990  0.60090  0.00290  1.0000 0.11319738
H   H55       1.0  0.48990  0.00290  0.60090  1.0000 0.11319738
H   H56       1.0  0.00290  0.60090  0.48990  1.0000 0.11319738
H   H57       1.0  0.60090  0.48990  0.00290  1.0000 0.11319738
H   H58       1.0  0.99710  0.51010  0.39910  1.0000 0.11319738
H   H59       1.0  0.39910  0.99710  0.51010  1.0000 0.11319738
H   H60       1.0  0.51010  0.39910  0.99710  1.0000 0.11319738
H   H61       1.0  0.37720  0.11640  0.33350  1.0000 0.0638196502
H   H62       1.0  0.11640  0.33350  0.37720  1.0000 0.0678960403
H   H63       1.0  0.33350  0.37720  0.11640  1.0000 0.0638196502
H   H64       1.0  0.88360  0.62280  0.66650  1.0000 0.0678960403
H   H65       1.0  0.66650  0.88360  0.62280  1.0000 0.0678960403
H   H66       1.0  0.62280  0.66650  0.88360  1.0000 0.0638196502
H   H67       1.0  0.62280  0.88360  0.66650  1.0000 0.0678960403
H   H68       1.0  0.88360  0.66650  0.62280  1.0000 0.0638196502
H   H69       1.0  0.66650  0.62280  0.88360  1.0000 0.0638196502
H   H70       1.0  0.11640  0.37720  0.33350  1.0000 0.0678960403
H   H71       1.0  0.33350  0.11640  0.37720  1.0000 0.0678960403
H   H72       1.0  0.37720  0.33350  0.11640  1.0000 0.0638196502
H   H73       1.0  0.28965  0.15600  0.28965  1.0000 0.0984630978
H   H74       1.0  0.15600  0.28965  0.28965  1.0000 0.0984630978
H   H75       1.0  0.28965  0.28965  0.15600  1.0000 0.0984630978
H   H76       1.0  0.84400  0.71035  0.71035  1.0000 0.0984630978
H   H77       1.0  0.71035  0.84400  0.71035  1.0000 0.0984630978
H   H78       1.0  0.71035  0.71035  0.84400  1.0000 0.0984630978
H   H79       1.0  0.19740  0.05980  0.24110  1.0000 0.11319738
H   H80       1.0  0.05980  0.24110  0.19740  1.0000 0.11319738
H   H81       1.0  0.24110  0.19740  0.05980  1.0000 0.11319738
H   H82       1.0  0.94020  0.80260  0.75890  1.0000 0.11319738
H   H83       1.0  0.75890  0.94020  0.80260  1.0000 0.11319738
H   H84       1.0  0.80260  0.75890  0.94020  1.0000 0.11319738
H   H85       1.0  0.80260  0.94020  0.75890  1.0000 0.11319738
H   H86       1.0  0.94020  0.75890  0.80260  1.0000 0.11319738
H   H87       1.0  0.75890  0.80260  0.94020  1.0000 0.11319738
H   H88       1.0  0.05980  0.19740  0.24110  1.0000 0.11319738
H   H89       1.0  0.24110  0.05980  0.19740  1.0000 0.11319738
H   H90       1.0  0.19740  0.24110  0.05980  1.0000 0.11319738
C   C1        1.0  0.45798  0.99298  0.09204  1.0000 0.5778239639
C   C2        1.0  0.99298  0.09204  0.45798  1.0000 0.5778239639
C   C3        1.0  0.09204  0.45798  0.99298  1.0000 0.5778239639
C   C4        1.0  0.00702  0.54202  0.90796  1.0000 0.5778239639
C   C5        1.0  0.90796  0.00702  0.54202  1.0000 0.5778239639
C   C6        1.0  0.54202  0.90796  0.00702  1.0000 0.5778239639
C   C7        1.0  0.54202  0.00702  0.90796  1.0000 0.5778239639
C   C8        1.0  0.00702  0.90796  0.54202  1.0000 0.5778239639
C   C9        1.0  0.90796  0.54202  0.00702  1.0000 0.5778239639
C   C10       1.0  0.99298  0.45798  0.09204  1.0000 0.5778239639
C   C11       1.0  0.09204  0.99298  0.45798  1.0000 0.5778239639
C   C12       1.0  0.45798  0.09204  0.99298  1.0000 0.5778239639
C   C13       1.0  0.44182  0.99491  0.15577  1.0000 -0.0142048974
C   C14       1.0  0.99491  0.15577  0.44182  1.0000 -0.0142048974
C   C15       1.0  0.15577  0.44182  0.99491  1.0000 -0.0154517151
C   C16       1.0  0.00509  0.55818  0.84423  1.0000 -0.0154517151
C   C17       1.0  0.84423  0.00509  0.55818  1.0000 -0.0154517151
C   C18       1.0  0.55818  0.84423  0.00509  1.0000 -0.0142048974
C   C19       1.0  0.55818  0.00509  0.84423  1.0000 -0.0154517151
C   C20       1.0  0.00509  0.84423  0.55818  1.0000 -0.0154517151
C   C21       1.0  0.84423  0.55818  0.00509  1.0000 -0.0142048974
C   C22       1.0  0.99491  0.44182  0.15577  1.0000 -0.0154517151
C   C23       1.0  0.15577  0.99491  0.44182  1.0000 -0.0142048974
C   C24       1.0  0.44182  0.15577  0.99491  1.0000 -0.0142048974
C   C25       1.0  0.35283  0.92400  0.11707  1.0000 -0.0855318814
C   C26       1.0  0.92400  0.11707  0.35283  1.0000 -0.0855318814
C   C27       1.0  0.11707  0.35283  0.92400  1.0000 -0.0855318814
C   C28       1.0  0.07600  0.64717  0.88293  1.0000 -0.0855318814
C   C29       1.0  0.88293  0.07600  0.64717  1.0000 -0.0855318814
C   C30       1.0  0.64717  0.88293  0.07600  1.0000 -0.0855318814
C   C31       1.0  0.64717  0.07600  0.88293  1.0000 -0.0855318814
C   C32       1.0  0.07600  0.88293  0.64717  1.0000 -0.0855318814
C   C33       1.0  0.88293  0.64717  0.07600  1.0000 -0.0855318814
C   C34       1.0  0.92400  0.35283  0.11707  1.0000 -0.0855318814
C   C35       1.0  0.11707  0.92400  0.35283  1.0000 -0.0855318814
C   C36       1.0  0.35283  0.11707  0.92400  1.0000 -0.0855318814
C   C37       1.0  0.34127  0.92731  0.17842  1.0000 -0.1410566386
C   C38       1.0  0.92731  0.17842  0.34127  1.0000 -0.1410566386
C   C39       1.0  0.17842  0.34127  0.92731  1.0000 -0.1410566386
C   C40       1.0  0.07269  0.65873  0.82158  1.0000 -0.1410566386
C   C41       1.0  0.82158  0.07269  0.65873  1.0000 -0.1410566386
C   C42       1.0  0.65873  0.82158  0.07269  1.0000 -0.1410566386
C   C43       1.0  0.65873  0.07269  0.82158  1.0000 -0.1410566386
C   C44       1.0  0.07269  0.82158  0.65873  1.0000 -0.1410566386
C   C45       1.0  0.82158  0.65873  0.07269  1.0000 -0.1410566386
C   C46       1.0  0.92731  0.34127  0.17842  1.0000 -0.1410566386
C   C47       1.0  0.17842  0.92731  0.34127  1.0000 -0.1410566386
C   C48       1.0  0.34127  0.17842  0.92731  1.0000 -0.1410566386
C   C49       1.0  0.41325  0.99247  0.27198  1.0000 0.0824912782
C   C50       1.0  0.99247  0.27198  0.41325  1.0000 0.0824912782
C   C51       1.0  0.27198  0.41325  0.99247  1.0000 0.0824912782
C   C52       1.0  0.00753  0.58675  0.72802  1.0000 0.0824912782
C   C53       1.0  0.72802  0.00753  0.58675  1.0000 0.0824912782
C   C54       1.0  0.58675  0.72802  0.00753  1.0000 0.0824912782
C   C55       1.0  0.58675  0.00753  0.72802  1.0000 0.0824912782
C   C56       1.0  0.00753  0.72802  0.58675  1.0000 0.0824912782
C   C57       1.0  0.72802  0.58675  0.00753  1.0000 0.0824912782
C   C58       1.0  0.99247  0.41325  0.27198  1.0000 0.0824912782
C   C59       1.0  0.27198  0.99247  0.41325  1.0000 0.0824912782
C   C60       1.0  0.41325  0.27198  0.99247  1.0000 0.0824912782
C   C61       1.0  0.49957  0.06310  0.30763  1.0000 -0.1663132587
C   C62       1.0  0.06310  0.30763  0.49957  1.0000 -0.1663132587
C   C63       1.0  0.30763  0.49957  0.06310  1.0000 -0.1663132587
C   C64       1.0  0.93690  0.50043  0.69237  1.0000 -0.1663132587
C   C65       1.0  0.69237  0.93690  0.50043  1.0000 -0.1663132587
C   C66       1.0  0.50043  0.69237  0.93690  1.0000 -0.1663132587
C   C67       1.0  0.50043  0.93690  0.69237  1.0000 -0.1663132587
C   C68       1.0  0.93690  0.69237  0.50043  1.0000 -0.1663132587
C   C69       1.0  0.69237  0.50043  0.93690  1.0000 -0.1663132587
C   C70       1.0  0.06310  0.49957  0.30763  1.0000 -0.1663132587
C   C71       1.0  0.30763  0.06310  0.49957  1.0000 -0.1663132587
C   C72       1.0  0.49957  0.30763  0.06310  1.0000 -0.1663132587
C   C73       1.0  0.51204  0.06300  0.24876  1.0000 -0.0855318814
C   C74       1.0  0.06300  0.24876  0.51204  1.0000 -0.0855318814
C   C75       1.0  0.24876  0.51204  0.06300  1.0000 -0.0855318814
C   C76       1.0  0.93700  0.48796  0.75124  1.0000 -0.0855318814
C   C77       1.0  0.75124  0.93700  0.48796  1.0000 -0.0855318814
C   C78       1.0  0.48796  0.75124  0.93700  1.0000 -0.0855318814
C   C79       1.0  0.48796  0.93700  0.75124  1.0000 -0.0842485953
C   C80       1.0  0.93700  0.75124  0.48796  1.0000 -0.0855318814
C   C81       1.0  0.75124  0.48796  0.93700  1.0000 -0.0855318814
C   C82       1.0  0.06300  0.51204  0.24876  1.0000 -0.0855318814
C   C83       1.0  0.24876  0.06300  0.51204  1.0000 -0.0855318814
C   C84       1.0  0.51204  0.24876  0.06300  1.0000 -0.0855318814
C   C85       1.0  0.40320  0.98914  0.33576  1.0000 -0.0154517151
C   C86       1.0  0.98914  0.33576  0.40320  1.0000 -0.0154517151
C   C87       1.0  0.33576  0.40320  0.98914  1.0000 -0.0154517151
C   C88       1.0  0.01086  0.59680  0.66424  1.0000 -0.0154517151
C   C89       1.0  0.66424  0.01086  0.59680  1.0000 -0.0154517151
C   C90       1.0  0.59680  0.66424  0.01086  1.0000 -0.0154517151
C   C91       1.0  0.59680  0.01086  0.66424  1.0000 -0.0154517151
C   C92       1.0  0.01086  0.66424  0.59680  1.0000 -0.0154517151
C   C93       1.0  0.66424  0.59680  0.01086  1.0000 -0.0154517151
C   C94       1.0  0.98914  0.40320  0.33576  1.0000 -0.0154517151
C   C95       1.0  0.33576  0.98914  0.40320  1.0000 -0.0154517151
C   C96       1.0  0.40320  0.33576  0.98914  1.0000 -0.0142048974
C   C97       1.0  0.46591  0.99476  0.40003  1.0000 -0.1898085255
C   C98       1.0  0.99476  0.40003  0.46591  1.0000 -0.1898085255
C   C99       1.0  0.40003  0.46591  0.99476  1.0000 -0.1898085255
C   C100      1.0  0.00524  0.53409  0.59997  1.0000 -0.1898085255
C   C101      1.0  0.59997  0.00524  0.53409  1.0000 -0.1898085255
C   C102      1.0  0.53409  0.59997  0.00524  1.0000 -0.1898085255
C   C103      1.0  0.53409  0.00524  0.59997  1.0000 -0.1898085255
C   C104      1.0  0.00524  0.59997  0.53409  1.0000 -0.1898085255
C   C105      1.0  0.59997  0.53409  0.00524  1.0000 -0.1898085255
C   C106      1.0  0.99476  0.46591  0.40003  1.0000 -0.1898085255
C   C107      1.0  0.40003  0.99476  0.46591  1.0000 -0.1898085255
C   C108      1.0  0.46591  0.40003  0.99476  1.0000 -0.1898085255
C   C109      1.0  0.46533  0.99694  0.46533  1.0000 0.0678960403
C   C110      1.0  0.99694  0.46533  0.46533  1.0000 0.0678960403
C   C111      1.0  0.46533  0.46533  0.99694  1.0000 0.0678960403
C   C112      1.0  0.00306  0.53467  0.53467  1.0000 0.0678960403
C   C113      1.0  0.53467  0.00306  0.53467  1.0000 0.0678960403
C   C114      1.0  0.53467  0.53467  0.00306  1.0000 0.0678960403
C   C115      1.0  0.33723  0.98584  0.33723  1.0000 0.1571884574
C   C116      1.0  0.98584  0.33723  0.33723  1.0000 0.1571884574
C   C117      1.0  0.33723  0.33723  0.98584  1.0000 0.1571884574
C   C118      1.0  0.01416  0.66277  0.66277  1.0000 0.1571884574
C   C119      1.0  0.66277  0.01416  0.66277  1.0000 0.1571884574
C   C120      1.0  0.66277  0.66277  0.01416  1.0000 0.1571884574
C   C121      1.0  0.31800  0.08310  0.31800  1.0000 0.002925652
C   C122      1.0  0.08310  0.31800  0.31800  1.0000 0.002925652
C   C123      1.0  0.31800  0.31800  0.08310  1.0000 0.002925652
C   C124      1.0  0.91690  0.68200  0.68200  1.0000 0.002925652
C   C125      1.0  0.68200  0.91690  0.68200  1.0000 0.002925652
C   C126      1.0  0.68200  0.68200  0.91690  1.0000 0.002925652
C   C127      1.0  0.25545  0.09030  0.25545  1.0000 -0.3622654258
C   C128      1.0  0.09030  0.25545  0.25545  1.0000 -0.3622654258
C   C129      1.0  0.25545  0.25545  0.09030  1.0000 -0.3622654258
C   C130      1.0  0.90970  0.74455  0.74455  1.0000 -0.3622654258
C   C131      1.0  0.74455  0.90970  0.74455  1.0000 -0.3622654258
C   C132      1.0  0.74455  0.74455  0.90970  1.0000 -0.3622654258
O   O1        1.0  0.54288  0.05846  0.13606  1.0000 -0.5232628662
O   O2        1.0  0.05846  0.13606  0.54288  1.0000 -0.5232628662
O   O3        1.0  0.13606  0.54288  0.05846  1.0000 -0.5232628662
O   O4        1.0  0.94154  0.45712  0.86394  1.0000 -0.5232628662
O   O5        1.0  0.86394  0.94154  0.45712  1.0000 -0.5232628662
O   O6        1.0  0.45712  0.86394  0.94154  1.0000 -0.5232628662
O   O7        1.0  0.45712  0.94154  0.86394  1.0000 -0.5232628662
O   O8        1.0  0.94154  0.86394  0.45712  1.0000 -0.5232628662
O   O9        1.0  0.86394  0.45712  0.94154  1.0000 -0.5232628662
O   O10       1.0  0.05846  0.54288  0.13606  1.0000 -0.5232628662
O   O11       1.0  0.13606  0.05846  0.54288  1.0000 -0.5232628662
O   O12       1.0  0.54288  0.13606  0.05846  1.0000 -0.5232628662
O   O13       1.0  0.38656  0.92582  0.00322  1.0000 -0.5137363205
O   O14       1.0  0.92582  0.00322  0.38656  1.0000 -0.5137363205
O   O15       1.0  0.00322  0.38656  0.92582  1.0000 -0.5137363205
O   O16       1.0  0.07418  0.61344  0.99678  1.0000 -0.5137363205
O   O17       1.0  0.99678  0.07418  0.61344  1.0000 -0.5137363205
O   O18       1.0  0.61344  0.99678  0.07418  1.0000 -0.5137363205
O   O19       1.0  0.61344  0.07418  0.99678  1.0000 -0.5137363205
O   O20       1.0  0.07418  0.99678  0.61344  1.0000 -0.5137363205
O   O21       1.0  0.99678  0.61344  0.07418  1.0000 -0.5137363205
O   O22       1.0  0.92582  0.38656  0.00322  1.0000 -0.5137363205
O   O23       1.0  0.00322  0.92582  0.38656  1.0000 -0.5137363205
O   O24       1.0  0.38656  0.00322  0.92582  1.0000 -0.5137363205
O   O25       1.0  0.27272  0.97956  0.27272  1.0000 -0.227488013
O   O26       1.0  0.97956  0.27272  0.27272  1.0000 -0.227488013
O   O27       1.0  0.27272  0.27272  0.97956  1.0000 -0.227488013
O   O28       1.0  0.02044  0.72728  0.72728  1.0000 -0.227488013
O   O29       1.0  0.72728  0.02044  0.72728  1.0000 -0.2245869566
O   O30       1.0  0.72728  0.72728  0.02044  1.0000 -0.227488013
