# DDEC6 charges by PACMAN v1.1 (https://github.com/mtap-research/PACMAN-charge/)
data_2016[Co][nan]3[ASR]9
_chemical_formula_sum              "Co6 H16 C28 N12 O12"
_cell_length_a       10.9794
_cell_length_b       10.9794
_cell_length_c       11.0727
_cell_angle_alpha    85.5077
_cell_angle_beta     94.4923
_cell_angle_gamma    106.797

_symmetry_space_group_name_H-M    "P 1"
_symmetry_Int_Tables_number       1

loop_
  _symmetry_equiv_pos_as_xyz
  'x, y, z'

loop_
  _atom_site_type_symbol
  _atom_site_label
  _atom_site_symmetry_multiplicity
  _atom_site_fract_x
  _atom_site_fract_y
  _atom_site_fract_z
  _atom_site_occupancy
  _atom_site_charge
Co  Co1       1.0  0.85706  0.01446  0.00268  1.0000 0.8337014982
Co  Co2       1.0  0.01446  0.85706  0.49732  1.0000 0.8337014982
Co  Co3       1.0  0.14294  0.98554  0.99732  1.0000 0.8337014982
Co  Co4       1.0  0.98554  0.14294  0.50268  1.0000 0.8337014982
Co  Co5       1.0  0.90647  0.90647  0.75000  1.0000 0.9442493687
Co  Co6       1.0  0.09353  0.09353  0.25000  1.0000 0.9442493687
H   H1        1.0  0.34760  0.87100  0.51460  1.0000 0.1396695295
H   H2        1.0  0.87100  0.34760  0.98540  1.0000 0.1396695295
H   H3        1.0  0.65240  0.12900  0.48540  1.0000 0.1396695295
H   H4        1.0  0.12900  0.65240  0.01460  1.0000 0.1396695295
H   H5        1.0  0.53960  0.86260  0.60770  1.0000 0.1182410367
H   H6        1.0  0.86260  0.53960  0.89230  1.0000 0.1182410367
H   H7        1.0  0.46040  0.13740  0.39230  1.0000 0.1182410367
H   H8        1.0  0.13740  0.46040  0.10770  1.0000 0.1182410367
H   H9        1.0  0.43570  0.92850  0.93290  1.0000 0.1396695295
H   H10       1.0  0.92850  0.43570  0.56710  1.0000 0.1396695295
H   H11       1.0  0.56430  0.07150  0.06710  1.0000 0.1396695295
H   H12       1.0  0.07150  0.56430  0.43290  1.0000 0.1396695295
H   H13       1.0  0.90000  0.83000  0.98400  1.0000 0.3881921762
H   H14       1.0  0.83000  0.90000  0.51600  1.0000 0.3881921762
H   H15       1.0  0.10000  0.17000  0.01600  1.0000 0.3881921762
H   H16       1.0  0.17000  0.10000  0.48400  1.0000 0.3881921762
C   C1        1.0  0.29910  0.91630  0.79150  1.0000 0.1182410367
C   C2        1.0  0.91630  0.29910  0.70850  1.0000 0.1182410367
C   C3        1.0  0.70090  0.08370  0.20850  1.0000 0.1182410367
C   C4        1.0  0.08370  0.70090  0.29150  1.0000 0.1182410367
C   C5        1.0  0.27220  0.89600  0.66960  1.0000 0.1143791596
C   C6        1.0  0.89600  0.27220  0.83040  1.0000 0.1143791596
C   C7        1.0  0.72780  0.10400  0.33040  1.0000 0.1143791596
C   C8        1.0  0.10400  0.72780  0.16960  1.0000 0.1143791596
C   C9        1.0  0.36390  0.88010  0.59760  1.0000 -0.1691174177
C   C10       1.0  0.88010  0.36390  0.90240  1.0000 -0.1691174177
C   C11       1.0  0.63610  0.11990  0.40240  1.0000 -0.1691174177
C   C12       1.0  0.11990  0.63610  0.09760  1.0000 -0.1691174177
C   C13       1.0  0.47840  0.87820  0.65310  1.0000 -0.1075407627
C   C14       1.0  0.87820  0.47840  0.84690  1.0000 -0.1075407627
C   C15       1.0  0.52160  0.12180  0.34690  1.0000 -0.1075407627
C   C16       1.0  0.12180  0.52160  0.15310  1.0000 -0.1075407627
C   C17       1.0  0.50730  0.89950  0.77860  1.0000 -0.0225378597
C   C18       1.0  0.89950  0.50730  0.72140  1.0000 -0.0225378597
C   C19       1.0  0.49270  0.10050  0.22140  1.0000 -0.0225378597
C   C20       1.0  0.10050  0.49270  0.27860  1.0000 -0.0225378597
C   C21       1.0  0.41860  0.91700  0.85030  1.0000 -0.1538076034
C   C22       1.0  0.91700  0.41860  0.64970  1.0000 -0.1538076034
C   C23       1.0  0.58140  0.08300  0.14970  1.0000 -0.1538076034
C   C24       1.0  0.08300  0.58140  0.35030  1.0000 -0.1538076034
C   C25       1.0  0.64020  0.90640  0.82890  1.0000 0.5842912415
C   C26       1.0  0.90640  0.64020  0.67110  1.0000 0.5842912415
C   C27       1.0  0.35980  0.09360  0.17110  1.0000 0.5842912415
C   C28       1.0  0.09360  0.35980  0.32890  1.0000 0.5842912415
N   N1        1.0  0.19070  0.92970  0.83670  1.0000 -0.2283671728
N   N2        1.0  0.92970  0.19070  0.66330  1.0000 -0.2283671728
N   N3        1.0  0.80930  0.07030  0.16330  1.0000 -0.2283671728
N   N4        1.0  0.07030  0.80930  0.33670  1.0000 -0.2283671728
N   N5        1.0  0.10680  0.92040  0.74400  1.0000 -0.0225378597
N   N6        1.0  0.92040  0.10680  0.75600  1.0000 -0.0256542159
N   N7        1.0  0.89320  0.07960  0.25600  1.0000 -0.0256542159
N   N8        1.0  0.07960  0.89320  0.24400  1.0000 -0.0225378597
N   N9        1.0  0.15000  0.89640  0.64290  1.0000 -0.2369039661
N   N10       1.0  0.89640  0.15000  0.85710  1.0000 -0.2369039661
N   N11       1.0  0.85000  0.10360  0.35710  1.0000 -0.2369039661
N   N12       1.0  0.10360  0.85000  0.14290  1.0000 -0.2369039661
O   O1        1.0  0.94380  0.90180  0.93260  1.0000 -0.8475655547
O   O2        1.0  0.90180  0.94380  0.56740  1.0000 -0.8475655547
O   O3        1.0  0.05620  0.09820  0.06740  1.0000 -0.8475655547
O   O4        1.0  0.09820  0.05620  0.43260  1.0000 -0.8475655547
O   O5        1.0  0.67130  0.94390  0.93530  1.0000 -0.5666485509
O   O6        1.0  0.94390  0.67130  0.56470  1.0000 -0.5666485509
O   O7        1.0  0.32870  0.05610  0.06470  1.0000 -0.5666485509
O   O8        1.0  0.05610  0.32870  0.43530  1.0000 -0.5666485509
O   O9        1.0  0.71000  0.87300  0.76110  1.0000 -0.5519249668
O   O10       1.0  0.87300  0.71000  0.73890  1.0000 -0.5519249668
O   O11       1.0  0.29000  0.12700  0.23890  1.0000 -0.5519249668
O   O12       1.0  0.12700  0.29000  0.26110  1.0000 -0.5519249668
