# DDEC6 charges by PACMAN v1.1 (https://github.com/mtap-research/PACMAN-charge/)
data_2016[La][nan]3[ASR]5
_chemical_formula_sum              "La4 H36 C60 O28"
_cell_length_a       14.1522
_cell_length_b       14.1522
_cell_length_c       14.936
_cell_angle_alpha    83.8042
_cell_angle_beta     96.1958
_cell_angle_gamma    122.33

_symmetry_space_group_name_H-M    "P 1"
_symmetry_Int_Tables_number       1

loop_
  _symmetry_equiv_pos_as_xyz
  'x, y, z'

loop_
  _atom_site_type_symbol
  _atom_site_label
  _atom_site_symmetry_multiplicity
  _atom_site_fract_x
  _atom_site_fract_y
  _atom_site_fract_z
  _atom_site_occupancy
  _atom_site_charge
La  La1       1.0  0.95891  0.62073  0.46971  1.0000 1.8157103272
La  La2       1.0  0.62073  0.95891  0.03029  1.0000 1.8157103272
La  La3       1.0  0.04109  0.37927  0.53029  1.0000 1.8130502911
La  La4       1.0  0.37927  0.04109  0.96971  1.0000 1.8130502911
H   H1        1.0  0.18360  0.17600  0.37670  1.0000 0.1209883649
H   H2        1.0  0.17600  0.18360  0.12330  1.0000 0.1209883649
H   H3        1.0  0.81640  0.82400  0.62330  1.0000 0.1209883649
H   H4        1.0  0.82400  0.81640  0.87670  1.0000 0.1209883649
H   H5        1.0  0.31750  0.14570  0.33310  1.0000 0.1209883649
H   H6        1.0  0.14570  0.31750  0.16690  1.0000 0.1209883649
H   H7        1.0  0.68250  0.85430  0.66690  1.0000 0.1209883649
H   H8        1.0  0.85430  0.68250  0.83310  1.0000 0.1209883649
H   H9        1.0  0.55700  0.45360  0.39680  1.0000 0.1209883649
H   H10       1.0  0.45360  0.55700  0.10320  1.0000 0.1209883649
H   H11       1.0  0.44300  0.54640  0.60320  1.0000 0.1209883649
H   H12       1.0  0.54640  0.44300  0.89680  1.0000 0.1209883649
H   H13       1.0  0.42550  0.48490  0.44190  1.0000 0.1147224368
H   H14       1.0  0.48490  0.42550  0.05810  1.0000 0.1147224368
H   H15       1.0  0.57450  0.51510  0.55810  1.0000 0.1147224368
H   H16       1.0  0.51510  0.57450  0.94190  1.0000 0.1147224368
H   H17       1.0  0.44760  0.18060  0.22860  1.0000 0.1209883649
H   H18       1.0  0.18060  0.44760  0.27140  1.0000 0.1209883649
H   H19       1.0  0.55240  0.81940  0.77140  1.0000 0.1209883649
H   H20       1.0  0.81940  0.55240  0.72860  1.0000 0.1209883649
H   H21       1.0  0.73340  0.18780  0.28840  1.0000 0.1309545996
H   H22       1.0  0.18780  0.73340  0.21160  1.0000 0.1309545996
H   H23       1.0  0.26660  0.81220  0.71160  1.0000 0.1309545996
H   H24       1.0  0.81220  0.26660  0.78840  1.0000 0.1309545996
H   H25       1.0  0.66080  0.36640  0.42770  1.0000 0.1309545996
H   H26       1.0  0.36640  0.66080  0.07230  1.0000 0.1309545996
H   H27       1.0  0.33920  0.63360  0.57230  1.0000 0.1309545996
H   H28       1.0  0.63360  0.33920  0.92770  1.0000 0.1309545996
H   H29       1.0  0.12340  0.83460  0.43620  1.0000 0.3897117103
H   H30       1.0  0.83460  0.12340  0.06380  1.0000 0.3897117103
H   H31       1.0  0.87660  0.16540  0.56380  1.0000 0.3897117103
H   H32       1.0  0.16540  0.87660  0.93620  1.0000 0.3897117103
H   H33       1.0  0.99140  0.80580  0.38040  1.0000 0.3897117103
H   H34       1.0  0.80580  0.99140  0.11960  1.0000 0.3897117103
H   H35       1.0  0.00860  0.19420  0.61960  1.0000 0.3897117103
H   H36       1.0  0.19420  0.00860  0.88040  1.0000 0.3897117103
C   C1        1.0  0.20830  0.34830  0.45840  1.0000 0.5570902439
C   C2        1.0  0.34830  0.20830  0.04160  1.0000 0.5570902439
C   C3        1.0  0.79170  0.65170  0.54160  1.0000 0.5570902439
C   C4        1.0  0.65170  0.79170  0.95840  1.0000 0.5570902439
C   C5        1.0  0.29150  0.33090  0.41860  1.0000 -0.0197440775
C   C6        1.0  0.33090  0.29150  0.08140  1.0000 -0.0197440775
C   C7        1.0  0.70850  0.66910  0.58140  1.0000 -0.0197440775
C   C8        1.0  0.66910  0.70850  0.91860  1.0000 -0.0197440775
C   C9        1.0  0.25900  0.23160  0.38260  1.0000 -0.0903151793
C   C10       1.0  0.23160  0.25900  0.11740  1.0000 -0.0903151793
C   C11       1.0  0.74100  0.76840  0.61740  1.0000 -0.0903151793
C   C12       1.0  0.76840  0.74100  0.88260  1.0000 -0.0903151793
C   C13       1.0  0.33980  0.21420  0.35490  1.0000 -0.1499493547
C   C14       1.0  0.21420  0.33980  0.14510  1.0000 -0.1499493547
C   C15       1.0  0.66020  0.78580  0.64510  1.0000 -0.1499493547
C   C16       1.0  0.78580  0.66020  0.85490  1.0000 -0.1499493547
C   C17       1.0  0.45210  0.29750  0.35950  1.0000 0.068218513
C   C18       1.0  0.29750  0.45210  0.14050  1.0000 0.068218513
C   C19       1.0  0.54790  0.70250  0.64050  1.0000 0.068218513
C   C20       1.0  0.70250  0.54790  0.85950  1.0000 0.068218513
C   C21       1.0  0.48170  0.39690  0.39290  1.0000 -0.1499493547
C   C22       1.0  0.39690  0.48170  0.10710  1.0000 -0.1499493547
C   C23       1.0  0.51830  0.60310  0.60710  1.0000 -0.1499493547
C   C24       1.0  0.60310  0.51830  0.89290  1.0000 -0.1499493547
C   C25       1.0  0.40310  0.41570  0.42130  1.0000 -0.0981303932
C   C26       1.0  0.41570  0.40310  0.07870  1.0000 -0.0981303932
C   C27       1.0  0.59690  0.58430  0.57870  1.0000 -0.0981303932
C   C28       1.0  0.58430  0.59690  0.92130  1.0000 -0.0981303932
C   C29       1.0  0.53700  0.27380  0.33460  1.0000 0.068218513
C   C30       1.0  0.27380  0.53700  0.16540  1.0000 0.068218513
C   C31       1.0  0.46300  0.72620  0.66540  1.0000 0.068218513
C   C32       1.0  0.72620  0.46300  0.83460  1.0000 0.068218513
C   C33       1.0  0.51370  0.20530  0.26440  1.0000 -0.1447032629
C   C34       1.0  0.20530  0.51370  0.23560  1.0000 -0.1499493547
C   C35       1.0  0.48630  0.79470  0.73560  1.0000 -0.1499493547
C   C36       1.0  0.79470  0.48630  0.76440  1.0000 -0.1499493547
C   C37       1.0  0.58650  0.17270  0.24630  1.0000 -0.0197440775
C   C38       1.0  0.17270  0.58650  0.25370  1.0000 -0.0197440775
C   C39       1.0  0.41350  0.82730  0.75370  1.0000 -0.0197440775
C   C40       1.0  0.82730  0.41350  0.74630  1.0000 -0.0197440775
C   C41       1.0  0.68520  0.21080  0.29870  1.0000 -0.1120816482
C   C42       1.0  0.21080  0.68520  0.20130  1.0000 -0.1120816482
C   C43       1.0  0.31480  0.78920  0.70130  1.0000 -0.1120816482
C   C44       1.0  0.78920  0.31480  0.79870  1.0000 -0.1120816482
C   C45       1.0  0.71340  0.28300  0.36660  1.0000 -0.0197440775
C   C46       1.0  0.28300  0.71340  0.13340  1.0000 -0.0197440775
C   C47       1.0  0.28660  0.71700  0.63340  1.0000 -0.0197440775
C   C48       1.0  0.71700  0.28660  0.86660  1.0000 -0.0197440775
C   C49       1.0  0.64070  0.31610  0.38360  1.0000 -0.1499493547
C   C50       1.0  0.31610  0.64070  0.11640  1.0000 -0.1499493547
C   C51       1.0  0.35930  0.68390  0.61640  1.0000 -0.1499493547
C   C52       1.0  0.68390  0.35930  0.88360  1.0000 -0.1499493547
C   C53       1.0  0.82160  0.32140  0.42340  1.0000 0.602482027
C   C54       1.0  0.32140  0.82160  0.07660  1.0000 0.602482027
C   C55       1.0  0.17840  0.67860  0.57660  1.0000 0.602482027
C   C56       1.0  0.67860  0.17840  0.92340  1.0000 0.602482027
C   C57       1.0  0.55660  0.09980  0.16850  1.0000 0.6254400225
C   C58       1.0  0.09980  0.55660  0.33150  1.0000 0.6254400225
C   C59       1.0  0.44340  0.90020  0.83150  1.0000 0.6247807952
C   C60       1.0  0.90020  0.44340  0.66850  1.0000 0.6247807952
O   O1        1.0  0.10585  0.27115  0.45300  1.0000 -0.6007348014
O   O2        1.0  0.27115  0.10585  0.04700  1.0000 -0.6007348014
O   O3        1.0  0.89415  0.72885  0.54700  1.0000 -0.6007348014
O   O4        1.0  0.72885  0.89415  0.95300  1.0000 -0.6007348014
O   O5        1.0  0.24128  0.43612  0.49620  1.0000 -0.5919967083
O   O6        1.0  0.43612  0.24128  0.00380  1.0000 -0.5919967083
O   O7        1.0  0.75872  0.56388  0.50380  1.0000 -0.5919967083
O   O8        1.0  0.56388  0.75872  0.99620  1.0000 -0.5919967083
O   O9        1.0  0.86913  0.41507  0.45840  1.0000 -0.6635851948
O   O10       1.0  0.41507  0.86913  0.04160  1.0000 -0.6635851948
O   O11       1.0  0.13087  0.58493  0.54160  1.0000 -0.6635851948
O   O12       1.0  0.58493  0.13087  0.95840  1.0000 -0.6635851948
O   O13       1.0  0.86042  0.26058  0.43400  1.0000 -0.5734924464
O   O14       1.0  0.26058  0.86042  0.06600  1.0000 -0.5734924464
O   O15       1.0  0.13958  0.73942  0.56600  1.0000 -0.5734924464
O   O16       1.0  0.73942  0.13958  0.93400  1.0000 -0.5734924464
O   O17       1.0  0.62631  0.07369  0.15220  1.0000 -0.6409671245
O   O18       1.0  0.07369  0.62631  0.34780  1.0000 -0.6409671245
O   O19       1.0  0.37369  0.92631  0.84780  1.0000 -0.6409671245
O   O20       1.0  0.92631  0.37369  0.65220  1.0000 -0.6409671245
O   O21       1.0  0.46609  0.07091  0.12460  1.0000 -0.6007348014
O   O22       1.0  0.07091  0.46609  0.37540  1.0000 -0.6007348014
O   O23       1.0  0.53391  0.92909  0.87540  1.0000 -0.6007348014
O   O24       1.0  0.92909  0.53391  0.62460  1.0000 -0.6007348014
O   O25       1.0  0.05600  0.81900  0.39210  1.0000 -0.7443018941
O   O26       1.0  0.81900  0.05600  0.10790  1.0000 -0.7443018941
O   O27       1.0  0.94400  0.18100  0.60790  1.0000 -0.7472023157
O   O28       1.0  0.18100  0.94400  0.89210  1.0000 -0.7472023157
