# DDEC6 charges by PACMAN v1.1 (https://github.com/mtap-research/PACMAN-charge/)
data_2016[Cu][tbo]3[ASR]4
_chemical_formula_sum              "Cu12 H24 C56 I4 N8 O32"
_cell_length_a       16.8401
_cell_length_b       16.8401
_cell_length_c       16.8401
_cell_angle_alpha    114.868
_cell_angle_beta     114.868
_cell_angle_gamma    99.1453

_symmetry_space_group_name_H-M    "P 1"
_symmetry_Int_Tables_number       1

loop_
  _symmetry_equiv_pos_as_xyz
  'x, y, z'

loop_
  _atom_site_type_symbol
  _atom_site_label
  _atom_site_symmetry_multiplicity
  _atom_site_fract_x
  _atom_site_fract_y
  _atom_site_fract_z
  _atom_site_occupancy
  _atom_site_charge
Cu  Cu1       1.0  0.42657  0.00000  0.42657  1.0000 0.2014890986
Cu  Cu2       1.0  0.57343  0.00000  0.57343  1.0000 0.2014890986
Cu  Cu3       1.0  0.00000  0.57343  0.57343  1.0000 0.2014890986
Cu  Cu4       1.0  0.00000  0.42657  0.42657  1.0000 0.2014890986
Cu  Cu5       1.0  0.49811  0.49811  0.57752  1.0000 0.8767890262
Cu  Cu6       1.0  0.92059  0.92059  0.42248  1.0000 0.8767890262
Cu  Cu7       1.0  0.49811  0.92059  0.00000  1.0000 0.8767890262
Cu  Cu8       1.0  0.92059  0.49811  0.00000  1.0000 0.8767890262
Cu  Cu9       1.0  0.07941  0.50189  0.00000  1.0000 0.8767890262
Cu  Cu10      1.0  0.50189  0.07941  0.00000  1.0000 0.8767890262
Cu  Cu11      1.0  0.07941  0.07941  0.57752  1.0000 0.8767890262
Cu  Cu12      1.0  0.50189  0.50189  0.42248  1.0000 0.8767890262
H   H1        1.0  0.44580  0.19630  0.46730  1.0000 0.1172471347
H   H2        1.0  0.72900  0.97850  0.53270  1.0000 0.1172471347
H   H3        1.0  0.19630  0.72900  0.75050  1.0000 0.1172471347
H   H4        1.0  0.97850  0.44580  0.24950  1.0000 0.1172471347
H   H5        1.0  0.27100  0.80370  0.24950  1.0000 0.1172471347
H   H6        1.0  0.55420  0.02150  0.75050  1.0000 0.1172471347
H   H7        1.0  0.02150  0.27100  0.46730  1.0000 0.1172471347
H   H8        1.0  0.80370  0.55420  0.53270  1.0000 0.1172471347
H   H9        1.0  0.55420  0.80370  0.53270  1.0000 0.1172471347
H   H10       1.0  0.27100  0.02150  0.46730  1.0000 0.1172471347
H   H11       1.0  0.80370  0.27100  0.24950  1.0000 0.1172471347
H   H12       1.0  0.02150  0.55420  0.75050  1.0000 0.1172471347
H   H13       1.0  0.72900  0.19630  0.75050  1.0000 0.1172471347
H   H14       1.0  0.44580  0.97850  0.24950  1.0000 0.1172471347
H   H15       1.0  0.97850  0.72900  0.53270  1.0000 0.1172471347
H   H16       1.0  0.19630  0.44580  0.46730  1.0000 0.1172471347
H   H17       1.0  0.46340  0.21800  0.24540  1.0000 0.1427207517
H   H18       1.0  0.97260  0.21800  0.75460  1.0000 0.1427207517
H   H19       1.0  0.21800  0.97260  0.75460  1.0000 0.1427207517
H   H20       1.0  0.21800  0.46340  0.24540  1.0000 0.1427207517
H   H21       1.0  0.02740  0.78200  0.24540  1.0000 0.1427207517
H   H22       1.0  0.53660  0.78200  0.75460  1.0000 0.1427207517
H   H23       1.0  0.78200  0.02740  0.24540  1.0000 0.1427207517
H   H24       1.0  0.78200  0.53660  0.75460  1.0000 0.1427207517
C   C1        1.0  0.44710  0.16840  0.40590  1.0000 0.0716294946
C   C2        1.0  0.76250  0.04120  0.59410  1.0000 0.0716294946
C   C3        1.0  0.16840  0.76250  0.72130  1.0000 0.0716294946
C   C4        1.0  0.04120  0.44710  0.27870  1.0000 0.0716294946
C   C5        1.0  0.23750  0.83160  0.27870  1.0000 0.0716294946
C   C6        1.0  0.55290  0.95880  0.72130  1.0000 0.0716294946
C   C7        1.0  0.95880  0.23750  0.40590  1.0000 0.0716294946
C   C8        1.0  0.83160  0.55290  0.59410  1.0000 0.0716294946
C   C9        1.0  0.55290  0.83160  0.59410  1.0000 0.0716294946
C   C10       1.0  0.23750  0.95880  0.40590  1.0000 0.0716294946
C   C11       1.0  0.83160  0.23750  0.27870  1.0000 0.0716294946
C   C12       1.0  0.95880  0.55290  0.72130  1.0000 0.0716294946
C   C13       1.0  0.76250  0.16840  0.72130  1.0000 0.0716294946
C   C14       1.0  0.44710  0.04120  0.27870  1.0000 0.0716294946
C   C15       1.0  0.04120  0.76250  0.59410  1.0000 0.0716294946
C   C16       1.0  0.16840  0.44710  0.40590  1.0000 0.0716294946
C   C17       1.0  0.45480  0.22210  0.36430  1.0000 -0.0588084876
C   C18       1.0  0.85780  0.09050  0.63570  1.0000 -0.0588084876
C   C19       1.0  0.22210  0.85780  0.76730  1.0000 -0.0588084876
C   C20       1.0  0.09050  0.45480  0.23270  1.0000 -0.0588084876
C   C21       1.0  0.14220  0.77790  0.23270  1.0000 -0.0588084876
C   C22       1.0  0.54520  0.90950  0.76730  1.0000 -0.0588084876
C   C23       1.0  0.90950  0.14220  0.36430  1.0000 -0.0588084876
C   C24       1.0  0.77790  0.54520  0.63570  1.0000 -0.0588084876
C   C25       1.0  0.54520  0.77790  0.63570  1.0000 -0.0588084876
C   C26       1.0  0.14220  0.90950  0.36430  1.0000 -0.0588084876
C   C27       1.0  0.77790  0.14220  0.23270  1.0000 -0.0588084876
C   C28       1.0  0.90950  0.54520  0.76730  1.0000 -0.0588084876
C   C29       1.0  0.85780  0.22210  0.76730  1.0000 -0.0588084876
C   C30       1.0  0.45480  0.09050  0.23270  1.0000 -0.0588084876
C   C31       1.0  0.09050  0.85780  0.63570  1.0000 -0.0588084876
C   C32       1.0  0.22210  0.45480  0.36430  1.0000 -0.0588084876
C   C33       1.0  0.45850  0.18260  0.27590  1.0000 -0.0516279617
C   C34       1.0  0.90670  0.18260  0.72410  1.0000 -0.0516279617
C   C35       1.0  0.18260  0.90670  0.72410  1.0000 -0.0516279617
C   C36       1.0  0.18260  0.45850  0.27590  1.0000 -0.0516279617
C   C37       1.0  0.09330  0.81740  0.27590  1.0000 -0.0516279617
C   C38       1.0  0.54150  0.81740  0.72410  1.0000 -0.0516279617
C   C39       1.0  0.81740  0.09330  0.27590  1.0000 -0.0516279617
C   C40       1.0  0.81740  0.54150  0.72410  1.0000 -0.0516279617
C   C41       1.0  0.46630  0.32430  0.41600  1.0000 0.5875473248
C   C42       1.0  0.90830  0.05030  0.58400  1.0000 0.5875473248
C   C43       1.0  0.32430  0.90830  0.85800  1.0000 0.5875473248
C   C44       1.0  0.05030  0.46630  0.14200  1.0000 0.5875473248
C   C45       1.0  0.09170  0.67570  0.14200  1.0000 0.5875473248
C   C46       1.0  0.53370  0.94970  0.85800  1.0000 0.5875473248
C   C47       1.0  0.94970  0.09170  0.41600  1.0000 0.5875473248
C   C48       1.0  0.67570  0.53370  0.58400  1.0000 0.5875473248
C   C49       1.0  0.53370  0.67570  0.58400  1.0000 0.5875473248
C   C50       1.0  0.09170  0.94970  0.41600  1.0000 0.5875473248
C   C51       1.0  0.67570  0.09170  0.14200  1.0000 0.5875473248
C   C52       1.0  0.94970  0.53370  0.85800  1.0000 0.5875473248
C   C53       1.0  0.90830  0.32430  0.85800  1.0000 0.5875473248
C   C54       1.0  0.46630  0.05030  0.14200  1.0000 0.5875473248
C   C55       1.0  0.05030  0.90830  0.58400  1.0000 0.5875473248
C   C56       1.0  0.32430  0.46630  0.41600  1.0000 0.5875473248
I   I1        1.0  0.50000  0.87427  0.37427  1.0000 -0.4305542109
I   I2        1.0  0.50000  0.12573  0.62573  1.0000 -0.4305542109
I   I3        1.0  0.87427  0.50000  0.37427  1.0000 -0.4305542109
I   I4        1.0  0.12573  0.50000  0.62573  1.0000 -0.4305542109
N   N1        1.0  0.44130  0.07790  0.36340  1.0000 -0.1706853581
N   N2        1.0  0.71450  0.07790  0.63660  1.0000 -0.1706853581
N   N3        1.0  0.07790  0.71450  0.63660  1.0000 -0.1706853581
N   N4        1.0  0.07790  0.44130  0.36340  1.0000 -0.1706853581
N   N5        1.0  0.28550  0.92210  0.36340  1.0000 -0.1706853581
N   N6        1.0  0.55870  0.92210  0.63660  1.0000 -0.1706853581
N   N7        1.0  0.92210  0.28550  0.36340  1.0000 -0.1706853581
N   N8        1.0  0.92210  0.55870  0.63660  1.0000 -0.1706853581
O   O1        1.0  0.46881  0.36061  0.50060  1.0000 -0.5296216478
O   O2        1.0  0.86001  0.96821  0.49940  1.0000 -0.5296216478
O   O3        1.0  0.36061  0.86001  0.89180  1.0000 -0.5296216478
O   O4        1.0  0.96821  0.46881  0.10820  1.0000 -0.5296216478
O   O5        1.0  0.13999  0.63939  0.10820  1.0000 -0.5248875988
O   O6        1.0  0.53119  0.03179  0.89180  1.0000 -0.5296216478
O   O7        1.0  0.03179  0.13999  0.50060  1.0000 -0.5296216478
O   O8        1.0  0.63939  0.53119  0.49940  1.0000 -0.5296216478
O   O9        1.0  0.53119  0.63939  0.49940  1.0000 -0.5296216478
O   O10       1.0  0.13999  0.03179  0.50060  1.0000 -0.5296216478
O   O11       1.0  0.63939  0.13999  0.10820  1.0000 -0.5296216478
O   O12       1.0  0.03179  0.53119  0.89180  1.0000 -0.5296216478
O   O13       1.0  0.86001  0.36061  0.89180  1.0000 -0.5296216478
O   O14       1.0  0.46881  0.96821  0.10820  1.0000 -0.5296216478
O   O15       1.0  0.96821  0.86001  0.49940  1.0000 -0.5296216478
O   O16       1.0  0.36061  0.46881  0.50060  1.0000 -0.5296216478
O   O17       1.0  0.47515  0.36665  0.37190  1.0000 -0.5296216478
O   O18       1.0  0.99475  0.10325  0.62810  1.0000 -0.5296216478
O   O19       1.0  0.36665  0.99475  0.89150  1.0000 -0.5296216478
O   O20       1.0  0.10325  0.47515  0.10850  1.0000 -0.5296216478
O   O21       1.0  0.00525  0.63335  0.10850  1.0000 -0.5296216478
O   O22       1.0  0.52485  0.89675  0.89150  1.0000 -0.5296216478
O   O23       1.0  0.89675  0.00525  0.37190  1.0000 -0.5296216478
O   O24       1.0  0.63335  0.52485  0.62810  1.0000 -0.5296216478
O   O25       1.0  0.52485  0.63335  0.62810  1.0000 -0.5296216478
O   O26       1.0  0.00525  0.89675  0.37190  1.0000 -0.5296216478
O   O27       1.0  0.63335  0.00525  0.10850  1.0000 -0.5296216478
O   O28       1.0  0.89675  0.52485  0.89150  1.0000 -0.5296216478
O   O29       1.0  0.99475  0.36665  0.89150  1.0000 -0.5296216478
O   O30       1.0  0.47515  0.10325  0.10850  1.0000 -0.5296216478
O   O31       1.0  0.10325  0.99475  0.62810  1.0000 -0.5296216478
O   O32       1.0  0.36665  0.47515  0.37190  1.0000 -0.5296216478
