# DDEC6 charges by PACMAN v1.1 (https://github.com/mtap-research/PACMAN-charge/)
data_2016[Mg][nan]3[ASR]1
_chemical_formula_sum              "Mg4 H32 C52 N4 O20"
_cell_length_a       12.3649
_cell_length_b       12.3649
_cell_length_c       12.0258
_cell_angle_alpha    67.8207
_cell_angle_beta     112.179
_cell_angle_gamma    85.2772

_symmetry_space_group_name_H-M    "P 1"
_symmetry_Int_Tables_number       1

loop_
  _symmetry_equiv_pos_as_xyz
  'x, y, z'

loop_
  _atom_site_type_symbol
  _atom_site_label
  _atom_site_symmetry_multiplicity
  _atom_site_fract_x
  _atom_site_fract_y
  _atom_site_fract_z
  _atom_site_occupancy
  _atom_site_charge
Mg  Mg1       1.0  0.69792  0.69792  0.75000  1.0000 1.3536346084
Mg  Mg2       1.0  0.30208  0.30208  0.25000  1.0000 1.3536346084
Mg  Mg3       1.0  0.50000  0.00000  0.50000  1.0000 1.3536346084
Mg  Mg4       1.0  0.00000  0.50000  0.00000  1.0000 1.3536346084
H   H1        1.0  0.92830  0.09830  0.59500  1.0000 0.138934284
H   H2        1.0  0.09830  0.92830  0.90500  1.0000 0.138934284
H   H3        1.0  0.07170  0.90170  0.40500  1.0000 0.138934284
H   H4        1.0  0.90170  0.07170  0.09500  1.0000 0.138934284
H   H5        1.0  0.77260  0.03060  0.64500  1.0000 0.1291542055
H   H6        1.0  0.03060  0.77260  0.85500  1.0000 0.1291542055
H   H7        1.0  0.22740  0.96940  0.35500  1.0000 0.1291542055
H   H8        1.0  0.96940  0.22740  0.14500  1.0000 0.1291542055
H   H9        1.0  0.92900  0.85500  0.44100  1.0000 0.138934284
H   H10       1.0  0.85500  0.92900  0.05900  1.0000 0.138934284
H   H11       1.0  0.07100  0.14500  0.55900  1.0000 0.138934284
H   H12       1.0  0.14500  0.07100  0.94100  1.0000 0.138934284
H   H13       1.0  0.56900  0.66900  0.00900  1.0000 0.1291542055
H   H14       1.0  0.66900  0.56900  0.49100  1.0000 0.1291542055
H   H15       1.0  0.43100  0.33100  0.99100  1.0000 0.1291542055
H   H16       1.0  0.33100  0.43100  0.50900  1.0000 0.1291542055
H   H17       1.0  0.16600  0.72400  0.75700  1.0000 0.1129639014
H   H18       1.0  0.72400  0.16600  0.74300  1.0000 0.1129639014
H   H19       1.0  0.83400  0.27600  0.24300  1.0000 0.1129639014
H   H20       1.0  0.27600  0.83400  0.25700  1.0000 0.1129639014
H   H21       1.0  0.27400  0.84400  0.66000  1.0000 0.1005194201
H   H22       1.0  0.84400  0.27400  0.84000  1.0000 0.1005194201
H   H23       1.0  0.72600  0.15600  0.34000  1.0000 0.1005194201
H   H24       1.0  0.15600  0.72600  0.16000  1.0000 0.1005194201
H   H25       1.0  0.46200  0.54600  0.11400  1.0000 0.1291542055
H   H26       1.0  0.54600  0.46200  0.38600  1.0000 0.1291542055
H   H27       1.0  0.53800  0.45400  0.88600  1.0000 0.1291542055
H   H28       1.0  0.45400  0.53800  0.61400  1.0000 0.1291542055
H   H29       1.0  0.77300  0.79100  0.50600  1.0000 0.1515920735
H   H30       1.0  0.79100  0.77300  0.99400  1.0000 0.1515920735
H   H31       1.0  0.22700  0.20900  0.49400  1.0000 0.1515920735
H   H32       1.0  0.20900  0.22700  0.00600  1.0000 0.1515920735
C   C1        1.0  0.90182  0.03402  0.57630  1.0000 -0.1976373442
C   C2        1.0  0.03402  0.90182  0.92370  1.0000 -0.1976373442
C   C3        1.0  0.09818  0.96598  0.42370  1.0000 -0.1976373442
C   C4        1.0  0.96598  0.09818  0.07630  1.0000 -0.1976373442
C   C5        1.0  0.80980  0.99800  0.60560  1.0000 -0.0313201011
C   C6        1.0  0.99800  0.80980  0.89440  1.0000 -0.0313201011
C   C7        1.0  0.19020  0.00200  0.39440  1.0000 -0.0313201011
C   C8        1.0  0.00200  0.19020  0.10560  1.0000 -0.0313201011
C   C9        1.0  0.23470  0.54850  0.00380  1.0000 0.6191176898
C   C10       1.0  0.54850  0.23470  0.49620  1.0000 0.6191176898
C   C11       1.0  0.76530  0.45150  0.99620  1.0000 0.6191176898
C   C12       1.0  0.45150  0.76530  0.50380  1.0000 0.6191176898
C   C13       1.0  0.95068  0.98108  0.51660  1.0000 0.1005194201
C   C14       1.0  0.98108  0.95068  0.98340  1.0000 0.0947454251
C   C15       1.0  0.04932  0.01892  0.48340  1.0000 0.0947454251
C   C16       1.0  0.01892  0.04932  0.01660  1.0000 0.1005194201
C   C17       1.0  0.30212  0.62932  0.94430  1.0000 -0.0228825351
C   C18       1.0  0.62932  0.30212  0.55570  1.0000 -0.0228825351
C   C19       1.0  0.69788  0.37068  0.05570  1.0000 -0.0228825351
C   C20       1.0  0.37068  0.69788  0.44430  1.0000 -0.0228825351
C   C21       1.0  0.50836  0.83216  0.76700  1.0000 0.6274883277
C   C22       1.0  0.83216  0.50836  0.73300  1.0000 0.6274883277
C   C23       1.0  0.49164  0.16784  0.23300  1.0000 0.6274883277
C   C24       1.0  0.16784  0.49164  0.26700  1.0000 0.6274883277
C   C25       1.0  0.43468  0.76804  0.83260  1.0000 -0.0111883621
C   C26       1.0  0.76804  0.43468  0.66740  1.0000 -0.0111883621
C   C27       1.0  0.56532  0.23196  0.16740  1.0000 -0.0111883621
C   C28       1.0  0.23196  0.56532  0.33260  1.0000 -0.0111883621
C   C29       1.0  0.90238  0.89138  0.48930  1.0000 -0.1839996562
C   C30       1.0  0.89138  0.90238  0.01070  1.0000 -0.1839996562
C   C31       1.0  0.09762  0.10862  0.51070  1.0000 -0.1839996562
C   C32       1.0  0.10862  0.09762  0.98930  1.0000 -0.1839996562
C   C33       1.0  0.31291  0.78591  0.75800  1.0000 -0.1140419548
C   C34       1.0  0.78591  0.31291  0.74200  1.0000 -0.1140419548
C   C35       1.0  0.68709  0.21409  0.24200  1.0000 -0.1140419548
C   C36       1.0  0.21409  0.68709  0.25800  1.0000 -0.1140419548
C   C37       1.0  0.81092  0.85752  0.51990  1.0000 -0.0111883621
C   C38       1.0  0.85752  0.81092  0.98010  1.0000 -0.0111883621
C   C39       1.0  0.18908  0.14248  0.48010  1.0000 -0.0111883621
C   C40       1.0  0.14248  0.18908  0.01990  1.0000 -0.0111883621
C   C41       1.0  0.24767  0.71667  0.81270  1.0000 -0.122247579
C   C42       1.0  0.71667  0.24767  0.68730  1.0000 -0.122247579
C   C43       1.0  0.75233  0.28333  0.18730  1.0000 -0.122247579
C   C44       1.0  0.28333  0.75233  0.31270  1.0000 -0.122247579
C   C45       1.0  0.42349  0.61409  0.01990  1.0000 -0.102309695
C   C46       1.0  0.61409  0.42349  0.48010  1.0000 -0.102309695
C   C47       1.0  0.57651  0.38591  0.98010  1.0000 -0.102309695
C   C48       1.0  0.38591  0.57651  0.51990  1.0000 -0.102309695
C   C49       1.0  0.48934  0.68214  0.96440  1.0000 -0.0919145425
C   C50       1.0  0.68214  0.48934  0.53560  1.0000 -0.0919145425
C   C51       1.0  0.51066  0.31786  0.03560  1.0000 -0.0919145425
C   C52       1.0  0.31786  0.51066  0.46440  1.0000 -0.0919145425
N   N1        1.0  0.76757  0.91039  0.57870  1.0000 0.3276605732
N   N2        1.0  0.91039  0.76757  0.92130  1.0000 0.3276605732
N   N3        1.0  0.23243  0.08961  0.42130  1.0000 0.3276605732
N   N4        1.0  0.08961  0.23243  0.07870  1.0000 0.3276605732
O   O1        1.0  0.67880  0.87612  0.60974  1.0000 -0.6154817068
O   O2        1.0  0.87612  0.67880  0.89026  1.0000 -0.6154817068
O   O3        1.0  0.32120  0.12388  0.39026  1.0000 -0.6154817068
O   O4        1.0  0.12388  0.32120  0.10974  1.0000 -0.6154817068
O   O5        1.0  0.62087  0.78577  0.82670  1.0000 -0.6495811217
O   O6        1.0  0.78577  0.62087  0.67330  1.0000 -0.6495811217
O   O7        1.0  0.37913  0.21423  0.17330  1.0000 -0.6495811217
O   O8        1.0  0.21423  0.37913  0.32670  1.0000 -0.6495811217
O   O9        1.0  0.29581  0.46557  0.11990  1.0000 -0.630394625
O   O10       1.0  0.46557  0.29581  0.38010  1.0000 -0.630394625
O   O11       1.0  0.70419  0.53443  0.88010  1.0000 -0.630394625
O   O12       1.0  0.53443  0.70419  0.61990  1.0000 -0.630394625
O   O13       1.0  0.12238  0.56860  0.93351  1.0000 -0.6413579904
O   O14       1.0  0.56860  0.12238  0.56649  1.0000 -0.6413579904
O   O15       1.0  0.87762  0.43140  0.06649  1.0000 -0.6413579904
O   O16       1.0  0.43140  0.87762  0.43351  1.0000 -0.6413579904
O   O17       1.0  0.45324  0.92422  0.65568  1.0000 -0.630394625
O   O18       1.0  0.92422  0.45324  0.84432  1.0000 -0.630394625
O   O19       1.0  0.54676  0.07578  0.34432  1.0000 -0.630394625
O   O20       1.0  0.07578  0.54676  0.15568  1.0000 -0.630394625
