# DDEC6 charges by PACMAN v1.1 (https://github.com/mtap-research/PACMAN-charge/)
data_2016[Cd][nan]3[ASR]1
_chemical_formula_sum              "Cd4 H10 C18 N8 O12"
_cell_length_a       13.4183
_cell_length_b       13.4183
_cell_length_c       7.239
_cell_angle_alpha    87.9111
_cell_angle_beta     92.0889
_cell_angle_gamma    46.5671

_symmetry_space_group_name_H-M    "P 1"
_symmetry_Int_Tables_number       1

loop_
  _symmetry_equiv_pos_as_xyz
  'x, y, z'

loop_
  _atom_site_type_symbol
  _atom_site_label
  _atom_site_symmetry_multiplicity
  _atom_site_fract_x
  _atom_site_fract_y
  _atom_site_fract_z
  _atom_site_occupancy
  _atom_site_charge
Cd  Cd1       1.0  0.63848  0.63848  0.25000  1.0000 0.8728559534
Cd  Cd2       1.0  0.36152  0.36152  0.75000  1.0000 0.8728559534
Cd  Cd3       1.0  0.50000  0.50000  0.00000  1.0000 0.7201538304
Cd  Cd4       1.0  0.50000  0.50000  0.50000  1.0000 0.7201538304
H   H1        1.0  0.87400  0.87400  0.75000  1.0000 0.1075420151
H   H2        1.0  0.12600  0.12600  0.25000  1.0000 0.1075420151
H   H3        1.0  0.54550  0.92090  0.76210  1.0000 0.1154244612
H   H4        1.0  0.92090  0.54550  0.73790  1.0000 0.1154244612
H   H5        1.0  0.45450  0.07910  0.23790  1.0000 0.1154244612
H   H6        1.0  0.07910  0.45450  0.26210  1.0000 0.1154244612
H   H7        1.0  0.42460  0.67600  0.23220  1.0000 0.2671328703
H   H8        1.0  0.67600  0.42460  0.26780  1.0000 0.2671328703
H   H9        1.0  0.57540  0.32400  0.76780  1.0000 0.2671328703
H   H10       1.0  0.32400  0.57540  0.73220  1.0000 0.2671328703
C   C1        1.0  0.72350  0.72350  0.75000  1.0000 0.0035101655
C   C2        1.0  0.27650  0.27650  0.25000  1.0000 0.0035101655
C   C3        1.0  0.69560  0.92220  0.75690  1.0000 -0.0479191239
C   C4        1.0  0.92220  0.69560  0.74310  1.0000 -0.0479191239
C   C5        1.0  0.30440  0.07780  0.24310  1.0000 -0.0479191239
C   C6        1.0  0.07780  0.30440  0.25690  1.0000 -0.0479191239
C   C7        1.0  0.83630  0.83630  0.75000  1.0000 -0.1096394216
C   C8        1.0  0.16370  0.16370  0.25000  1.0000 -0.1096394216
C   C9        1.0  0.60280  0.07340  0.76440  1.0000 0.547615997
C   C10       1.0  0.07340  0.60280  0.73560  1.0000 0.547615997
C   C11       1.0  0.39720  0.92660  0.23560  1.0000 0.547615997
C   C12       1.0  0.92660  0.39720  0.26440  1.0000 0.547615997
C   C13       1.0  0.64000  0.86420  0.75710  1.0000 -0.1198269395
C   C14       1.0  0.86420  0.64000  0.74290  1.0000 -0.1198269395
C   C15       1.0  0.36000  0.13580  0.24290  1.0000 -0.1198269395
C   C16       1.0  0.13580  0.36000  0.25710  1.0000 -0.1198269395
C   C17       1.0  0.66360  0.66360  0.75000  1.0000 0.2951504807
C   C18       1.0  0.33640  0.33640  0.25000  1.0000 0.294893078
N   N1        1.0  0.63190  0.63470  0.90140  1.0000 -0.283523955
N   N2        1.0  0.63470  0.63190  0.59860  1.0000 -0.283523955
N   N3        1.0  0.36810  0.36530  0.09860  1.0000 -0.283523955
N   N4        1.0  0.36530  0.36810  0.40140  1.0000 -0.283523955
N   N5        1.0  0.58210  0.58050  0.83900  1.0000 -0.1260540043
N   N6        1.0  0.58050  0.58210  0.66100  1.0000 -0.1260540043
N   N7        1.0  0.41790  0.41950  0.16100  1.0000 -0.1260540043
N   N8        1.0  0.41950  0.41790  0.33900  1.0000 -0.1260540043
O   O1        1.0  0.47520  0.14320  0.76580  1.0000 -0.5481437375
O   O2        1.0  0.14320  0.47520  0.73420  1.0000 -0.5481437375
O   O3        1.0  0.52480  0.85680  0.23420  1.0000 -0.5481437375
O   O4        1.0  0.85680  0.52480  0.26580  1.0000 -0.5481437375
O   O5        1.0  0.64750  0.12810  0.76630  1.0000 -0.5681769481
O   O6        1.0  0.12810  0.64750  0.73370  1.0000 -0.5681769481
O   O7        1.0  0.35250  0.87190  0.23370  1.0000 -0.5681769481
O   O8        1.0  0.87190  0.35250  0.26630  1.0000 -0.5681769481
O   O9        1.0  0.50510  0.59550  0.24310  1.0000 -0.1812507813
O   O10       1.0  0.59550  0.50510  0.25690  1.0000 -0.1812507813
O   O11       1.0  0.49490  0.40450  0.75690  1.0000 -0.1812507813
O   O12       1.0  0.40450  0.49490  0.74310  1.0000 -0.1812507813
