# DDEC6 charges by PACMAN v1.1 (https://github.com/mtap-research/PACMAN-charge/)
data_2016[Zn][pcu]3[ASR]15
_chemical_formula_sum              "Zn3 H12 C20 N6 O8"
_cell_length_a       9.1743
_cell_length_b       10.8488
_cell_length_c       11.3458
_cell_angle_alpha    113.479
_cell_angle_beta     98.726
_cell_angle_gamma    98.016

_symmetry_space_group_name_H-M    "P 1"
_symmetry_Int_Tables_number       1

loop_
  _symmetry_equiv_pos_as_xyz
  'x, y, z'

loop_
  _atom_site_type_symbol
  _atom_site_label
  _atom_site_symmetry_multiplicity
  _atom_site_fract_x
  _atom_site_fract_y
  _atom_site_fract_z
  _atom_site_occupancy
  _atom_site_charge
Zn  Zn1       1.0  0.50000  0.50000  0.50000  1.0000 0.8740803734
Zn  Zn2       1.0  0.81965  0.38671  0.38601  1.0000 0.7335718409
Zn  Zn3       1.0  0.18035  0.61329  0.61399  1.0000 0.7335718409
H   H1        1.0  0.40740  0.60600  0.18560  1.0000 0.1270353482
H   H2        1.0  0.59260  0.39400  0.81440  1.0000 0.1270353482
H   H3        1.0  0.67920  0.37010  0.00310  1.0000 0.1211900101
H   H4        1.0  0.32080  0.62990  0.99690  1.0000 0.1211900101
H   H5        1.0  0.72060  0.99400  0.42350  1.0000 0.1211900101
H   H6        1.0  0.27940  0.00600  0.57650  1.0000 0.1211900101
H   H7        1.0  0.00020  0.78730  0.82610  1.0000 0.13736908
H   H8        1.0  0.99980  0.21270  0.17390  1.0000 0.13736908
H   H9        1.0  0.37910  0.17890  0.52170  1.0000 0.1270353482
H   H10       1.0  0.62090  0.82110  0.47830  1.0000 0.1270353482
H   H11       1.0  0.72610  0.74390  0.78440  1.0000 0.1454963595
H   H12       1.0  0.27390  0.25610  0.21560  1.0000 0.1454963595
C   C1        1.0  0.44450  0.56350  0.11100  1.0000 -0.1070882692
C   C2        1.0  0.55550  0.43650  0.88900  1.0000 -0.1070882692
C   C3        1.0  0.62110  0.21670  0.43260  1.0000 0.5874419943
C   C4        1.0  0.37890  0.78330  0.56740  1.0000 0.5874419943
C   C5        1.0  0.60780  0.47080  0.23860  1.0000 0.584819986
C   C6        1.0  0.39220  0.52920  0.76140  1.0000 0.584819986
C   C7        1.0  0.60720  0.42230  0.00170  1.0000 -0.1019801673
C   C8        1.0  0.39280  0.57770  0.99830  1.0000 -0.1019801673
C   C9        1.0  0.55770  0.10470  0.46730  1.0000 -0.0271472605
C   C10       1.0  0.44230  0.89530  0.53270  1.0000 -0.0271472605
C   C11       1.0  0.55300  0.48550  0.11440  1.0000 -0.0271472605
C   C12       1.0  0.44700  0.51450  0.88560  1.0000 -0.0271472605
C   C13       1.0  0.63210  0.99630  0.45410  1.0000 -0.1019801673
C   C14       1.0  0.36790  0.00370  0.54590  1.0000 -0.1019801673
C   C15       1.0  0.93330  0.71970  0.75040  1.0000 -0.048478832
C   C16       1.0  0.06670  0.28030  0.24960  1.0000 -0.048478832
C   C17       1.0  0.42780  0.10710  0.51280  1.0000 -0.1019801673
C   C18       1.0  0.57220  0.89290  0.48720  1.0000 -0.1019801673
C   C19       1.0  0.78230  0.69600  0.72720  1.0000 -0.048478832
C   C20       1.0  0.21770  0.30400  0.27280  1.0000 -0.048478832
N   N1        1.0  0.97140  0.62890  0.64510  1.0000 -0.1760879769
N   N2        1.0  0.02860  0.37110  0.35490  1.0000 -0.1760879769
N   N3        1.0  0.72570  0.59070  0.60700  1.0000 -0.1446615174
N   N4        1.0  0.27430  0.40930  0.39300  1.0000 -0.1446615174
N   N5        1.0  0.84250  0.55130  0.55870  1.0000 -0.0588977425
N   N6        1.0  0.15750  0.44870  0.44130  1.0000 -0.0588977425
O   O1        1.0  0.75010  0.21810  0.40570  1.0000 -0.5151763423
O   O2        1.0  0.24990  0.78190  0.59430  1.0000 -0.5151763423
O   O3        1.0  0.71540  0.40610  0.23620  1.0000 -0.5368053182
O   O4        1.0  0.28460  0.59390  0.76380  1.0000 -0.5368053182
O   O5        1.0  0.55040  0.52270  0.33380  1.0000 -0.5565219685
O   O6        1.0  0.44960  0.47730  0.66620  1.0000 -0.5565219685
O   O7        1.0  0.54480  0.30280  0.42980  1.0000 -0.5697583421
O   O8        1.0  0.45520  0.69720  0.57020  1.0000 -0.5697583421
