# DDEC6 charges by PACMAN v1.1 (https://github.com/mtap-research/PACMAN-charge/)
data_2016[Zn][idp]3[ASR]1
_chemical_formula_sum              "Zn18 H36 C108 O76"
_cell_length_a       20.2508
_cell_length_b       20.2508
_cell_length_c       20.2508
_cell_angle_alpha    109.471
_cell_angle_beta     109.471
_cell_angle_gamma    109.471

_symmetry_space_group_name_H-M    "P 1"
_symmetry_Int_Tables_number       1

loop_
  _symmetry_equiv_pos_as_xyz
  'x, y, z'

loop_
  _atom_site_type_symbol
  _atom_site_label
  _atom_site_symmetry_multiplicity
  _atom_site_fract_x
  _atom_site_fract_y
  _atom_site_fract_z
  _atom_site_occupancy
  _atom_site_charge
Zn  Zn1       1.0  0.93624  0.43624  0.50000  1.0000 0.9518034324
Zn  Zn2       1.0  0.50000  0.93624  0.43624  1.0000 0.9518034324
Zn  Zn3       1.0  0.43624  0.50000  0.93624  1.0000 0.9518034324
Zn  Zn4       1.0  0.56376  0.50000  0.06376  1.0000 0.9518034324
Zn  Zn5       1.0  0.50000  0.06376  0.56376  1.0000 0.9518034324
Zn  Zn6       1.0  0.06376  0.56376  0.50000  1.0000 0.9518034324
Zn  Zn7       1.0  0.94412  0.52776  0.05808  1.0000 1.0014924769
Zn  Zn8       1.0  0.05808  0.94412  0.52776  1.0000 1.0014924769
Zn  Zn9       1.0  0.52776  0.05808  0.94412  1.0000 1.0014924769
Zn  Zn10      1.0  0.11396  0.58364  0.05588  1.0000 1.0014924769
Zn  Zn11      1.0  0.94192  0.46968  0.88604  1.0000 1.0014924769
Zn  Zn12      1.0  0.88604  0.94192  0.46968  1.0000 1.0014924769
Zn  Zn13      1.0  0.41636  0.53032  0.47224  1.0000 1.0014924769
Zn  Zn14      1.0  0.58364  0.05588  0.11396  1.0000 1.0014924769
Zn  Zn15      1.0  0.47224  0.41636  0.53032  1.0000 1.0014924769
Zn  Zn16      1.0  0.46968  0.88604  0.94192  1.0000 1.0014924769
Zn  Zn17      1.0  0.05588  0.11396  0.58364  1.0000 1.0014924769
Zn  Zn18      1.0  0.53032  0.47224  0.41636  1.0000 1.0014924769
H   H1        1.0  0.78780  0.27700  0.24280  1.0000 0.1380640271
H   H2        1.0  0.24280  0.78780  0.27700  1.0000 0.1380640271
H   H3        1.0  0.27700  0.24280  0.78780  1.0000 0.1380640271
H   H4        1.0  0.45500  0.48920  0.21220  1.0000 0.1380640271
H   H5        1.0  0.75720  0.03420  0.54500  1.0000 0.1380640271
H   H6        1.0  0.54500  0.75720  0.03420  1.0000 0.1380640271
H   H7        1.0  0.51080  0.96580  0.72300  1.0000 0.1380640271
H   H8        1.0  0.48920  0.21220  0.45500  1.0000 0.1380640271
H   H9        1.0  0.72300  0.51080  0.96580  1.0000 0.1380640271
H   H10       1.0  0.03420  0.54500  0.75720  1.0000 0.1380640271
H   H11       1.0  0.21220  0.45500  0.48920  1.0000 0.1380640271
H   H12       1.0  0.96580  0.72300  0.51080  1.0000 0.1380640271
H   H13       1.0  0.94120  0.46410  0.23870  1.0000 0.132542839
H   H14       1.0  0.23870  0.94120  0.46410  1.0000 0.132542839
H   H15       1.0  0.46410  0.23870  0.94120  1.0000 0.1380640271
H   H16       1.0  0.29750  0.52290  0.05880  1.0000 0.132542839
H   H17       1.0  0.76130  0.22540  0.70250  1.0000 0.132542839
H   H18       1.0  0.70250  0.76130  0.22540  1.0000 0.132542839
H   H19       1.0  0.47710  0.77460  0.53590  1.0000 0.132542839
H   H20       1.0  0.52290  0.05880  0.29750  1.0000 0.132542839
H   H21       1.0  0.53590  0.47710  0.77460  1.0000 0.132542839
H   H22       1.0  0.22540  0.70250  0.76130  1.0000 0.132542839
H   H23       1.0  0.05880  0.29750  0.52290  1.0000 0.132542839
H   H24       1.0  0.77460  0.53590  0.47710  1.0000 0.132542839
H   H25       1.0  0.75540  0.25900  0.02700  1.0000 0.132542839
H   H26       1.0  0.02700  0.75540  0.25900  1.0000 0.132542839
H   H27       1.0  0.25900  0.02700  0.75540  1.0000 0.132542839
H   H28       1.0  0.27160  0.50360  0.24460  1.0000 0.132542839
H   H29       1.0  0.97300  0.23200  0.72840  1.0000 0.132542839
H   H30       1.0  0.72840  0.97300  0.23200  1.0000 0.132542839
H   H31       1.0  0.49640  0.76800  0.74100  1.0000 0.132542839
H   H32       1.0  0.50360  0.24460  0.27160  1.0000 0.132542839
H   H33       1.0  0.74100  0.49640  0.76800  1.0000 0.132542839
H   H34       1.0  0.23200  0.72840  0.97300  1.0000 0.132542839
H   H35       1.0  0.24460  0.27160  0.50360  1.0000 0.132542839
H   H36       1.0  0.76800  0.74100  0.49640  1.0000 0.132542839
C   C1        1.0  0.87420  0.37580  0.25560  1.0000 -0.0507128756
C   C2        1.0  0.25560  0.87420  0.37580  1.0000 -0.0507128756
C   C3        1.0  0.37580  0.25560  0.87420  1.0000 -0.0507128756
C   C4        1.0  0.38140  0.50160  0.12580  1.0000 -0.0507128756
C   C5        1.0  0.74440  0.12020  0.61860  1.0000 -0.0507128756
C   C6        1.0  0.61860  0.74440  0.12020  1.0000 -0.0507128756
C   C7        1.0  0.49840  0.87980  0.62420  1.0000 -0.0507128756
C   C8        1.0  0.50160  0.12580  0.38140  1.0000 -0.0507128756
C   C9        1.0  0.62420  0.49840  0.87980  1.0000 -0.0507128756
C   C10       1.0  0.12020  0.61860  0.74440  1.0000 -0.0507128756
C   C11       1.0  0.12580  0.38140  0.50160  1.0000 -0.0507128756
C   C12       1.0  0.87980  0.62420  0.49840  1.0000 -0.0507128756
C   C13       1.0  0.80590  0.29960  0.21370  1.0000 -0.0815513851
C   C14       1.0  0.21370  0.80590  0.29960  1.0000 -0.0815513851
C   C15       1.0  0.29960  0.21370  0.80590  1.0000 -0.0815513851
C   C16       1.0  0.40780  0.49370  0.19410  1.0000 -0.0815513851
C   C17       1.0  0.78630  0.08590  0.59220  1.0000 -0.0815513851
C   C18       1.0  0.59220  0.78630  0.08590  1.0000 -0.0815513851
C   C19       1.0  0.50630  0.91410  0.70040  1.0000 -0.0815513851
C   C20       1.0  0.49370  0.19410  0.40780  1.0000 -0.0815513851
C   C21       1.0  0.70040  0.50630  0.91410  1.0000 -0.0815513851
C   C22       1.0  0.08590  0.59220  0.78630  1.0000 -0.0815513851
C   C23       1.0  0.19410  0.40780  0.49370  1.0000 -0.0815513851
C   C24       1.0  0.91410  0.70040  0.50630  1.0000 -0.0815513851
C   C25       1.0  0.92220  0.42140  0.34340  1.0000 0.5909501477
C   C26       1.0  0.34340  0.92220  0.42140  1.0000 0.5909501477
C   C27       1.0  0.42140  0.34340  0.92220  1.0000 0.5909501477
C   C28       1.0  0.42120  0.49920  0.07780  1.0000 0.5909501477
C   C29       1.0  0.65660  0.07800  0.57880  1.0000 0.5909501477
C   C30       1.0  0.57880  0.65660  0.07800  1.0000 0.5909501477
C   C31       1.0  0.50080  0.92200  0.57860  1.0000 0.5909501477
C   C32       1.0  0.49920  0.07780  0.42120  1.0000 0.5909501477
C   C33       1.0  0.57860  0.50080  0.92200  1.0000 0.5909501477
C   C34       1.0  0.07800  0.57880  0.65660  1.0000 0.5909501477
C   C35       1.0  0.07780  0.42120  0.49920  1.0000 0.5909501477
C   C36       1.0  0.92200  0.57860  0.50080  1.0000 0.5909501477
C   C37       1.0  0.89620  0.41120  0.21140  1.0000 -0.0815513851
C   C38       1.0  0.21140  0.89620  0.41120  1.0000 -0.0815513851
C   C39       1.0  0.41120  0.21140  0.89620  1.0000 -0.0815513851
C   C40       1.0  0.31520  0.51500  0.10380  1.0000 -0.0815513851
C   C41       1.0  0.78860  0.19980  0.68480  1.0000 -0.0815513851
C   C42       1.0  0.68480  0.78860  0.19980  1.0000 -0.0815513851
C   C43       1.0  0.48500  0.80020  0.58880  1.0000 -0.0815513851
C   C44       1.0  0.51500  0.10380  0.31520  1.0000 -0.0815513851
C   C45       1.0  0.58880  0.48500  0.80020  1.0000 -0.0815513851
C   C46       1.0  0.19980  0.68480  0.78860  1.0000 -0.0815513851
C   C47       1.0  0.10380  0.31520  0.51500  1.0000 -0.0815513851
C   C48       1.0  0.80020  0.58880  0.48500  1.0000 -0.0815513851
C   C49       1.0  0.84970  0.36630  0.12520  1.0000 -0.0287981901
C   C50       1.0  0.12520  0.84970  0.36630  1.0000 -0.0287981901
C   C51       1.0  0.36630  0.12520  0.84970  1.0000 -0.0287981901
C   C52       1.0  0.27550  0.51660  0.15030  1.0000 -0.0287981901
C   C53       1.0  0.87480  0.24110  0.72450  1.0000 -0.0287981901
C   C54       1.0  0.72450  0.87480  0.24110  1.0000 -0.0287981901
C   C55       1.0  0.48340  0.75890  0.63370  1.0000 -0.0287981901
C   C56       1.0  0.51660  0.15030  0.27550  1.0000 -0.0287981901
C   C57       1.0  0.63370  0.48340  0.75890  1.0000 -0.0287981901
C   C58       1.0  0.24110  0.72450  0.87480  1.0000 -0.0287981901
C   C59       1.0  0.15030  0.27550  0.51660  1.0000 -0.0287981901
C   C60       1.0  0.75890  0.63370  0.48340  1.0000 -0.0287981901
C   C61       1.0  0.78510  0.28910  0.08440  1.0000 -0.0815513851
C   C62       1.0  0.08440  0.78510  0.28910  1.0000 -0.0815513851
C   C63       1.0  0.28910  0.08440  0.78510  1.0000 -0.0855775312
C   C64       1.0  0.29930  0.50400  0.21490  1.0000 -0.0855775312
C   C65       1.0  0.91560  0.20470  0.70070  1.0000 -0.0855775312
C   C66       1.0  0.70070  0.91560  0.20470  1.0000 -0.0815513851
C   C67       1.0  0.49600  0.79530  0.71090  1.0000 -0.0815513851
C   C68       1.0  0.50400  0.21490  0.29930  1.0000 -0.0815513851
C   C69       1.0  0.71090  0.49600  0.79530  1.0000 -0.0815513851
C   C70       1.0  0.20470  0.70070  0.91560  1.0000 -0.0815513851
C   C71       1.0  0.21490  0.29930  0.50400  1.0000 -0.0815513851
C   C72       1.0  0.79530  0.71090  0.49600  1.0000 -0.0815513851
C   C73       1.0  0.76440  0.25640  0.13020  1.0000 -0.006839004
C   C74       1.0  0.13020  0.76440  0.25640  1.0000 -0.006839004
C   C75       1.0  0.25640  0.13020  0.76440  1.0000 -0.006839004
C   C76       1.0  0.36580  0.49200  0.23560  1.0000 -0.0046856247
C   C77       1.0  0.86980  0.12620  0.63420  1.0000 -0.006839004
C   C78       1.0  0.63420  0.86980  0.12620  1.0000 -0.006839004
C   C79       1.0  0.50800  0.87380  0.74360  1.0000 -0.006839004
C   C80       1.0  0.49200  0.23560  0.36580  1.0000 -0.006839004
C   C81       1.0  0.74360  0.50800  0.87380  1.0000 -0.006839004
C   C82       1.0  0.12620  0.63420  0.86980  1.0000 -0.006839004
C   C83       1.0  0.23560  0.36580  0.49200  1.0000 -0.006839004
C   C84       1.0  0.87380  0.74360  0.50800  1.0000 -0.006839004
C   C85       1.0  0.87920  0.40360  0.08180  1.0000 0.5539633596
C   C86       1.0  0.08180  0.87920  0.40360  1.0000 0.5561937058
C   C87       1.0  0.40360  0.08180  0.87920  1.0000 0.5539633596
C   C88       1.0  0.20260  0.52440  0.12080  1.0000 0.5539633596
C   C89       1.0  0.91820  0.32180  0.79740  1.0000 0.5539633596
C   C90       1.0  0.79740  0.91820  0.32180  1.0000 0.5561937058
C   C91       1.0  0.47560  0.67820  0.59640  1.0000 0.5539633596
C   C92       1.0  0.52440  0.12080  0.20260  1.0000 0.5561937058
C   C93       1.0  0.59640  0.47560  0.67820  1.0000 0.5561937058
C   C94       1.0  0.32180  0.79740  0.91820  1.0000 0.5561937058
C   C95       1.0  0.12080  0.20260  0.52440  1.0000 0.5561937058
C   C96       1.0  0.67820  0.59640  0.47560  1.0000 0.5539633596
C   C97       1.0  0.68790  0.17490  0.09000  1.0000 0.6010600194
C   C98       1.0  0.09000  0.68790  0.17490  1.0000 0.6010600194
C   C99       1.0  0.17490  0.09000  0.68790  1.0000 0.6010600194
C   C100      1.0  0.40210  0.48700  0.31210  1.0000 0.6010600194
C   C101      1.0  0.91000  0.08490  0.59790  1.0000 0.6010600194
C   C102      1.0  0.59790  0.91000  0.08490  1.0000 0.6010600194
C   C103      1.0  0.51300  0.91510  0.82510  1.0000 0.6010600194
C   C104      1.0  0.48700  0.31210  0.40210  1.0000 0.6010600194
C   C105      1.0  0.82510  0.51300  0.91510  1.0000 0.6010600194
C   C106      1.0  0.08490  0.59790  0.91000  1.0000 0.6010600194
C   C107      1.0  0.31210  0.40210  0.48700  1.0000 0.6010600194
C   C108      1.0  0.91510  0.82510  0.51300  1.0000 0.6010600194
O   O1        1.0  0.89720  0.39080  0.38180  1.0000 -0.5359353694
O   O2        1.0  0.38180  0.89720  0.39080  1.0000 -0.5359353694
O   O3        1.0  0.39080  0.38180  0.89720  1.0000 -0.5359353694
O   O4        1.0  0.48460  0.49360  0.10280  1.0000 -0.527081436
O   O5        1.0  0.61820  0.00900  0.51540  1.0000 -0.5359353694
O   O6        1.0  0.51540  0.61820  0.00900  1.0000 -0.5359353694
O   O7        1.0  0.50640  0.99100  0.60920  1.0000 -0.5359353694
O   O8        1.0  0.49360  0.10280  0.48460  1.0000 -0.5359353694
O   O9        1.0  0.60920  0.50640  0.99100  1.0000 -0.5359353694
O   O10       1.0  0.00900  0.51540  0.61820  1.0000 -0.5359353694
O   O11       1.0  0.10280  0.48460  0.49360  1.0000 -0.5359353694
O   O12       1.0  0.99100  0.60920  0.50640  1.0000 -0.5359353694
O   O13       1.0  0.98170  0.49140  0.37790  1.0000 -0.5090312646
O   O14       1.0  0.37790  0.98170  0.49140  1.0000 -0.5090312646
O   O15       1.0  0.49140  0.37790  0.98170  1.0000 -0.5090312646
O   O16       1.0  0.39620  0.50970  0.01830  1.0000 -0.5090312646
O   O17       1.0  0.62210  0.11350  0.60380  1.0000 -0.5090312646
O   O18       1.0  0.60380  0.62210  0.11350  1.0000 -0.5090312646
O   O19       1.0  0.49030  0.88650  0.50860  1.0000 -0.5090312646
O   O20       1.0  0.50970  0.01830  0.39620  1.0000 -0.5090312646
O   O21       1.0  0.50860  0.49030  0.88650  1.0000 -0.5090312646
O   O22       1.0  0.11350  0.60380  0.62210  1.0000 -0.5090312646
O   O23       1.0  0.01830  0.39620  0.50970  1.0000 -0.5090312646
O   O24       1.0  0.88650  0.50860  0.49030  1.0000 -0.5090312646
O   O25       1.0  0.92820  0.47640  0.11900  1.0000 -0.4594407589
O   O26       1.0  0.11900  0.92820  0.47640  1.0000 -0.4594407589
O   O27       1.0  0.47640  0.11900  0.92820  1.0000 -0.4594407589
O   O28       1.0  0.19080  0.54820  0.07180  1.0000 -0.4594407589
O   O29       1.0  0.88100  0.35740  0.80920  1.0000 -0.4594407589
O   O30       1.0  0.80920  0.88100  0.35740  1.0000 -0.4594407589
O   O31       1.0  0.45180  0.64260  0.52360  1.0000 -0.4594407589
O   O32       1.0  0.54820  0.07180  0.19080  1.0000 -0.4594407589
O   O33       1.0  0.52360  0.45180  0.64260  1.0000 -0.4594407589
O   O34       1.0  0.35740  0.80920  0.88100  1.0000 -0.4594407589
O   O35       1.0  0.07180  0.19080  0.54820  1.0000 -0.4594407589
O   O36       1.0  0.64260  0.52360  0.45180  1.0000 -0.4594407589
O   O37       1.0  0.67330  0.14770  0.13480  1.0000 -0.527081436
O   O38       1.0  0.13480  0.67330  0.14770  1.0000 -0.5243177609
O   O39       1.0  0.14770  0.13480  0.67330  1.0000 -0.527081436
O   O40       1.0  0.46150  0.47440  0.32670  1.0000 -0.5243177609
O   O41       1.0  0.86520  0.01290  0.53850  1.0000 -0.527081436
O   O42       1.0  0.53850  0.86520  0.01290  1.0000 -0.527081436
O   O43       1.0  0.52560  0.98710  0.85230  1.0000 -0.5243177609
O   O44       1.0  0.47440  0.32670  0.46150  1.0000 -0.5243177609
O   O45       1.0  0.85230  0.52560  0.98710  1.0000 -0.527081436
O   O46       1.0  0.01290  0.53850  0.86520  1.0000 -0.527081436
O   O47       1.0  0.32670  0.46150  0.47440  1.0000 -0.5243177609
O   O48       1.0  0.98710  0.85230  0.52560  1.0000 -0.527081436
O   O49       1.0  0.64370  0.14350  0.01540  1.0000 -0.4973321066
O   O50       1.0  0.01540  0.64370  0.14350  1.0000 -0.4973321066
O   O51       1.0  0.14350  0.01540  0.64370  1.0000 -0.4973321066
O   O52       1.0  0.37170  0.49980  0.35630  1.0000 -0.4973321066
O   O53       1.0  0.98460  0.12810  0.62830  1.0000 -0.4943610862
O   O54       1.0  0.62830  0.98460  0.12810  1.0000 -0.4973321066
O   O55       1.0  0.50020  0.87190  0.85650  1.0000 -0.4973321066
O   O56       1.0  0.49980  0.35630  0.37170  1.0000 -0.4973321066
O   O57       1.0  0.85650  0.50020  0.87190  1.0000 -0.4943610862
O   O58       1.0  0.12810  0.62830  0.98460  1.0000 -0.4973321066
O   O59       1.0  0.35630  0.37170  0.49980  1.0000 -0.4973321066
O   O60       1.0  0.87190  0.85650  0.50020  1.0000 -0.4973321066
O   O61       1.0  0.83510  0.36790  0.00420  1.0000 -0.4488140802
O   O62       1.0  0.00420  0.83510  0.36790  1.0000 -0.4488140802
O   O63       1.0  0.36790  0.00420  0.83510  1.0000 -0.4488140802
O   O64       1.0  0.16910  0.53280  0.16490  1.0000 -0.4488140802
O   O65       1.0  0.99580  0.36370  0.83090  1.0000 -0.4488140802
O   O66       1.0  0.83090  0.99580  0.36370  1.0000 -0.4488140802
O   O67       1.0  0.46720  0.63630  0.63210  1.0000 -0.4488140802
O   O68       1.0  0.53280  0.16490  0.16910  1.0000 -0.4488140802
O   O69       1.0  0.63210  0.46720  0.63630  1.0000 -0.4488140802
O   O70       1.0  0.36370  0.83090  0.99580  1.0000 -0.4488140802
O   O71       1.0  0.16490  0.16910  0.53280  1.0000 -0.4488140802
O   O72       1.0  0.63630  0.63210  0.46720  1.0000 -0.4488140802
O   O73       1.0  0.00000  0.49980  0.00000  1.0000 -0.9630326913
O   O74       1.0  0.00000  0.00000  0.49980  1.0000 -0.9630326913
O   O75       1.0  0.49980  0.00000  0.00000  1.0000 -0.9630326913
O   O76       1.0  0.50020  0.50020  0.50020  1.0000 -0.9630326913
