# DDEC6 charges by PACMAN v1.1 (https://github.com/mtap-research/PACMAN-charge/)
data_2016[Tb][nan]3[ASR]8
_chemical_formula_sum              "Tb4 H36 C76 O24"
_cell_length_a       16.1244
_cell_length_b       16.1244
_cell_length_c       13.7414
_cell_angle_alpha    82.2524
_cell_angle_beta     97.7476
_cell_angle_gamma    126.943

_symmetry_space_group_name_H-M    "P 1"
_symmetry_Int_Tables_number       1

loop_
  _symmetry_equiv_pos_as_xyz
  'x, y, z'

loop_
  _atom_site_type_symbol
  _atom_site_label
  _atom_site_symmetry_multiplicity
  _atom_site_fract_x
  _atom_site_fract_y
  _atom_site_fract_z
  _atom_site_occupancy
  _atom_site_charge
Tb  Tb1       1.0  0.38963  0.02379  0.46312  1.0000 2.061154927
Tb  Tb2       1.0  0.02379  0.38963  0.03688  1.0000 2.061154927
Tb  Tb3       1.0  0.61037  0.97621  0.53688  1.0000 2.061154927
Tb  Tb4       1.0  0.97621  0.61037  0.96312  1.0000 2.061154927
H   H1        1.0  0.20250  0.73450  0.71700  1.0000 0.1313585442
H   H2        1.0  0.73450  0.20250  0.78300  1.0000 0.1313585442
H   H3        1.0  0.79750  0.26550  0.28300  1.0000 0.1313585442
H   H4        1.0  0.26550  0.79750  0.21700  1.0000 0.1313585442
H   H5        1.0  0.39050  0.70330  0.58770  1.0000 0.1313585442
H   H6        1.0  0.70330  0.39050  0.91230  1.0000 0.1313585442
H   H7        1.0  0.60950  0.29670  0.41230  1.0000 0.1313585442
H   H8        1.0  0.29670  0.60950  0.08770  1.0000 0.1313585442
H   H9        1.0  0.19820  0.48260  0.78700  1.0000 0.1186742761
H   H10       1.0  0.48260  0.19820  0.71300  1.0000 0.1186742761
H   H11       1.0  0.80180  0.51740  0.21300  1.0000 0.1186742761
H   H12       1.0  0.51740  0.80180  0.28700  1.0000 0.1186742761
H   H13       1.0  0.48140  0.62980  0.63990  1.0000 0.1186742761
H   H14       1.0  0.62980  0.48140  0.86010  1.0000 0.1186742761
H   H15       1.0  0.51860  0.37020  0.36010  1.0000 0.1186742761
H   H16       1.0  0.37020  0.51860  0.13990  1.0000 0.1186742761
H   H17       1.0  0.52500  0.52720  0.60280  1.0000 0.1186742761
H   H18       1.0  0.52720  0.52500  0.89720  1.0000 0.1186742761
H   H19       1.0  0.47500  0.47280  0.39720  1.0000 0.1186742761
H   H20       1.0  0.47280  0.47500  0.10280  1.0000 0.1186742761
H   H21       1.0  0.47100  0.35400  0.55960  1.0000 0.1186742761
H   H22       1.0  0.35400  0.47100  0.94040  1.0000 0.1186742761
H   H23       1.0  0.52900  0.64600  0.44040  1.0000 0.1186742761
H   H24       1.0  0.64600  0.52900  0.05960  1.0000 0.1186742761
H   H25       1.0  0.17530  0.10490  0.58780  1.0000 0.1186742761
H   H26       1.0  0.10490  0.17530  0.91220  1.0000 0.1186742761
H   H27       1.0  0.82470  0.89510  0.41220  1.0000 0.1186742761
H   H28       1.0  0.89510  0.82470  0.08780  1.0000 0.1186742761
H   H29       1.0  0.13590  0.20490  0.64290  1.0000 0.1186742761
H   H30       1.0  0.20490  0.13590  0.85710  1.0000 0.1186742761
H   H31       1.0  0.86410  0.79510  0.35710  1.0000 0.1186742761
H   H32       1.0  0.79510  0.86410  0.14290  1.0000 0.1186742761
H   H33       1.0  0.19000  0.37900  0.67790  1.0000 0.1186742761
H   H34       1.0  0.37900  0.19000  0.82210  1.0000 0.1186742761
H   H35       1.0  0.81000  0.62100  0.32210  1.0000 0.1186742761
H   H36       1.0  0.62100  0.81000  0.17790  1.0000 0.1186742761
C   C1        1.0  0.18890  0.60270  0.76390  1.0000 -0.0178388394
C   C2        1.0  0.60270  0.18890  0.73610  1.0000 -0.0178388394
C   C3        1.0  0.81110  0.39730  0.23610  1.0000 -0.0178388394
C   C4        1.0  0.39730  0.81110  0.26390  1.0000 -0.0178388394
C   C5        1.0  0.22750  0.69670  0.70960  1.0000 -0.1000243268
C   C6        1.0  0.69670  0.22750  0.79040  1.0000 -0.1000243268
C   C7        1.0  0.77250  0.30330  0.29040  1.0000 -0.1000243268
C   C8        1.0  0.30330  0.77250  0.20960  1.0000 -0.1000243268
C   C9        1.0  0.30313  0.73427  0.64450  1.0000 -0.0178388394
C   C10       1.0  0.73427  0.30313  0.85550  1.0000 -0.0178388394
C   C11       1.0  0.69687  0.26573  0.35550  1.0000 -0.0178388394
C   C12       1.0  0.26573  0.69687  0.14450  1.0000 -0.0178388394
C   C13       1.0  0.33929  0.67711  0.63140  1.0000 -0.1494152324
C   C14       1.0  0.67711  0.33929  0.86860  1.0000 -0.1494152324
C   C15       1.0  0.66071  0.32289  0.36860  1.0000 -0.1494152324
C   C16       1.0  0.32289  0.66071  0.13140  1.0000 -0.1494152324
C   C17       1.0  0.29947  0.58053  0.68330  1.0000 0.0599340823
C   C18       1.0  0.58053  0.29947  0.81670  1.0000 0.0599340823
C   C19       1.0  0.70053  0.41947  0.31670  1.0000 0.0599340823
C   C20       1.0  0.41947  0.70053  0.18330  1.0000 0.0599340823
C   C21       1.0  0.22457  0.54563  0.75050  1.0000 -0.1494152324
C   C22       1.0  0.54563  0.22457  0.74950  1.0000 -0.1494152324
C   C23       1.0  0.77543  0.45437  0.24950  1.0000 -0.1494152324
C   C24       1.0  0.45437  0.77543  0.25050  1.0000 -0.1494152324
C   C25       1.0  0.11002  0.56238  0.83960  1.0000 0.6488841128
C   C26       1.0  0.56238  0.11002  0.66040  1.0000 0.6488841128
C   C27       1.0  0.88998  0.43762  0.16040  1.0000 0.6488841128
C   C28       1.0  0.43762  0.88998  0.33960  1.0000 0.6488841128
C   C29       1.0  0.34461  0.83619  0.58630  1.0000 0.6310491216
C   C30       1.0  0.83619  0.34461  0.91370  1.0000 0.6310491216
C   C31       1.0  0.65539  0.16381  0.41370  1.0000 0.6310491216
C   C32       1.0  0.16381  0.65539  0.08630  1.0000 0.6310491216
C   C33       1.0  0.32912  0.51448  0.66190  1.0000 0.0730413858
C   C34       1.0  0.51448  0.32912  0.83810  1.0000 0.0730413858
C   C35       1.0  0.67088  0.48552  0.33810  1.0000 0.0730413858
C   C36       1.0  0.48552  0.67088  0.16190  1.0000 0.0730413858
C   C37       1.0  0.43105  0.55835  0.63890  1.0000 -0.1402638901
C   C38       1.0  0.55835  0.43105  0.86110  1.0000 -0.1402638901
C   C39       1.0  0.56895  0.44165  0.36110  1.0000 -0.1402638901
C   C40       1.0  0.44165  0.56895  0.13890  1.0000 -0.1402638901
C   C41       1.0  0.45660  0.49680  0.61530  1.0000 -0.1494152324
C   C42       1.0  0.49680  0.45660  0.88470  1.0000 -0.1494152324
C   C43       1.0  0.54340  0.50320  0.38470  1.0000 -0.1494152324
C   C44       1.0  0.50320  0.54340  0.11530  1.0000 -0.1494152324
C   C45       1.0  0.38173  0.38807  0.60930  1.0000 0.0599340823
C   C46       1.0  0.38807  0.38173  0.89070  1.0000 0.0599340823
C   C47       1.0  0.61827  0.61193  0.39070  1.0000 0.0599340823
C   C48       1.0  0.61193  0.61827  0.10930  1.0000 0.0599340823
C   C49       1.0  0.40377  0.32483  0.57540  1.0000 -0.1494152324
C   C50       1.0  0.32483  0.40377  0.92460  1.0000 -0.1494152324
C   C51       1.0  0.59623  0.67517  0.42460  1.0000 -0.1494152324
C   C52       1.0  0.67517  0.59623  0.07540  1.0000 -0.1494152324
C   C53       1.0  0.32744  0.22116  0.56550  1.0000 -0.0178388394
C   C54       1.0  0.22116  0.32744  0.93450  1.0000 -0.0178388394
C   C55       1.0  0.67256  0.77884  0.43450  1.0000 -0.0178388394
C   C56       1.0  0.77884  0.67256  0.06550  1.0000 -0.0178388394
C   C57       1.0  0.22650  0.17590  0.59240  1.0000 -0.1057544548
C   C58       1.0  0.17590  0.22650  0.90760  1.0000 -0.1057544548
C   C59       1.0  0.77350  0.82410  0.40760  1.0000 -0.1057544548
C   C60       1.0  0.82410  0.77350  0.09240  1.0000 -0.1057544548
C   C61       1.0  0.20280  0.23560  0.62530  1.0000 -0.1619893696
C   C62       1.0  0.23560  0.20280  0.87470  1.0000 -0.1619893696
C   C63       1.0  0.79720  0.76440  0.37470  1.0000 -0.1619893696
C   C64       1.0  0.76440  0.79720  0.12530  1.0000 -0.1619893696
C   C65       1.0  0.28000  0.34380  0.63280  1.0000 0.0730413858
C   C66       1.0  0.34380  0.28000  0.86720  1.0000 0.0730413858
C   C67       1.0  0.72000  0.65620  0.36720  1.0000 0.0730413858
C   C68       1.0  0.65620  0.72000  0.13280  1.0000 0.0730413858
C   C69       1.0  0.25667  0.40893  0.66030  1.0000 -0.1909024466
C   C70       1.0  0.40893  0.25667  0.83970  1.0000 -0.1909024466
C   C71       1.0  0.74333  0.59107  0.33970  1.0000 -0.1909024466
C   C72       1.0  0.59107  0.74333  0.16030  1.0000 -0.1909024466
C   C73       1.0  0.34980  0.15480  0.52520  1.0000 0.5620732557
C   C74       1.0  0.15480  0.34980  0.97480  1.0000 0.5620732557
C   C75       1.0  0.65020  0.84520  0.47480  1.0000 0.5620732557
C   C76       1.0  0.84520  0.65020  0.02520  1.0000 0.5620732557
O   O1        1.0  0.07425  0.47375  0.87970  1.0000 -0.6316726157
O   O2        1.0  0.47375  0.07425  0.62030  1.0000 -0.6374732106
O   O3        1.0  0.92575  0.52625  0.12030  1.0000 -0.6316726157
O   O4        1.0  0.52625  0.92575  0.37970  1.0000 -0.6374732106
O   O5        1.0  0.08491  0.61929  0.85380  1.0000 -0.6637744654
O   O6        1.0  0.61929  0.08491  0.64620  1.0000 -0.6637744654
O   O7        1.0  0.91509  0.38071  0.14620  1.0000 -0.6637744654
O   O8        1.0  0.38071  0.91509  0.35380  1.0000 -0.6637744654
O   O9        1.0  0.28839  0.86641  0.56770  1.0000 -0.5963458318
O   O10       1.0  0.86641  0.28839  0.93230  1.0000 -0.5963458318
O   O11       1.0  0.71161  0.13359  0.43230  1.0000 -0.5963458318
O   O12       1.0  0.13359  0.71161  0.06770  1.0000 -0.5963458318
O   O13       1.0  0.43480  0.88840  0.55540  1.0000 -0.7485984016
O   O14       1.0  0.88840  0.43480  0.94460  1.0000 -0.7485984016
O   O15       1.0  0.56520  0.11160  0.44460  1.0000 -0.7485984016
O   O16       1.0  0.11160  0.56520  0.05540  1.0000 -0.7485984016
O   O17       1.0  0.28415  0.05725  0.53410  1.0000 -0.6374732106
O   O18       1.0  0.05725  0.28415  0.96590  1.0000 -0.6374732106
O   O19       1.0  0.71585  0.94275  0.46590  1.0000 -0.6374732106
O   O20       1.0  0.94275  0.71585  0.03410  1.0000 -0.6374732106
O   O21       1.0  0.43151  0.19669  0.48280  1.0000 -0.6316726157
O   O22       1.0  0.19669  0.43151  0.01720  1.0000 -0.6316726157
O   O23       1.0  0.56849  0.80331  0.51720  1.0000 -0.6316726157
O   O24       1.0  0.80331  0.56849  0.98280  1.0000 -0.6316726157
