# DDEC6 charges by PACMAN v1.1 (https://github.com/mtap-research/PACMAN-charge/)
data_2016[Mn][flu]3[ASR]1
_chemical_formula_sum              "Mn4 H60 C92 O32"
_cell_length_a       13.4505
_cell_length_b       13.4505
_cell_length_c       16.425
_cell_angle_alpha    82.8328
_cell_angle_beta     97.1672
_cell_angle_gamma    69.5234

_symmetry_space_group_name_H-M    "P 1"
_symmetry_Int_Tables_number       1

loop_
  _symmetry_equiv_pos_as_xyz
  'x, y, z'

loop_
  _atom_site_type_symbol
  _atom_site_label
  _atom_site_symmetry_multiplicity
  _atom_site_fract_x
  _atom_site_fract_y
  _atom_site_fract_z
  _atom_site_occupancy
  _atom_site_charge
Mn  Mn1       1.0  0.05365  0.96279  0.36409  1.0000 1.0823054543
Mn  Mn2       1.0  0.96279  0.05365  0.13591  1.0000 1.0823054543
Mn  Mn3       1.0  0.94635  0.03721  0.63591  1.0000 1.0823054543
Mn  Mn4       1.0  0.03721  0.94635  0.86409  1.0000 1.0823054543
H   H1        1.0  0.25410  0.51550  0.36550  1.0000 0.1283970257
H   H2        1.0  0.51550  0.25410  0.13450  1.0000 0.1283970257
H   H3        1.0  0.74590  0.48450  0.63450  1.0000 0.1283970257
H   H4        1.0  0.48450  0.74590  0.86550  1.0000 0.1283970257
H   H5        1.0  0.23960  0.38460  0.29300  1.0000 0.1197173949
H   H6        1.0  0.38460  0.23960  0.20700  1.0000 0.1197173949
H   H7        1.0  0.76040  0.61540  0.70700  1.0000 0.1197173949
H   H8        1.0  0.61540  0.76040  0.79300  1.0000 0.1197173949
H   H9        1.0  0.99310  0.60870  0.12930  1.0000 0.1197173949
H   H10       1.0  0.60870  0.99310  0.37070  1.0000 0.1197173949
H   H11       1.0  0.00690  0.39130  0.87070  1.0000 0.1197173949
H   H12       1.0  0.39130  0.00690  0.62930  1.0000 0.1197173949
H   H13       1.0  0.00590  0.73990  0.20520  1.0000 0.1283970257
H   H14       1.0  0.73990  0.00590  0.29480  1.0000 0.1283970257
H   H15       1.0  0.99410  0.26010  0.79480  1.0000 0.1283970257
H   H16       1.0  0.26010  0.99410  0.70520  1.0000 0.1283970257
H   H17       1.0  0.57000  0.02060  0.93410  1.0000 0.1283970257
H   H18       1.0  0.02060  0.57000  0.56590  1.0000 0.1283970257
H   H19       1.0  0.43000  0.97940  0.06590  1.0000 0.1283970257
H   H20       1.0  0.97940  0.43000  0.43410  1.0000 0.1283970257
H   H21       1.0  0.73870  0.98770  0.89950  1.0000 0.1283970257
H   H22       1.0  0.98770  0.73870  0.60050  1.0000 0.1283970257
H   H23       1.0  0.26130  0.01230  0.10050  1.0000 0.1283970257
H   H24       1.0  0.01230  0.26130  0.39950  1.0000 0.1283970257
H   H25       1.0  0.59930  0.15390  0.67030  1.0000 0.1283970257
H   H26       1.0  0.15390  0.59930  0.82970  1.0000 0.1283970257
H   H27       1.0  0.40070  0.84610  0.32970  1.0000 0.1283970257
H   H28       1.0  0.84610  0.40070  0.17030  1.0000 0.1283970257
H   H29       1.0  0.43110  0.18990  0.70630  1.0000 0.1197173949
H   H30       1.0  0.18990  0.43110  0.79370  1.0000 0.1197173949
H   H31       1.0  0.56890  0.81010  0.29370  1.0000 0.1197173949
H   H32       1.0  0.81010  0.56890  0.20630  1.0000 0.1197173949
H   H33       1.0  0.31220  0.32960  0.00330  1.0000 0.1799519813
H   H34       1.0  0.32960  0.31220  0.49670  1.0000 0.1799519813
H   H35       1.0  0.68780  0.67040  0.99670  1.0000 0.1799519813
H   H36       1.0  0.67040  0.68780  0.50330  1.0000 0.1799519813
H   H37       1.0  0.20560  0.12380  0.89580  1.0000 0.1428898635
H   H38       1.0  0.12380  0.20560  0.60420  1.0000 0.1428898635
H   H39       1.0  0.79440  0.87620  0.10420  1.0000 0.1428898635
H   H40       1.0  0.87620  0.79440  0.39580  1.0000 0.1428898635
H   H41       1.0  0.06240  0.26500  0.07560  1.0000 0.1428898635
H   H42       1.0  0.26500  0.06240  0.42440  1.0000 0.1428898635
H   H43       1.0  0.93760  0.73500  0.92440  1.0000 0.1428898635
H   H44       1.0  0.73500  0.93760  0.57560  1.0000 0.1428898635
H   H45       1.0  0.03350  0.42390  0.11990  1.0000 0.1117059892
H   H46       1.0  0.42390  0.03350  0.38010  1.0000 0.1117059892
H   H47       1.0  0.96650  0.57610  0.88010  1.0000 0.1117059892
H   H48       1.0  0.57610  0.96650  0.61990  1.0000 0.1117059892
H   H49       1.0  0.11580  0.33320  0.19190  1.0000 0.1197173949
H   H50       1.0  0.33320  0.11580  0.30810  1.0000 0.1197173949
H   H51       1.0  0.88420  0.66680  0.80810  1.0000 0.1197173949
H   H52       1.0  0.66680  0.88420  0.69190  1.0000 0.1197173949
H   H53       1.0  0.37360  0.06160  0.87930  1.0000 0.1197173949
H   H54       1.0  0.06160  0.37360  0.62070  1.0000 0.1197173949
H   H55       1.0  0.62640  0.93840  0.12070  1.0000 0.1197173949
H   H56       1.0  0.93840  0.62640  0.37930  1.0000 0.1197173949
H   H57       1.0  0.31870  0.15130  0.79890  1.0000 0.1197173949
H   H58       1.0  0.15130  0.31870  0.70110  1.0000 0.1197173949
H   H59       1.0  0.68130  0.84870  0.20110  1.0000 0.1197173949
H   H60       1.0  0.84870  0.68130  0.29890  1.0000 0.1197173949
C   C1        1.0  0.20080  0.53440  0.31840  1.0000 -0.100093939
C   C2        1.0  0.53440  0.20080  0.18160  1.0000 -0.100093939
C   C3        1.0  0.79920  0.46560  0.68160  1.0000 -0.100093939
C   C4        1.0  0.46560  0.79920  0.81840  1.0000 -0.100093939
C   C5        1.0  0.19300  0.45600  0.27480  1.0000 -0.1436277995
C   C6        1.0  0.45600  0.19300  0.22520  1.0000 -0.1436277995
C   C7        1.0  0.80700  0.54400  0.72520  1.0000 -0.1436277995
C   C8        1.0  0.54400  0.80700  0.77480  1.0000 -0.1436277995
C   C9        1.0  0.11467  0.48427  0.20275  1.0000 0.0898178775
C   C10       1.0  0.48427  0.11467  0.29725  1.0000 0.0898178775
C   C11       1.0  0.88533  0.51573  0.79725  1.0000 0.0898178775
C   C12       1.0  0.51573  0.88533  0.70275  1.0000 0.0898178775
C   C13       1.0  0.04534  0.58974  0.17720  1.0000 -0.1436277995
C   C14       1.0  0.58974  0.04534  0.32280  1.0000 -0.1436277995
C   C15       1.0  0.95466  0.41026  0.82280  1.0000 -0.1436277995
C   C16       1.0  0.41026  0.95466  0.67720  1.0000 -0.1436277995
C   C17       1.0  0.05314  0.66854  0.22270  1.0000 -0.100093939
C   C18       1.0  0.66854  0.05314  0.27730  1.0000 -0.100093939
C   C19       1.0  0.94686  0.33146  0.77730  1.0000 -0.100093939
C   C20       1.0  0.33146  0.94686  0.72270  1.0000 -0.100093939
C   C21       1.0  0.13120  0.64040  0.29400  1.0000 -0.0202387131
C   C22       1.0  0.64040  0.13120  0.20600  1.0000 -0.0202387131
C   C23       1.0  0.86880  0.35960  0.70600  1.0000 -0.0149971027
C   C24       1.0  0.35960  0.86880  0.79400  1.0000 -0.0149971027
C   C25       1.0  0.57547  0.04827  0.88080  1.0000 -0.1346764037
C   C26       1.0  0.04827  0.57547  0.61920  1.0000 -0.1346764037
C   C27       1.0  0.42453  0.95173  0.11920  1.0000 -0.1346764037
C   C28       1.0  0.95173  0.42453  0.38080  1.0000 -0.1346764037
C   C29       1.0  0.67700  0.02800  0.86010  1.0000 -0.0841973884
C   C30       1.0  0.02800  0.67700  0.63990  1.0000 -0.0841973884
C   C31       1.0  0.32300  0.97200  0.13990  1.0000 -0.0841973884
C   C32       1.0  0.97200  0.32300  0.36010  1.0000 -0.0841973884
C   C33       1.0  0.68593  0.06775  0.78091  1.0000 -0.0202387131
C   C34       1.0  0.06775  0.68593  0.71909  1.0000 -0.0202387131
C   C35       1.0  0.31407  0.93225  0.21909  1.0000 -0.0202387131
C   C36       1.0  0.93225  0.31407  0.28091  1.0000 -0.0202387131
C   C37       1.0  0.59394  0.12734  0.72392  1.0000 -0.100093939
C   C38       1.0  0.12734  0.59394  0.77608  1.0000 -0.100093939
C   C39       1.0  0.40606  0.87266  0.27608  1.0000 -0.100093939
C   C40       1.0  0.87266  0.40606  0.22392  1.0000 -0.100093939
C   C41       1.0  0.49284  0.14844  0.74530  1.0000 -0.1488337585
C   C42       1.0  0.14844  0.49284  0.75470  1.0000 -0.1488337585
C   C43       1.0  0.50716  0.85156  0.25470  1.0000 -0.1488337585
C   C44       1.0  0.85156  0.50716  0.24530  1.0000 -0.1488337585
C   C45       1.0  0.48352  0.10812  0.82430  1.0000 0.0898178775
C   C46       1.0  0.10812  0.48352  0.67570  1.0000 0.0898178775
C   C47       1.0  0.51648  0.89188  0.17570  1.0000 0.0898178775
C   C48       1.0  0.89188  0.51648  0.32430  1.0000 0.0898178775
C   C49       1.0  0.26518  0.29298  0.99900  1.0000 -0.3306545982
C   C50       1.0  0.29298  0.26518  0.50100  1.0000 -0.3306545982
C   C51       1.0  0.73482  0.70702  0.00100  1.0000 -0.3306545982
C   C52       1.0  0.70702  0.73482  0.49900  1.0000 -0.3306545982
C   C53       1.0  0.27309  0.22229  0.94289  1.0000 0.276282095
C   C54       1.0  0.22229  0.27309  0.55711  1.0000 0.276282095
C   C55       1.0  0.72691  0.77771  0.05711  1.0000 0.276282095
C   C56       1.0  0.77771  0.72691  0.44289  1.0000 0.276282095
C   C57       1.0  0.20131  0.16961  0.93428  1.0000 -0.2743685612
C   C58       1.0  0.16961  0.20131  0.56572  1.0000 -0.2743685612
C   C59       1.0  0.79869  0.83039  0.06572  1.0000 -0.2753039667
C   C60       1.0  0.83039  0.79869  0.43428  1.0000 -0.2753039667
C   C61       1.0  0.12294  0.18640  0.98409  1.0000 0.0252130894
C   C62       1.0  0.18640  0.12294  0.51591  1.0000 0.0252130894
C   C63       1.0  0.87706  0.81360  0.01591  1.0000 0.0244256189
C   C64       1.0  0.81360  0.87706  0.48409  1.0000 0.0252130894
C   C65       1.0  0.11475  0.25509  0.04204  1.0000 -0.2753039667
C   C66       1.0  0.25509  0.11475  0.45796  1.0000 -0.2753039667
C   C67       1.0  0.88525  0.74491  0.95796  1.0000 -0.2743685612
C   C68       1.0  0.74491  0.88525  0.54204  1.0000 -0.2743685612
C   C69       1.0  0.18640  0.30840  0.04854  1.0000 0.276282095
C   C70       1.0  0.30840  0.18640  0.45146  1.0000 0.276282095
C   C71       1.0  0.81360  0.69160  0.95146  1.0000 0.276282095
C   C72       1.0  0.69160  0.81360  0.54854  1.0000 0.276282095
C   C73       1.0  0.14220  0.72480  0.34380  1.0000 0.5630654028
C   C74       1.0  0.72480  0.14220  0.15620  1.0000 0.5630654028
C   C75       1.0  0.85780  0.27520  0.65620  1.0000 0.5630654028
C   C76       1.0  0.27520  0.85780  0.84380  1.0000 0.5630654028
C   C77       1.0  0.79618  0.04458  0.75800  1.0000 0.5976904264
C   C78       1.0  0.04458  0.79618  0.74200  1.0000 0.5976904264
C   C79       1.0  0.20382  0.95542  0.24200  1.0000 0.5976904264
C   C80       1.0  0.95542  0.20382  0.25800  1.0000 0.5976904264
C   C81       1.0  0.04728  0.12680  0.97520  1.0000 0.5976904264
C   C82       1.0  0.12680  0.04728  0.52480  1.0000 0.5976904264
C   C83       1.0  0.95272  0.87320  0.02480  1.0000 0.5976904264
C   C84       1.0  0.87320  0.95272  0.47520  1.0000 0.5976904264
C   C85       1.0  0.10487  0.39907  0.15400  1.0000 -0.0575166087
C   C86       1.0  0.39907  0.10487  0.34600  1.0000 -0.0575166087
C   C87       1.0  0.89513  0.60093  0.84600  1.0000 -0.0575166087
C   C88       1.0  0.60093  0.89513  0.65400  1.0000 -0.0575166087
C   C89       1.0  0.37454  0.12754  0.84840  1.0000 -0.0575166087
C   C90       1.0  0.12754  0.37454  0.65160  1.0000 -0.0575166087
C   C91       1.0  0.62546  0.87246  0.15160  1.0000 -0.0575166087
C   C92       1.0  0.87246  0.62546  0.34840  1.0000 -0.0575166087
O   O1        1.0  0.07137  0.81237  0.33000  1.0000 -0.527699686
O   O2        1.0  0.81237  0.07137  0.17000  1.0000 -0.527699686
O   O3        1.0  0.92863  0.18763  0.67000  1.0000 -0.527699686
O   O4        1.0  0.18763  0.92863  0.83000  1.0000 -0.527699686
O   O5        1.0  0.22780  0.69480  0.39770  1.0000 -0.527699686
O   O6        1.0  0.69480  0.22780  0.10230  1.0000 -0.527699686
O   O7        1.0  0.77220  0.30520  0.60230  1.0000 -0.527699686
O   O8        1.0  0.30520  0.77220  0.89770  1.0000 -0.527699686
O   O9        1.0  0.80086  0.04940  0.68162  1.0000 -0.5359226534
O   O10       1.0  0.04940  0.80086  0.81838  1.0000 -0.527699686
O   O11       1.0  0.19914  0.95060  0.31838  1.0000 -0.527699686
O   O12       1.0  0.95060  0.19914  0.18162  1.0000 -0.5359226534
O   O13       1.0  0.87305  0.02473  0.81577  1.0000 -0.5549836525
O   O14       1.0  0.02473  0.87305  0.68423  1.0000 -0.5553037295
O   O15       1.0  0.12695  0.97527  0.18423  1.0000 -0.5553037295
O   O16       1.0  0.97527  0.12695  0.31577  1.0000 -0.5553037295
O   O17       1.0  0.05375  0.07317  0.91917  1.0000 -0.524566389
O   O18       1.0  0.07317  0.05375  0.58083  1.0000 -0.527699686
O   O19       1.0  0.94625  0.92683  0.08083  1.0000 -0.524566389
O   O20       1.0  0.92683  0.94625  0.41917  1.0000 -0.524566389
O   O21       1.0  0.97939  0.13869  0.02346  1.0000 -0.5359226534
O   O22       1.0  0.13869  0.97939  0.47654  1.0000 -0.5359226534
O   O23       1.0  0.02061  0.86131  0.97654  1.0000 -0.5359226534
O   O24       1.0  0.86131  0.02061  0.52346  1.0000 -0.5359226534
O   O25       1.0  0.18581  0.37941  0.10214  1.0000 -0.1717632612
O   O26       1.0  0.37941  0.18581  0.39786  1.0000 -0.1717632612
O   O27       1.0  0.81419  0.62059  0.89786  1.0000 -0.1717632612
O   O28       1.0  0.62059  0.81419  0.60214  1.0000 -0.1717632612
O   O29       1.0  0.35605  0.20955  0.89930  1.0000 -0.1717632612
O   O30       1.0  0.20955  0.35605  0.60070  1.0000 -0.1717632612
O   O31       1.0  0.64395  0.79045  0.10070  1.0000 -0.1717632612
O   O32       1.0  0.79045  0.64395  0.39930  1.0000 -0.1717632612
