# DDEC6 charges by PACMAN v1.1 (https://github.com/mtap-research/PACMAN-charge/)
data_2016[Eu][nan]3[ASR]8
_chemical_formula_sum              "Eu4 H36 C76 O24"
_cell_length_a       16.1216
_cell_length_b       16.1216
_cell_length_c       13.9294
_cell_angle_alpha    82.4946
_cell_angle_beta     97.5054
_cell_angle_gamma    129.866

_symmetry_space_group_name_H-M    "P 1"
_symmetry_Int_Tables_number       1

loop_
  _symmetry_equiv_pos_as_xyz
  'x, y, z'

loop_
  _atom_site_type_symbol
  _atom_site_label
  _atom_site_symmetry_multiplicity
  _atom_site_fract_x
  _atom_site_fract_y
  _atom_site_fract_z
  _atom_site_occupancy
  _atom_site_charge
Eu  Eu1       1.0  0.39102  0.02568  0.46320  1.0000 2.0375911775
Eu  Eu2       1.0  0.02568  0.39102  0.03680  1.0000 2.0375911775
Eu  Eu3       1.0  0.60898  0.97432  0.53680  1.0000 2.0375911775
Eu  Eu4       1.0  0.97432  0.60898  0.96320  1.0000 2.0375911775
H   H1        1.0  0.20150  0.73470  0.71410  1.0000 0.1325833532
H   H2        1.0  0.73470  0.20150  0.78590  1.0000 0.1325833532
H   H3        1.0  0.79850  0.26530  0.28590  1.0000 0.1325833532
H   H4        1.0  0.26530  0.79850  0.21410  1.0000 0.1325833532
H   H5        1.0  0.39100  0.70680  0.58720  1.0000 0.1204349369
H   H6        1.0  0.70680  0.39100  0.91280  1.0000 0.1204349369
H   H7        1.0  0.60900  0.29320  0.41280  1.0000 0.1204349369
H   H8        1.0  0.29320  0.60900  0.08720  1.0000 0.1204349369
H   H9        1.0  0.19590  0.48230  0.78550  1.0000 0.1143751698
H   H10       1.0  0.48230  0.19590  0.71450  1.0000 0.1143751698
H   H11       1.0  0.80410  0.51770  0.21450  1.0000 0.1143751698
H   H12       1.0  0.51770  0.80410  0.28550  1.0000 0.1143751698
H   H13       1.0  0.48450  0.63370  0.63890  1.0000 0.1204349369
H   H14       1.0  0.63370  0.48450  0.86110  1.0000 0.1204349369
H   H15       1.0  0.51550  0.36630  0.36110  1.0000 0.1204349369
H   H16       1.0  0.36630  0.51550  0.13890  1.0000 0.1204349369
H   H17       1.0  0.52780  0.53280  0.60270  1.0000 0.1143751698
H   H18       1.0  0.53280  0.52780  0.89730  1.0000 0.1143751698
H   H19       1.0  0.47220  0.46720  0.39730  1.0000 0.1143751698
H   H20       1.0  0.46720  0.47220  0.10270  1.0000 0.1143751698
H   H21       1.0  0.47360  0.35940  0.56060  1.0000 0.1204349369
H   H22       1.0  0.35940  0.47360  0.93940  1.0000 0.1204349369
H   H23       1.0  0.52640  0.64060  0.43940  1.0000 0.1204349369
H   H24       1.0  0.64060  0.52640  0.06060  1.0000 0.1204349369
H   H25       1.0  0.17260  0.10440  0.58900  1.0000 0.1204349369
H   H26       1.0  0.10440  0.17260  0.91100  1.0000 0.1204349369
H   H27       1.0  0.82740  0.89560  0.41100  1.0000 0.1204349369
H   H28       1.0  0.89560  0.82740  0.08900  1.0000 0.1204349369
H   H29       1.0  0.13440  0.20380  0.64300  1.0000 0.1204349369
H   H30       1.0  0.20380  0.13440  0.85700  1.0000 0.1204349369
H   H31       1.0  0.86560  0.79620  0.35700  1.0000 0.1204349369
H   H32       1.0  0.79620  0.86560  0.14300  1.0000 0.1204349369
H   H33       1.0  0.18740  0.37640  0.67710  1.0000 0.1204349369
H   H34       1.0  0.37640  0.18740  0.82290  1.0000 0.1204349369
H   H35       1.0  0.81260  0.62360  0.32290  1.0000 0.1204349369
H   H36       1.0  0.62360  0.81260  0.17710  1.0000 0.1204349369
C   C1        1.0  0.18761  0.60299  0.76190  1.0000 -0.0290582725
C   C2        1.0  0.60299  0.18761  0.73810  1.0000 -0.0290582725
C   C3        1.0  0.81239  0.39701  0.23810  1.0000 -0.0290582725
C   C4        1.0  0.39701  0.81239  0.26190  1.0000 -0.0290582725
C   C5        1.0  0.22609  0.69711  0.70720  1.0000 -0.1006792006
C   C6        1.0  0.69711  0.22609  0.79280  1.0000 -0.1006792006
C   C7        1.0  0.77391  0.30289  0.29280  1.0000 -0.1006792006
C   C8        1.0  0.30289  0.77391  0.20720  1.0000 -0.1006792006
C   C9        1.0  0.30159  0.73421  0.64240  1.0000 -0.0390269505
C   C10       1.0  0.73421  0.30159  0.85760  1.0000 -0.0390269505
C   C11       1.0  0.69841  0.26579  0.35760  1.0000 -0.0390269505
C   C12       1.0  0.26579  0.69841  0.14240  1.0000 -0.0390269505
C   C13       1.0  0.33793  0.67807  0.63060  1.0000 -0.1528926191
C   C14       1.0  0.67807  0.33793  0.86940  1.0000 -0.1567858648
C   C15       1.0  0.66207  0.32193  0.36940  1.0000 -0.1528926191
C   C16       1.0  0.32193  0.66207  0.13060  1.0000 -0.1567858648
C   C17       1.0  0.29776  0.58144  0.68130  1.0000 0.0687721935
C   C18       1.0  0.58144  0.29776  0.81870  1.0000 0.0687721935
C   C19       1.0  0.70224  0.41856  0.31870  1.0000 0.0687721935
C   C20       1.0  0.41856  0.70224  0.18130  1.0000 0.0687721935
C   C21       1.0  0.22332  0.54628  0.74810  1.0000 -0.1528926191
C   C22       1.0  0.54628  0.22332  0.75190  1.0000 -0.1528926191
C   C23       1.0  0.77668  0.45372  0.25190  1.0000 -0.1528926191
C   C24       1.0  0.45372  0.77668  0.24810  1.0000 -0.1528926191
C   C25       1.0  0.10823  0.56277  0.83600  1.0000 0.6395197096
C   C26       1.0  0.56277  0.10823  0.66400  1.0000 0.6395197096
C   C27       1.0  0.89177  0.43723  0.16400  1.0000 0.6395197096
C   C28       1.0  0.43723  0.89177  0.33600  1.0000 0.6395197096
C   C29       1.0  0.34242  0.83578  0.58460  1.0000 0.6307301107
C   C30       1.0  0.83578  0.34242  0.91540  1.0000 0.6307301107
C   C31       1.0  0.65758  0.16422  0.41540  1.0000 0.6307301107
C   C32       1.0  0.16422  0.65758  0.08460  1.0000 0.6307301107
C   C33       1.0  0.32851  0.51569  0.66110  1.0000 0.0687721935
C   C34       1.0  0.51569  0.32851  0.83890  1.0000 0.0687721935
C   C35       1.0  0.67149  0.48431  0.33890  1.0000 0.0687721935
C   C36       1.0  0.48431  0.67149  0.16110  1.0000 0.0687721935
C   C37       1.0  0.43020  0.55900  0.63850  1.0000 -0.1681381766
C   C38       1.0  0.55900  0.43020  0.86150  1.0000 -0.1681381766
C   C39       1.0  0.56980  0.44100  0.36150  1.0000 -0.1681381766
C   C40       1.0  0.44100  0.56980  0.13850  1.0000 -0.1681381766
C   C41       1.0  0.45649  0.49811  0.61510  1.0000 -0.1528926191
C   C42       1.0  0.49811  0.45649  0.88490  1.0000 -0.1528926191
C   C43       1.0  0.54351  0.50189  0.38490  1.0000 -0.1528926191
C   C44       1.0  0.50189  0.54351  0.11510  1.0000 -0.1528926191
C   C45       1.0  0.38233  0.39027  0.60960  1.0000 0.0545388865
C   C46       1.0  0.39027  0.38233  0.89040  1.0000 0.0545388865
C   C47       1.0  0.61767  0.60973  0.39040  1.0000 0.0545388865
C   C48       1.0  0.60973  0.61767  0.10960  1.0000 0.0545388865
C   C49       1.0  0.40367  0.32613  0.57630  1.0000 -0.1567858648
C   C50       1.0  0.32613  0.40367  0.92370  1.0000 -0.1567858648
C   C51       1.0  0.59633  0.67387  0.42370  1.0000 -0.1567858648
C   C52       1.0  0.67387  0.59633  0.07630  1.0000 -0.1567858648
C   C53       1.0  0.32905  0.22315  0.56710  1.0000 -0.0058175576
C   C54       1.0  0.22315  0.32905  0.93290  1.0000 -0.0058175576
C   C55       1.0  0.67095  0.77685  0.43290  1.0000 -0.0058175576
C   C56       1.0  0.77685  0.67095  0.06710  1.0000 -0.0058175576
C   C57       1.0  0.22786  0.17854  0.59330  1.0000 -0.120146912
C   C58       1.0  0.17854  0.22786  0.90670  1.0000 -0.120146912
C   C59       1.0  0.77214  0.82146  0.40670  1.0000 -0.120146912
C   C60       1.0  0.82146  0.77214  0.09330  1.0000 -0.120146912
C   C61       1.0  0.20414  0.23846  0.62560  1.0000 -0.1567858648
C   C62       1.0  0.23846  0.20414  0.87440  1.0000 -0.1567858648
C   C63       1.0  0.79586  0.76154  0.37440  1.0000 -0.1567858648
C   C64       1.0  0.76154  0.79586  0.12560  1.0000 -0.1567858648
C   C65       1.0  0.28013  0.34587  0.63220  1.0000 0.0635917741
C   C66       1.0  0.34587  0.28013  0.86780  1.0000 0.0635917741
C   C67       1.0  0.71987  0.65413  0.36780  1.0000 0.0635917741
C   C68       1.0  0.65413  0.71987  0.13220  1.0000 0.0635917741
C   C69       1.0  0.25685  0.41055  0.65950  1.0000 -0.1980615449
C   C70       1.0  0.41055  0.25685  0.84050  1.0000 -0.1980615449
C   C71       1.0  0.74315  0.58945  0.34050  1.0000 -0.1980615449
C   C72       1.0  0.58945  0.74315  0.15950  1.0000 -0.1980615449
C   C73       1.0  0.35124  0.15736  0.52680  1.0000 0.5417173836
C   C74       1.0  0.15736  0.35124  0.97320  1.0000 0.5417173836
C   C75       1.0  0.64876  0.84264  0.47320  1.0000 0.5417173836
C   C76       1.0  0.84264  0.64876  0.02680  1.0000 0.5417173836
O   O1        1.0  0.07338  0.47440  0.87730  1.0000 -0.6324638692
O   O2        1.0  0.47440  0.07338  0.62270  1.0000 -0.6324638692
O   O3        1.0  0.92662  0.52560  0.12270  1.0000 -0.6324638692
O   O4        1.0  0.52560  0.92662  0.37730  1.0000 -0.6324638692
O   O5        1.0  0.08234  0.61882  0.85006  1.0000 -0.6854938087
O   O6        1.0  0.61882  0.08234  0.64994  1.0000 -0.6846932587
O   O7        1.0  0.91766  0.38118  0.14994  1.0000 -0.6854938087
O   O8        1.0  0.38118  0.91766  0.35006  1.0000 -0.6854938087
O   O9        1.0  0.28601  0.86589  0.56730  1.0000 -0.6139631984
O   O10       1.0  0.86589  0.28601  0.93270  1.0000 -0.6139631984
O   O11       1.0  0.71399  0.13411  0.43270  1.0000 -0.6139631984
O   O12       1.0  0.13411  0.71399  0.06730  1.0000 -0.6139631984
O   O13       1.0  0.43154  0.88768  0.55261  1.0000 -0.7146859584
O   O14       1.0  0.88768  0.43154  0.94739  1.0000 -0.7169144568
O   O15       1.0  0.56846  0.11232  0.44739  1.0000 -0.7146859584
O   O16       1.0  0.11232  0.56846  0.05261  1.0000 -0.7146859584
O   O17       1.0  0.28550  0.06064  0.53400  1.0000 -0.5371824768
O   O18       1.0  0.06064  0.28550  0.96600  1.0000 -0.5371824768
O   O19       1.0  0.71450  0.93936  0.46600  1.0000 -0.5371824768
O   O20       1.0  0.93936  0.71450  0.03400  1.0000 -0.5371824768
O   O21       1.0  0.43328  0.19872  0.48580  1.0000 -0.5699056205
O   O22       1.0  0.19872  0.43328  0.01420  1.0000 -0.5699056205
O   O23       1.0  0.56672  0.80128  0.51420  1.0000 -0.5699056205
O   O24       1.0  0.80128  0.56672  0.98580  1.0000 -0.5699056205
