# DDEC6 charges by PACMAN v1.1 (https://github.com/mtap-research/PACMAN-charge/)
data_2016[In][nan]3[ASR]2
_chemical_formula_sum              "In9 H126 C180 N36 O57"
_cell_length_a       24.4186
_cell_length_b       24.4186
_cell_length_c       55.4757
_cell_angle_alpha    90
_cell_angle_beta     90
_cell_angle_gamma    120

_symmetry_space_group_name_H-M    "P 1"
_symmetry_Int_Tables_number       1

loop_
  _symmetry_equiv_pos_as_xyz
  'x, y, z'

loop_
  _atom_site_type_symbol
  _atom_site_label
  _atom_site_symmetry_multiplicity
  _atom_site_fract_x
  _atom_site_fract_y
  _atom_site_fract_z
  _atom_site_occupancy
  _atom_site_charge
In  In1       1.0  0.62836  0.62836  0.50000  1.0000 1.4088787275
In  In2       1.0  0.37164  0.00000  0.83333  1.0000 1.4088787275
In  In3       1.0  0.00000  0.37164  0.16667  1.0000 1.4088787275
In  In4       1.0  0.77849  0.72900  0.47478  1.0000 1.5096168158
In  In5       1.0  0.27100  0.04949  0.80811  1.0000 1.5096168158
In  In6       1.0  0.95051  0.22151  0.14145  1.0000 1.5096168158
In  In7       1.0  0.04949  0.27100  0.19189  1.0000 1.5096168158
In  In8       1.0  0.22151  0.95051  0.85855  1.0000 1.5096168158
In  In9       1.0  0.72900  0.77849  0.52522  1.0000 1.5096168158
H   H1        1.0  0.71610  0.33800  0.45890  1.0000 0.279769455
H   H2        1.0  0.66200  0.37810  0.79223  1.0000 0.279769455
H   H3        1.0  0.62190  0.28390  0.12557  1.0000 0.279769455
H   H4        1.0  0.37810  0.66200  0.20777  1.0000 0.279769455
H   H5        1.0  0.28390  0.62190  0.87443  1.0000 0.279769455
H   H6        1.0  0.33800  0.71610  0.54110  1.0000 0.279769455
H   H7        1.0  0.74370  0.28090  0.44200  1.0000 0.2716512121
H   H8        1.0  0.71910  0.46280  0.77533  1.0000 0.2716512121
H   H9        1.0  0.53720  0.25630  0.10867  1.0000 0.2716512121
H   H10       1.0  0.46280  0.71910  0.22467  1.0000 0.2716512121
H   H11       1.0  0.25630  0.53720  0.89133  1.0000 0.2716512121
H   H12       1.0  0.28090  0.74370  0.55800  1.0000 0.2716512121
H   H13       1.0  0.83860  0.06590  0.40890  1.0000 0.279769455
H   H14       1.0  0.93410  0.77270  0.74223  1.0000 0.279769455
H   H15       1.0  0.22730  0.16140  0.07557  1.0000 0.279769455
H   H16       1.0  0.77270  0.93410  0.25777  1.0000 0.279769455
H   H17       1.0  0.16140  0.22730  0.92443  1.0000 0.279769455
H   H18       1.0  0.06590  0.83860  0.59110  1.0000 0.279769455
H   H19       1.0  0.85430  0.15030  0.39400  1.0000 0.279769455
H   H20       1.0  0.84970  0.70400  0.72733  1.0000 0.279769455
H   H21       1.0  0.29600  0.14570  0.06067  1.0000 0.279769455
H   H22       1.0  0.70400  0.84970  0.27267  1.0000 0.279769455
H   H23       1.0  0.14570  0.29600  0.93933  1.0000 0.279769455
H   H24       1.0  0.15030  0.85430  0.60600  1.0000 0.279769455
H   H25       1.0  0.84740  0.35140  0.35030  1.0000 0.2716512121
H   H26       1.0  0.64860  0.49600  0.68363  1.0000 0.2716512121
H   H27       1.0  0.50400  0.15260  0.01697  1.0000 0.2716512121
H   H28       1.0  0.49600  0.64860  0.31637  1.0000 0.2716512121
H   H29       1.0  0.15260  0.50400  0.98303  1.0000 0.2716512121
H   H30       1.0  0.35140  0.84740  0.64970  1.0000 0.2716512121
H   H31       1.0  0.88150  0.37340  0.31560  1.0000 0.279769455
H   H32       1.0  0.62660  0.50810  0.64893  1.0000 0.279769455
H   H33       1.0  0.49190  0.11850  0.98227  1.0000 0.279769455
H   H34       1.0  0.50810  0.62660  0.35107  1.0000 0.279769455
H   H35       1.0  0.11850  0.49190  0.01773  1.0000 0.279769455
H   H36       1.0  0.37340  0.88150  0.68440  1.0000 0.279769455
H   H37       1.0  0.64500  0.46240  0.48820  1.0000 0.1210875031
H   H38       1.0  0.53760  0.18260  0.82153  1.0000 0.1210875031
H   H39       1.0  0.81740  0.35500  0.15487  1.0000 0.1210875031
H   H40       1.0  0.18260  0.53760  0.17847  1.0000 0.1210875031
H   H41       1.0  0.35500  0.81740  0.84513  1.0000 0.1210875031
H   H42       1.0  0.46240  0.64500  0.51180  1.0000 0.1210875031
H   H43       1.0  0.64920  0.37260  0.47450  1.0000 0.1210875031
H   H44       1.0  0.62740  0.27660  0.80783  1.0000 0.1210875031
H   H45       1.0  0.72340  0.35080  0.14117  1.0000 0.1210875031
H   H46       1.0  0.27660  0.62740  0.19217  1.0000 0.1210875031
H   H47       1.0  0.35080  0.72340  0.85883  1.0000 0.1210875031
H   H48       1.0  0.37260  0.64920  0.52550  1.0000 0.1210875031
H   H49       1.0  0.81930  0.49130  0.44370  1.0000 0.1299477977
H   H50       1.0  0.50870  0.32800  0.77703  1.0000 0.1299477977
H   H51       1.0  0.67200  0.18070  0.11037  1.0000 0.1299477977
H   H52       1.0  0.32800  0.50870  0.22297  1.0000 0.1299477977
H   H53       1.0  0.18070  0.67200  0.88963  1.0000 0.1299477977
H   H54       1.0  0.49130  0.81930  0.55630  1.0000 0.1299477977
H   H55       1.0  0.80840  0.57960  0.45550  1.0000 0.1210875031
H   H56       1.0  0.42040  0.22880  0.78883  1.0000 0.1210875031
H   H57       1.0  0.77120  0.19160  0.12217  1.0000 0.1299477977
H   H58       1.0  0.22880  0.42040  0.21117  1.0000 0.1299477977
H   H59       1.0  0.19160  0.77120  0.87783  1.0000 0.1210875031
H   H60       1.0  0.57960  0.80840  0.54450  1.0000 0.1299477977
H   H61       1.0  0.78310  0.21340  0.43460  1.0000 0.140324536
H   H62       1.0  0.78660  0.56970  0.76793  1.0000 0.140324536
H   H63       1.0  0.43030  0.21690  0.10127  1.0000 0.140324536
H   H64       1.0  0.56970  0.78660  0.23207  1.0000 0.140324536
H   H65       1.0  0.21690  0.43030  0.89873  1.0000 0.140324536
H   H66       1.0  0.21340  0.78310  0.56540  1.0000 0.140324536
H   H67       1.0  0.86190  0.22230  0.36940  1.0000 0.140324536
H   H68       1.0  0.77770  0.63960  0.70273  1.0000 0.140324536
H   H69       1.0  0.36040  0.13810  0.03607  1.0000 0.140324536
H   H70       1.0  0.63960  0.77770  0.29727  1.0000 0.140324536
H   H71       1.0  0.13810  0.36040  0.96393  1.0000 0.140324536
H   H72       1.0  0.22230  0.86190  0.63060  1.0000 0.140324536
H   H73       1.0  0.79810  0.34310  0.38600  1.0000 0.140324536
H   H74       1.0  0.65690  0.45500  0.71933  1.0000 0.140324536
H   H75       1.0  0.54500  0.20190  0.05267  1.0000 0.140324536
H   H76       1.0  0.45500  0.65690  0.28067  1.0000 0.140324536
H   H77       1.0  0.20190  0.54500  0.94733  1.0000 0.140324536
H   H78       1.0  0.34310  0.79810  0.61400  1.0000 0.140324536
H   H79       1.0  0.77450  0.03820  0.46690  1.0000 0.140324536
H   H80       1.0  0.96180  0.73630  0.80023  1.0000 0.1299477977
H   H81       1.0  0.26370  0.22550  0.13357  1.0000 0.1299477977
H   H82       1.0  0.73630  0.96180  0.19977  1.0000 0.1299477977
H   H83       1.0  0.22550  0.26370  0.86643  1.0000 0.140324536
H   H84       1.0  0.03820  0.77450  0.53310  1.0000 0.140324536
H   H85       1.0  0.75890  0.94940  0.48870  1.0000 0.1299477977
H   H86       1.0  0.05060  0.80950  0.82203  1.0000 0.1299477977
H   H87       1.0  0.19050  0.24110  0.15537  1.0000 0.1299477977
H   H88       1.0  0.80950  0.05060  0.17797  1.0000 0.1299477977
H   H89       1.0  0.24110  0.19050  0.84463  1.0000 0.1299477977
H   H90       1.0  0.94940  0.75890  0.51130  1.0000 0.1299477977
H   H91       1.0  0.84090  0.90140  0.43680  1.0000 0.1210875031
H   H92       1.0  0.09860  0.93950  0.77013  1.0000 0.1210875031
H   H93       1.0  0.06050  0.15910  0.10347  1.0000 0.1210875031
H   H94       1.0  0.93950  0.09860  0.22987  1.0000 0.1210875031
H   H95       1.0  0.15910  0.06050  0.89653  1.0000 0.1210875031
H   H96       1.0  0.90140  0.84090  0.56320  1.0000 0.1210875031
H   H97       1.0  0.86320  0.99270  0.41480  1.0000 0.1210875031
H   H98       1.0  0.00730  0.87050  0.74813  1.0000 0.1210875031
H   H99       1.0  0.12950  0.13680  0.08147  1.0000 0.1210875031
H   H100      1.0  0.87050  0.00730  0.25187  1.0000 0.1210875031
H   H101      1.0  0.13680  0.12950  0.91853  1.0000 0.1210875031
H   H102      1.0  0.99270  0.86320  0.58520  1.0000 0.1210875031
H   H103      1.0  0.94840  0.28140  0.29990  1.0000 0.1299477977
H   H104      1.0  0.71860  0.66700  0.63323  1.0000 0.1299477977
H   H105      1.0  0.33300  0.05160  0.96657  1.0000 0.1299477977
H   H106      1.0  0.66700  0.71860  0.36677  1.0000 0.1299477977
H   H107      1.0  0.05160  0.33300  0.03343  1.0000 0.1299477977
H   H108      1.0  0.28140  0.94840  0.70010  1.0000 0.1299477977
H   H109      1.0  0.98570  0.27890  0.26210  1.0000 0.1210875031
H   H110      1.0  0.72110  0.70680  0.59543  1.0000 0.1210875031
H   H111      1.0  0.29320  0.01430  0.92877  1.0000 0.1210875031
H   H112      1.0  0.70680  0.72110  0.40457  1.0000 0.1210875031
H   H113      1.0  0.01430  0.29320  0.07123  1.0000 0.1210875031
H   H114      1.0  0.27890  0.98570  0.73790  1.0000 0.1210875031
H   H115      1.0  0.93390  0.39980  0.23770  1.0000 0.1210875031
H   H116      1.0  0.60020  0.53410  0.57103  1.0000 0.1299477977
H   H117      1.0  0.46590  0.06610  0.90437  1.0000 0.1210875031
H   H118      1.0  0.53410  0.60020  0.42897  1.0000 0.1210875031
H   H119      1.0  0.06610  0.46590  0.09563  1.0000 0.1210875031
H   H120      1.0  0.39980  0.93390  0.76230  1.0000 0.1299477977
H   H121      1.0  0.89010  0.39950  0.27550  1.0000 0.1210875031
H   H122      1.0  0.60050  0.49060  0.60883  1.0000 0.1210875031
H   H123      1.0  0.50940  0.10990  0.94217  1.0000 0.1210875031
H   H124      1.0  0.49060  0.60050  0.39117  1.0000 0.1210875031
H   H125      1.0  0.10990  0.50940  0.05783  1.0000 0.1210875031
H   H126      1.0  0.39950  0.89010  0.72450  1.0000 0.1210875031
C   C1        1.0  0.71920  0.58150  0.48091  1.0000 0.6082379816
C   C2        1.0  0.41850  0.13770  0.81424  1.0000 0.6082379816
C   C3        1.0  0.86230  0.28080  0.14758  1.0000 0.6082379816
C   C4        1.0  0.13770  0.41850  0.18576  1.0000 0.6082379816
C   C5        1.0  0.28080  0.86230  0.85242  1.0000 0.6082379816
C   C6        1.0  0.58150  0.71920  0.51909  1.0000 0.6082379816
C   C7        1.0  0.72740  0.52710  0.47385  1.0000 -0.058149368
C   C8        1.0  0.47290  0.20030  0.80718  1.0000 -0.058149368
C   C9        1.0  0.79970  0.27260  0.14052  1.0000 -0.0546810652
C   C10       1.0  0.20030  0.47290  0.19282  1.0000 -0.058149368
C   C11       1.0  0.27260  0.79970  0.85948  1.0000 -0.058149368
C   C12       1.0  0.52710  0.72740  0.52615  1.0000 -0.058149368
C   C13       1.0  0.67940  0.46750  0.47922  1.0000 -0.0730236785
C   C14       1.0  0.53250  0.21190  0.81255  1.0000 -0.0730236785
C   C15       1.0  0.78810  0.32060  0.14589  1.0000 -0.0730236785
C   C16       1.0  0.21190  0.53250  0.18745  1.0000 -0.0730236785
C   C17       1.0  0.32060  0.78810  0.85411  1.0000 -0.0730236785
C   C18       1.0  0.46750  0.67940  0.52078  1.0000 -0.0730236785
C   C19       1.0  0.68150  0.41350  0.47118  1.0000 -0.2192797698
C   C20       1.0  0.58650  0.26800  0.80451  1.0000 -0.2192797698
C   C21       1.0  0.73200  0.31850  0.13785  1.0000 -0.2192797698
C   C22       1.0  0.26800  0.58650  0.19549  1.0000 -0.2192797698
C   C23       1.0  0.31850  0.73200  0.86215  1.0000 -0.2192797698
C   C24       1.0  0.41350  0.68150  0.52882  1.0000 -0.2192797698
C   C25       1.0  0.73590  0.42560  0.45778  1.0000 0.2421549248
C   C26       1.0  0.57440  0.31030  0.79111  1.0000 0.2421549248
C   C27       1.0  0.68970  0.26410  0.12445  1.0000 0.2421549248
C   C28       1.0  0.31030  0.57440  0.20889  1.0000 0.2421549248
C   C29       1.0  0.26410  0.68970  0.87555  1.0000 0.2421549248
C   C30       1.0  0.42560  0.73590  0.54222  1.0000 0.2421549248
C   C31       1.0  0.78400  0.48540  0.45219  1.0000 -0.2098227265
C   C32       1.0  0.51460  0.29860  0.78552  1.0000 -0.2098227265
C   C33       1.0  0.70140  0.21600  0.11886  1.0000 -0.2004188702
C   C34       1.0  0.29860  0.51460  0.21448  1.0000 -0.2098227265
C   C35       1.0  0.21600  0.70140  0.88114  1.0000 -0.2098227265
C   C36       1.0  0.48540  0.78400  0.54781  1.0000 -0.2004188702
C   C37       1.0  0.77840  0.53860  0.45987  1.0000 -0.0789558244
C   C38       1.0  0.46140  0.23980  0.79320  1.0000 -0.0789558244
C   C39       1.0  0.76020  0.22160  0.12654  1.0000 -0.0789558244
C   C40       1.0  0.23980  0.46140  0.20680  1.0000 -0.0789558244
C   C41       1.0  0.22160  0.76020  0.87346  1.0000 -0.0789558244
C   C42       1.0  0.53860  0.77840  0.54013  1.0000 -0.0789558244
C   C43       1.0  0.77320  0.36640  0.43216  1.0000 0.5916667618
C   C44       1.0  0.63360  0.40680  0.76549  1.0000 0.5916667618
C   C45       1.0  0.59320  0.22680  0.09883  1.0000 0.5916667618
C   C46       1.0  0.40680  0.63360  0.23451  1.0000 0.5916667618
C   C47       1.0  0.22680  0.59320  0.90117  1.0000 0.5916667618
C   C48       1.0  0.36640  0.77320  0.56784  1.0000 0.5916667618
C   C49       1.0  0.78600  0.28160  0.41274  1.0000 0.279769455
C   C50       1.0  0.71840  0.50440  0.74607  1.0000 0.279769455
C   C51       1.0  0.49560  0.21400  0.07941  1.0000 0.279769455
C   C52       1.0  0.50440  0.71840  0.25393  1.0000 0.279769455
C   C53       1.0  0.21400  0.49560  0.92059  1.0000 0.279769455
C   C54       1.0  0.28160  0.78600  0.58726  1.0000 0.279769455
C   C55       1.0  0.79540  0.23180  0.41946  1.0000 -0.3010513759
C   C56       1.0  0.76820  0.56360  0.75279  1.0000 -0.3010513759
C   C57       1.0  0.43640  0.20460  0.08613  1.0000 -0.3010513759
C   C58       1.0  0.56360  0.76820  0.24721  1.0000 -0.3010513759
C   C59       1.0  0.20460  0.43640  0.91387  1.0000 -0.3010513759
C   C60       1.0  0.23180  0.79540  0.58054  1.0000 -0.3010513759
C   C61       1.0  0.82390  0.20990  0.40290  1.0000 0.279769455
C   C62       1.0  0.79010  0.61400  0.73623  1.0000 0.279769455
C   C63       1.0  0.38600  0.17610  0.06957  1.0000 0.279769455
C   C64       1.0  0.61400  0.79010  0.26377  1.0000 0.279769455
C   C65       1.0  0.17610  0.38600  0.93043  1.0000 0.279769455
C   C66       1.0  0.20990  0.82390  0.59710  1.0000 0.279769455
C   C67       1.0  0.84280  0.23660  0.38020  1.0000 -0.3188914967
C   C68       1.0  0.76340  0.60620  0.71353  1.0000 -0.3188914967
C   C69       1.0  0.39380  0.15720  0.04687  1.0000 -0.3188914967
C   C70       1.0  0.60620  0.76340  0.28647  1.0000 -0.3188914967
C   C71       1.0  0.15720  0.39380  0.95313  1.0000 -0.3188914967
C   C72       1.0  0.23660  0.84280  0.61980  1.0000 -0.3188914967
C   C73       1.0  0.83160  0.28730  0.37414  1.0000 0.2923782525
C   C74       1.0  0.71270  0.54430  0.70747  1.0000 0.2966501353
C   C75       1.0  0.45570  0.16840  0.04081  1.0000 0.2923782525
C   C76       1.0  0.54430  0.71270  0.29253  1.0000 0.2923782525
C   C77       1.0  0.16840  0.45570  0.95919  1.0000 0.2923782525
C   C78       1.0  0.28730  0.83160  0.62586  1.0000 0.2923782525
C   C79       1.0  0.80420  0.30970  0.39020  1.0000 -0.3063227835
C   C80       1.0  0.69030  0.49450  0.72353  1.0000 -0.3063227835
C   C81       1.0  0.50550  0.19580  0.05687  1.0000 -0.3063227835
C   C82       1.0  0.49450  0.69030  0.27647  1.0000 -0.3063227835
C   C83       1.0  0.19580  0.50550  0.94313  1.0000 -0.3063227835
C   C84       1.0  0.30970  0.80420  0.60980  1.0000 -0.3010513759
C   C85       1.0  0.81370  0.11820  0.42571  1.0000 0.5916667618
C   C86       1.0  0.88180  0.69550  0.75904  1.0000 0.5916667618
C   C87       1.0  0.30450  0.18630  0.09238  1.0000 0.5916667618
C   C88       1.0  0.69550  0.88180  0.24096  1.0000 0.5916667618
C   C89       1.0  0.18630  0.30450  0.90762  1.0000 0.5916667618
C   C90       1.0  0.11820  0.81370  0.57429  1.0000 0.5916667618
C   C91       1.0  0.81860  0.02230  0.43898  1.0000 0.2481758533
C   C92       1.0  0.97770  0.79630  0.77231  1.0000 0.2481758533
C   C93       1.0  0.20370  0.18140  0.10565  1.0000 0.2481758533
C   C94       1.0  0.79630  0.97770  0.22769  1.0000 0.2481758533
C   C95       1.0  0.18140  0.20370  0.89435  1.0000 0.2481758533
C   C96       1.0  0.02230  0.81860  0.56102  1.0000 0.2481758533
C   C97       1.0  0.78820  0.01160  0.46097  1.0000 -0.2004188702
C   C98       1.0  0.98840  0.77660  0.79430  1.0000 -0.2004188702
C   C99       1.0  0.22340  0.21180  0.12764  1.0000 -0.2004188702
C   C100      1.0  0.77660  0.98840  0.20570  1.0000 -0.2004188702
C   C101      1.0  0.21180  0.22340  0.87236  1.0000 -0.2004188702
C   C102      1.0  0.01160  0.78820  0.53903  1.0000 -0.2004188702
C   C103      1.0  0.77930  0.95810  0.47382  1.0000 -0.0730236785
C   C104      1.0  0.04190  0.82120  0.80715  1.0000 -0.0730236785
C   C105      1.0  0.17880  0.22070  0.14049  1.0000 -0.0730236785
C   C106      1.0  0.82120  0.04190  0.19285  1.0000 -0.0730236785
C   C107      1.0  0.22070  0.17880  0.85951  1.0000 -0.0730236785
C   C108      1.0  0.95810  0.77930  0.52618  1.0000 -0.0730236785
C   C109      1.0  0.79870  0.91910  0.46571  1.0000 -0.058149368
C   C110      1.0  0.08090  0.87960  0.79904  1.0000 -0.058149368
C   C111      1.0  0.12040  0.20130  0.13238  1.0000 -0.058149368
C   C112      1.0  0.87960  0.08090  0.20096  1.0000 -0.058149368
C   C113      1.0  0.20130  0.12040  0.86762  1.0000 -0.058149368
C   C114      1.0  0.91910  0.79870  0.53429  1.0000 -0.058149368
C   C115      1.0  0.82930  0.92970  0.44273  1.0000 -0.0730236785
C   C116      1.0  0.07030  0.89960  0.77606  1.0000 -0.0730236785
C   C117      1.0  0.10040  0.17070  0.10940  1.0000 -0.0789558244
C   C118      1.0  0.89960  0.07030  0.22394  1.0000 -0.0730236785
C   C119      1.0  0.17070  0.10040  0.89060  1.0000 -0.0730236785
C   C120      1.0  0.92970  0.82930  0.55727  1.0000 -0.0730236785
C   C121      1.0  0.84140  0.98310  0.42936  1.0000 -0.2325903736
C   C122      1.0  0.01690  0.85830  0.76269  1.0000 -0.2325903736
C   C123      1.0  0.14170  0.15860  0.09603  1.0000 -0.2325903736
C   C124      1.0  0.85830  0.01690  0.23731  1.0000 -0.2325903736
C   C125      1.0  0.15860  0.14170  0.90397  1.0000 -0.2325903736
C   C126      1.0  0.98310  0.84140  0.57064  1.0000 -0.2325903736
C   C127      1.0  0.78640  0.86220  0.47978  1.0000 0.6082379816
C   C128      1.0  0.13780  0.92420  0.81311  1.0000 0.6082379816
C   C129      1.0  0.07580  0.21360  0.14645  1.0000 0.6082379816
C   C130      1.0  0.92420  0.13780  0.18689  1.0000 0.6082379816
C   C131      1.0  0.21360  0.07580  0.85355  1.0000 0.6082379816
C   C132      1.0  0.86220  0.78640  0.52022  1.0000 0.6082379816
C   C133      1.0  0.87910  0.30540  0.33333  1.0000 0.6031090721
C   C134      1.0  0.69460  0.57370  0.66667  1.0000 0.6082379816
C   C135      1.0  0.42630  0.12090  0.00000  1.0000 0.6031090721
C   C136      1.0  0.57370  0.69460  0.33333  1.0000 0.6031090721
C   C137      1.0  0.12090  0.42630  0.00000  1.0000 0.6082379816
C   C138      1.0  0.30540  0.87910  0.66667  1.0000 0.6082379816
C   C139      1.0  0.91690  0.34040  0.29188  1.0000 0.2421549248
C   C140      1.0  0.65960  0.57650  0.62521  1.0000 0.2421549248
C   C141      1.0  0.42350  0.08310  0.95855  1.0000 0.2421549248
C   C142      1.0  0.57650  0.65960  0.37479  1.0000 0.2421549248
C   C143      1.0  0.08310  0.42350  0.04145  1.0000 0.2421549248
C   C144      1.0  0.34040  0.91690  0.70812  1.0000 0.2421549248
C   C145      1.0  0.94450  0.30490  0.28745  1.0000 -0.2004188702
C   C146      1.0  0.69510  0.63960  0.62078  1.0000 -0.2004188702
C   C147      1.0  0.36040  0.05550  0.95412  1.0000 -0.2004188702
C   C148      1.0  0.63960  0.69510  0.37922  1.0000 -0.2004188702
C   C149      1.0  0.05550  0.36040  0.04588  1.0000 -0.2004188702
C   C150      1.0  0.30490  0.94450  0.71255  1.0000 -0.2004188702
C   C151      1.0  0.96680  0.30320  0.26481  1.0000 -0.0789558244
C   C152      1.0  0.69680  0.66360  0.59814  1.0000 -0.0789558244
C   C153      1.0  0.33640  0.03320  0.93148  1.0000 -0.0789558244
C   C154      1.0  0.66360  0.69680  0.40186  1.0000 -0.0789558244
C   C155      1.0  0.03320  0.33640  0.06852  1.0000 -0.0789558244
C   C156      1.0  0.30320  0.96680  0.73519  1.0000 -0.0789558244
C   C157      1.0  0.96130  0.33800  0.24584  1.0000 -0.058149368
C   C158      1.0  0.66200  0.62330  0.57917  1.0000 -0.058149368
C   C159      1.0  0.37670  0.03870  0.91251  1.0000 -0.058149368
C   C160      1.0  0.62330  0.66200  0.42083  1.0000 -0.058149368
C   C161      1.0  0.03870  0.37670  0.08749  1.0000 -0.058149368
C   C162      1.0  0.33800  0.96130  0.75416  1.0000 -0.058149368
C   C163      1.0  0.93520  0.37480  0.25010  1.0000 -0.0730236785
C   C164      1.0  0.62520  0.56040  0.58343  1.0000 -0.0730236785
C   C165      1.0  0.43960  0.06480  0.91677  1.0000 -0.0730236785
C   C166      1.0  0.56040  0.62520  0.41657  1.0000 -0.0730236785
C   C167      1.0  0.06480  0.43960  0.08323  1.0000 -0.0730236785
C   C168      1.0  0.37480  0.93520  0.74990  1.0000 -0.0730236785
C   C169      1.0  0.91020  0.37620  0.27290  1.0000 -0.2098227265
C   C170      1.0  0.62380  0.53400  0.60623  1.0000 -0.2098227265
C   C171      1.0  0.46600  0.08980  0.93957  1.0000 -0.2098227265
C   C172      1.0  0.53400  0.62380  0.39377  1.0000 -0.2098227265
C   C173      1.0  0.08980  0.46600  0.06043  1.0000 -0.2098227265
C   C174      1.0  0.37620  0.91020  0.72710  1.0000 -0.2098227265
C   C175      1.0  0.98490  0.33560  0.22118  1.0000 0.6031090721
C   C176      1.0  0.66440  0.64930  0.55451  1.0000 0.6031090721
C   C177      1.0  0.35070  0.01510  0.88785  1.0000 0.6031090721
C   C178      1.0  0.64930  0.66440  0.44549  1.0000 0.6031090721
C   C179      1.0  0.01510  0.35070  0.11215  1.0000 0.6031090721
C   C180      1.0  0.33560  0.98490  0.77882  1.0000 0.6031090721
N   N1        1.0  0.73870  0.37170  0.45067  1.0000 -0.4579134447
N   N2        1.0  0.62830  0.36700  0.78400  1.0000 -0.4527966045
N   N3        1.0  0.63300  0.26130  0.11734  1.0000 -0.4579134447
N   N4        1.0  0.36700  0.62830  0.21600  1.0000 -0.4527966045
N   N5        1.0  0.26130  0.63300  0.88266  1.0000 -0.4527966045
N   N6        1.0  0.37170  0.73870  0.54933  1.0000 -0.4579134447
N   N7        1.0  0.76480  0.30630  0.43047  1.0000 -0.4131344977
N   N8        1.0  0.69370  0.45850  0.76380  1.0000 -0.4131344977
N   N9        1.0  0.54150  0.23520  0.09714  1.0000 -0.4197802904
N   N10       1.0  0.45850  0.69370  0.23620  1.0000 -0.4131344977
N   N11       1.0  0.23520  0.54150  0.90286  1.0000 -0.4131344977
N   N12       1.0  0.30630  0.76480  0.56953  1.0000 -0.4131344977
N   N13       1.0  0.82520  0.06850  0.42292  1.0000 -0.4290601077
N   N14       1.0  0.93150  0.75670  0.75625  1.0000 -0.4380387482
N   N15       1.0  0.24330  0.17480  0.08959  1.0000 -0.4380387482
N   N16       1.0  0.75670  0.93150  0.24375  1.0000 -0.4380387482
N   N17       1.0  0.17480  0.24330  0.91041  1.0000 -0.4380387482
N   N18       1.0  0.06850  0.82520  0.57708  1.0000 -0.4380387482
N   N19       1.0  0.83470  0.15770  0.40524  1.0000 -0.4380387482
N   N20       1.0  0.84230  0.67700  0.73857  1.0000 -0.4380387482
N   N21       1.0  0.32300  0.16530  0.07191  1.0000 -0.4380387482
N   N22       1.0  0.67700  0.84230  0.26143  1.0000 -0.4380387482
N   N23       1.0  0.16530  0.32300  0.92809  1.0000 -0.4380387482
N   N24       1.0  0.15770  0.83470  0.59476  1.0000 -0.4380387482
N   N25       1.0  0.85230  0.31920  0.35214  1.0000 -0.4290601077
N   N26       1.0  0.68080  0.53310  0.68547  1.0000 -0.4290601077
N   N27       1.0  0.46690  0.14770  0.01881  1.0000 -0.4290601077
N   N28       1.0  0.53310  0.68080  0.31453  1.0000 -0.4290601077
N   N29       1.0  0.14770  0.46690  0.98119  1.0000 -0.4290601077
N   N30       1.0  0.31920  0.85230  0.64786  1.0000 -0.4290601077
N   N31       1.0  0.89090  0.34390  0.31408  1.0000 -0.4680126818
N   N32       1.0  0.65610  0.54700  0.64741  1.0000 -0.4680126818
N   N33       1.0  0.45300  0.10910  0.98075  1.0000 -0.4680126818
N   N34       1.0  0.54700  0.65610  0.35259  1.0000 -0.4680126818
N   N35       1.0  0.10910  0.45300  0.01925  1.0000 -0.4680126818
N   N36       1.0  0.34390  0.89090  0.68592  1.0000 -0.4680126818
O   O1        1.0  0.76350  0.63450  0.47460  1.0000 -0.5741562429
O   O2        1.0  0.36550  0.12900  0.80793  1.0000 -0.5741562429
O   O3        1.0  0.87100  0.23650  0.14127  1.0000 -0.5741562429
O   O4        1.0  0.12900  0.36550  0.19207  1.0000 -0.5741562429
O   O5        1.0  0.23650  0.87100  0.85873  1.0000 -0.5741562429
O   O6        1.0  0.63450  0.76350  0.52540  1.0000 -0.5741562429
O   O7        1.0  0.66840  0.56860  0.49132  1.0000 -0.5605753126
O   O8        1.0  0.43140  0.09980  0.82465  1.0000 -0.5605753126
O   O9        1.0  0.90020  0.33160  0.15799  1.0000 -0.5605753126
O   O10       1.0  0.09980  0.43140  0.17535  1.0000 -0.5605753126
O   O11       1.0  0.33160  0.90020  0.84201  1.0000 -0.5605753126
O   O12       1.0  0.56860  0.66840  0.50868  1.0000 -0.5605753126
O   O13       1.0  0.75520  0.85280  0.49959  1.0000 -0.5927116039
O   O14       1.0  0.14720  0.90240  0.83292  1.0000 -0.5927116039
O   O15       1.0  0.09760  0.24480  0.16626  1.0000 -0.5927116039
O   O16       1.0  0.90240  0.14720  0.16708  1.0000 -0.5927116039
O   O17       1.0  0.24480  0.09760  0.83374  1.0000 -0.5927116039
O   O18       1.0  0.85280  0.75520  0.50041  1.0000 -0.5927116039
O   O19       1.0  0.79690  0.82220  0.47021  1.0000 -0.5741562429
O   O20       1.0  0.17780  0.97470  0.80354  1.0000 -0.5741562429
O   O21       1.0  0.02530  0.20310  0.13688  1.0000 -0.5755977991
O   O22       1.0  0.97470  0.17780  0.19646  1.0000 -0.5741562429
O   O23       1.0  0.20310  0.02530  0.86312  1.0000 -0.5755977991
O   O24       1.0  0.82220  0.79690  0.52979  1.0000 -0.5741562429
O   O25       1.0  0.97710  0.36620  0.20510  1.0000 -0.5434504273
O   O26       1.0  0.63380  0.61090  0.53843  1.0000 -0.5434504273
O   O27       1.0  0.38910  0.02290  0.87177  1.0000 -0.5460819366
O   O28       1.0  0.61090  0.63380  0.46157  1.0000 -0.5434504273
O   O29       1.0  0.02290  0.38910  0.12823  1.0000 -0.5434504273
O   O30       1.0  0.36620  0.97710  0.79490  1.0000 -0.5434504273
O   O31       1.0  0.00860  0.29940  0.22046  1.0000 -0.5968853198
O   O32       1.0  0.70060  0.70920  0.55379  1.0000 -0.5968853198
O   O33       1.0  0.29080  0.99140  0.88713  1.0000 -0.5968853198
O   O34       1.0  0.70920  0.70060  0.44621  1.0000 -0.5968853198
O   O35       1.0  0.99140  0.29080  0.11287  1.0000 -0.5968853198
O   O36       1.0  0.29940  0.00860  0.77954  1.0000 -0.5968853198
O   O37       1.0  0.78900  0.12580  0.44333  1.0000 -0.498211551
O   O38       1.0  0.87420  0.66320  0.77666  1.0000 -0.4941277268
O   O39       1.0  0.33680  0.21100  0.11000  1.0000 -0.498211551
O   O40       1.0  0.66320  0.87420  0.22334  1.0000 -0.498211551
O   O41       1.0  0.21100  0.33680  0.89000  1.0000 -0.498211551
O   O42       1.0  0.12580  0.78900  0.55667  1.0000 -0.4941277268
O   O43       1.0  0.80710  0.41040  0.41900  1.0000 -0.5153110686
O   O44       1.0  0.58960  0.39670  0.75233  1.0000 -0.5089213612
O   O45       1.0  0.60330  0.19290  0.08567  1.0000 -0.5153110686
O   O46       1.0  0.39670  0.58960  0.24767  1.0000 -0.5089213612
O   O47       1.0  0.19290  0.60330  0.91433  1.0000 -0.498211551
O   O48       1.0  0.41040  0.80710  0.58100  1.0000 -0.5089213612
O   O49       1.0  0.89160  0.26200  0.33387  1.0000 -0.5434504273
O   O50       1.0  0.73800  0.62960  0.66720  1.0000 -0.5460819366
O   O51       1.0  0.37040  0.10840  0.00054  1.0000 -0.5434504273
O   O52       1.0  0.62960  0.73800  0.33280  1.0000 -0.5434504273
O   O53       1.0  0.10840  0.37040  0.99946  1.0000 -0.5434504273
O   O54       1.0  0.26200  0.89160  0.66613  1.0000 -0.5434504273
O   O55       1.0  0.71550  0.71550  0.50000  1.0000 -1.0771967532
O   O56       1.0  0.28450  0.00000  0.83333  1.0000 -1.0771967532
O   O57       1.0  0.00000  0.28450  0.16667  1.0000 -1.0771967532
