# DDEC6 charges by PACMAN v1.1 (https://github.com/mtap-research/PACMAN-charge/)
data_2016[Cu][nbo]3[ASR]21
_chemical_formula_sum              "Cu6 H90 C132 O30"
_cell_length_a       21.6347
_cell_length_b       21.6347
_cell_length_c       21.6347
_cell_angle_alpha    107.724
_cell_angle_beta     107.724
_cell_angle_gamma    107.724

_symmetry_space_group_name_H-M    "P 1"
_symmetry_Int_Tables_number       1

loop_
  _symmetry_equiv_pos_as_xyz
  'x, y, z'

loop_
  _atom_site_type_symbol
  _atom_site_label
  _atom_site_symmetry_multiplicity
  _atom_site_fract_x
  _atom_site_fract_y
  _atom_site_fract_z
  _atom_site_occupancy
  _atom_site_charge
Cu  Cu1       1.0  0.54368  0.06889  0.54368  1.0000 0.868582301
Cu  Cu2       1.0  0.06889  0.54368  0.54368  1.0000 0.868582301
Cu  Cu3       1.0  0.54368  0.54368  0.06889  1.0000 0.868582301
Cu  Cu4       1.0  0.93111  0.45632  0.45632  1.0000 0.868582301
Cu  Cu5       1.0  0.45632  0.93111  0.45632  1.0000 0.868582301
Cu  Cu6       1.0  0.45632  0.45632  0.93111  1.0000 0.868582301
H   H1        1.0  0.56660  0.14480  0.38470  1.0000 0.1286451255
H   H2        1.0  0.14480  0.38470  0.56660  1.0000 0.1286451255
H   H3        1.0  0.38470  0.56660  0.14480  1.0000 0.1286451255
H   H4        1.0  0.85520  0.43340  0.61530  1.0000 0.1286451255
H   H5        1.0  0.61530  0.85520  0.43340  1.0000 0.1286451255
H   H6        1.0  0.43340  0.61530  0.85520  1.0000 0.1286451255
H   H7        1.0  0.43340  0.85520  0.61530  1.0000 0.1286451255
H   H8        1.0  0.85520  0.61530  0.43340  1.0000 0.1286451255
H   H9        1.0  0.61530  0.43340  0.85520  1.0000 0.1286451255
H   H10       1.0  0.14480  0.56660  0.38470  1.0000 0.1286451255
H   H11       1.0  0.38470  0.14480  0.56660  1.0000 0.1286451255
H   H12       1.0  0.56660  0.38470  0.14480  1.0000 0.1286451255
H   H13       1.0  0.56190  0.16590  0.28550  1.0000 0.1286451255
H   H14       1.0  0.16590  0.28550  0.56190  1.0000 0.1286451255
H   H15       1.0  0.28550  0.56190  0.16590  1.0000 0.1286451255
H   H16       1.0  0.83410  0.43810  0.71450  1.0000 0.1286451255
H   H17       1.0  0.71450  0.83410  0.43810  1.0000 0.1286451255
H   H18       1.0  0.43810  0.71450  0.83410  1.0000 0.1286451255
H   H19       1.0  0.43810  0.83410  0.71450  1.0000 0.1286451255
H   H20       1.0  0.83410  0.71450  0.43810  1.0000 0.1286451255
H   H21       1.0  0.71450  0.43810  0.83410  1.0000 0.1286451255
H   H22       1.0  0.16590  0.56190  0.28550  1.0000 0.1286451255
H   H23       1.0  0.28550  0.16590  0.56190  1.0000 0.1286451255
H   H24       1.0  0.56190  0.28550  0.16590  1.0000 0.1286451255
H   H25       1.0  0.42070  0.95890  0.15340  1.0000 0.1159065497
H   H26       1.0  0.95890  0.15340  0.42070  1.0000 0.1159065497
H   H27       1.0  0.15340  0.42070  0.95890  1.0000 0.1159065497
H   H28       1.0  0.04110  0.57930  0.84660  1.0000 0.1159065497
H   H29       1.0  0.84660  0.04110  0.57930  1.0000 0.1159065497
H   H30       1.0  0.57930  0.84660  0.04110  1.0000 0.1159065497
H   H31       1.0  0.57930  0.04110  0.84660  1.0000 0.1159065497
H   H32       1.0  0.04110  0.84660  0.57930  1.0000 0.1159065497
H   H33       1.0  0.84660  0.57930  0.04110  1.0000 0.1159065497
H   H34       1.0  0.95890  0.42070  0.15340  1.0000 0.1159065497
H   H35       1.0  0.15340  0.95890  0.42070  1.0000 0.1159065497
H   H36       1.0  0.42070  0.15340  0.95890  1.0000 0.1159065497
H   H37       1.0  0.42430  0.93710  0.25290  1.0000 0.1286451255
H   H38       1.0  0.93710  0.25290  0.42430  1.0000 0.1286451255
H   H39       1.0  0.25290  0.42430  0.93710  1.0000 0.1286451255
H   H40       1.0  0.06290  0.57570  0.74710  1.0000 0.1286451255
H   H41       1.0  0.74710  0.06290  0.57570  1.0000 0.1286451255
H   H42       1.0  0.57570  0.74710  0.06290  1.0000 0.1286451255
H   H43       1.0  0.57570  0.06290  0.74710  1.0000 0.1286451255
H   H44       1.0  0.06290  0.74710  0.57570  1.0000 0.1286451255
H   H45       1.0  0.74710  0.57570  0.06290  1.0000 0.1286451255
H   H46       1.0  0.93710  0.42430  0.25290  1.0000 0.1286451255
H   H47       1.0  0.25290  0.93710  0.42430  1.0000 0.1286451255
H   H48       1.0  0.42430  0.25290  0.93710  1.0000 0.1286451255
H   H49       1.0  0.49650  0.98060  0.09460  1.0000 0.1106700158
H   H50       1.0  0.98060  0.09460  0.49650  1.0000 0.1106700158
H   H51       1.0  0.09460  0.49650  0.98060  1.0000 0.1106700158
H   H52       1.0  0.01940  0.50350  0.90540  1.0000 0.1106700158
H   H53       1.0  0.90540  0.01940  0.50350  1.0000 0.1106700158
H   H54       1.0  0.50350  0.90540  0.01940  1.0000 0.1106700158
H   H55       1.0  0.50350  0.01940  0.90540  1.0000 0.1106700158
H   H56       1.0  0.01940  0.90540  0.50350  1.0000 0.1106700158
H   H57       1.0  0.90540  0.50350  0.01940  1.0000 0.1106700158
H   H58       1.0  0.98060  0.49650  0.09460  1.0000 0.1106700158
H   H59       1.0  0.09460  0.98060  0.49650  1.0000 0.1106700158
H   H60       1.0  0.49650  0.09460  0.98060  1.0000 0.1106700158
H   H61       1.0  0.38630  0.12700  0.17210  1.0000 0.0776793313
H   H62       1.0  0.12700  0.17210  0.38630  1.0000 0.0776793313
H   H63       1.0  0.17210  0.38630  0.12700  1.0000 0.0776793313
H   H64       1.0  0.87300  0.61370  0.82790  1.0000 0.0776793313
H   H65       1.0  0.82790  0.87300  0.61370  1.0000 0.0776793313
H   H66       1.0  0.61370  0.82790  0.87300  1.0000 0.0776793313
H   H67       1.0  0.61370  0.87300  0.82790  1.0000 0.0776793313
H   H68       1.0  0.87300  0.82790  0.61370  1.0000 0.0776793313
H   H69       1.0  0.82790  0.61370  0.87300  1.0000 0.0776793313
H   H70       1.0  0.12700  0.38630  0.17210  1.0000 0.0776793313
H   H71       1.0  0.17210  0.12700  0.38630  1.0000 0.0776793313
H   H72       1.0  0.38630  0.17210  0.12700  1.0000 0.0776793313
H   H73       1.0  0.36250  0.22040  0.22040  1.0000 0.1106700158
H   H74       1.0  0.22040  0.22040  0.36250  1.0000 0.1106700158
H   H75       1.0  0.22040  0.36250  0.22040  1.0000 0.1106700158
H   H76       1.0  0.77960  0.63750  0.77960  1.0000 0.1106700158
H   H77       1.0  0.77960  0.77960  0.63750  1.0000 0.1106700158
H   H78       1.0  0.63750  0.77960  0.77960  1.0000 0.1106700158
H   H79       1.0  0.43570  0.27480  0.22990  1.0000 0.1106700158
H   H80       1.0  0.27480  0.22990  0.43570  1.0000 0.1106700158
H   H81       1.0  0.22990  0.43570  0.27480  1.0000 0.1106700158
H   H82       1.0  0.72520  0.56430  0.77010  1.0000 0.1106700158
H   H83       1.0  0.77010  0.72520  0.56430  1.0000 0.1106700158
H   H84       1.0  0.56430  0.77010  0.72520  1.0000 0.1106700158
H   H85       1.0  0.56430  0.72520  0.77010  1.0000 0.1106700158
H   H86       1.0  0.72520  0.77010  0.56430  1.0000 0.1106700158
H   H87       1.0  0.77010  0.56430  0.72520  1.0000 0.1106700158
H   H88       1.0  0.27480  0.43570  0.22990  1.0000 0.1106700158
H   H89       1.0  0.22990  0.27480  0.43570  1.0000 0.1106700158
H   H90       1.0  0.43570  0.22990  0.27480  1.0000 0.1106700158
C   C1        1.0  0.49615  0.02577  0.39376  1.0000 0.5808239357
C   C2        1.0  0.02577  0.39376  0.49615  1.0000 0.5808239357
C   C3        1.0  0.39376  0.49615  0.02577  1.0000 0.5808239357
C   C4        1.0  0.97423  0.50385  0.60624  1.0000 0.5808239357
C   C5        1.0  0.60624  0.97423  0.50385  1.0000 0.5808239357
C   C6        1.0  0.50385  0.60624  0.97423  1.0000 0.5808239357
C   C7        1.0  0.50385  0.97423  0.60624  1.0000 0.5808239357
C   C8        1.0  0.97423  0.60624  0.50385  1.0000 0.5808239357
C   C9        1.0  0.60624  0.50385  0.97423  1.0000 0.5808239357
C   C10       1.0  0.02577  0.49615  0.39376  1.0000 0.5808239357
C   C11       1.0  0.39376  0.02577  0.49615  1.0000 0.5808239357
C   C12       1.0  0.49615  0.39376  0.02577  1.0000 0.5808239357
C   C13       1.0  0.49329  0.03843  0.32819  1.0000 -0.0252804277
C   C14       1.0  0.03843  0.32819  0.49329  1.0000 -0.0252804277
C   C15       1.0  0.32819  0.49329  0.03843  1.0000 -0.0200607252
C   C16       1.0  0.96157  0.50671  0.67181  1.0000 -0.0200607252
C   C17       1.0  0.67181  0.96157  0.50671  1.0000 -0.0252804277
C   C18       1.0  0.50671  0.67181  0.96157  1.0000 -0.0252804277
C   C19       1.0  0.50671  0.96157  0.67181  1.0000 -0.0200607252
C   C20       1.0  0.96157  0.67181  0.50671  1.0000 -0.0200607252
C   C21       1.0  0.67181  0.50671  0.96157  1.0000 -0.0200607252
C   C22       1.0  0.03843  0.49329  0.32819  1.0000 -0.0200607252
C   C23       1.0  0.32819  0.03843  0.49329  1.0000 -0.0200607252
C   C24       1.0  0.49329  0.32819  0.03843  1.0000 -0.0200607252
C   C25       1.0  0.53688  0.10779  0.33845  1.0000 -0.0887635631
C   C26       1.0  0.10779  0.33845  0.53688  1.0000 -0.0887635631
C   C27       1.0  0.33845  0.53688  0.10779  1.0000 -0.0887635631
C   C28       1.0  0.89221  0.46312  0.66155  1.0000 -0.0887635631
C   C29       1.0  0.66155  0.89221  0.46312  1.0000 -0.0887635631
C   C30       1.0  0.46312  0.66155  0.89221  1.0000 -0.0887635631
C   C31       1.0  0.46312  0.89221  0.66155  1.0000 -0.0887635631
C   C32       1.0  0.89221  0.66155  0.46312  1.0000 -0.0887635631
C   C33       1.0  0.66155  0.46312  0.89221  1.0000 -0.0887635631
C   C34       1.0  0.10779  0.53688  0.33845  1.0000 -0.0887635631
C   C35       1.0  0.33845  0.10779  0.53688  1.0000 -0.0887635631
C   C36       1.0  0.53688  0.33845  0.10779  1.0000 -0.0887635631
C   C37       1.0  0.53478  0.11983  0.27898  1.0000 -0.1511057353
C   C38       1.0  0.11983  0.27898  0.53478  1.0000 -0.1511057353
C   C39       1.0  0.27898  0.53478  0.11983  1.0000 -0.1511057353
C   C40       1.0  0.88017  0.46522  0.72102  1.0000 -0.1511057353
C   C41       1.0  0.72102  0.88017  0.46522  1.0000 -0.1511057353
C   C42       1.0  0.46522  0.72102  0.88017  1.0000 -0.1511057353
C   C43       1.0  0.46522  0.88017  0.72102  1.0000 -0.1511057353
C   C44       1.0  0.88017  0.72102  0.46522  1.0000 -0.1511057353
C   C45       1.0  0.72102  0.46522  0.88017  1.0000 -0.1511057353
C   C46       1.0  0.11983  0.53478  0.27898  1.0000 -0.1511057353
C   C47       1.0  0.27898  0.11983  0.53478  1.0000 -0.1511057353
C   C48       1.0  0.53478  0.27898  0.11983  1.0000 -0.1511057353
C   C49       1.0  0.49286  0.06411  0.20916  1.0000 0.0889857872
C   C50       1.0  0.06411  0.20916  0.49286  1.0000 0.0889857872
C   C51       1.0  0.20916  0.49286  0.06411  1.0000 0.0889857872
C   C52       1.0  0.93589  0.50714  0.79084  1.0000 0.0889857872
C   C53       1.0  0.79084  0.93589  0.50714  1.0000 0.0889857872
C   C54       1.0  0.50714  0.79084  0.93589  1.0000 0.0889857872
C   C55       1.0  0.50714  0.93589  0.79084  1.0000 0.0889857872
C   C56       1.0  0.93589  0.79084  0.50714  1.0000 0.0889857872
C   C57       1.0  0.79084  0.50714  0.93589  1.0000 0.0889857872
C   C58       1.0  0.06411  0.49286  0.20916  1.0000 0.0889857872
C   C59       1.0  0.20916  0.06411  0.49286  1.0000 0.0889857872
C   C60       1.0  0.49286  0.20916  0.06411  1.0000 0.0889857872
C   C61       1.0  0.45024  0.99596  0.19969  1.0000 -0.1621235881
C   C62       1.0  0.99596  0.19969  0.45024  1.0000 -0.1621235881
C   C63       1.0  0.19969  0.45024  0.99596  1.0000 -0.1621235881
C   C64       1.0  0.00404  0.54976  0.80031  1.0000 -0.1621235881
C   C65       1.0  0.80031  0.00404  0.54976  1.0000 -0.1621235881
C   C66       1.0  0.54976  0.80031  0.00404  1.0000 -0.1621235881
C   C67       1.0  0.54976  0.00404  0.80031  1.0000 -0.1621235881
C   C68       1.0  0.00404  0.80031  0.54976  1.0000 -0.1621235881
C   C69       1.0  0.80031  0.54976  0.00404  1.0000 -0.1621235881
C   C70       1.0  0.99596  0.45024  0.19969  1.0000 -0.1621235881
C   C71       1.0  0.19969  0.99596  0.45024  1.0000 -0.1621235881
C   C72       1.0  0.45024  0.19969  0.99596  1.0000 -0.1621235881
C   C73       1.0  0.45158  0.98308  0.25944  1.0000 -0.0887635631
C   C74       1.0  0.98308  0.25944  0.45158  1.0000 -0.0887635631
C   C75       1.0  0.25944  0.45158  0.98308  1.0000 -0.0887635631
C   C76       1.0  0.01692  0.54842  0.74056  1.0000 -0.0887635631
C   C77       1.0  0.74056  0.01692  0.54842  1.0000 -0.0887635631
C   C78       1.0  0.54842  0.74056  0.01692  1.0000 -0.0887635631
C   C79       1.0  0.54842  0.01692  0.74056  1.0000 -0.0887635631
C   C80       1.0  0.01692  0.74056  0.54842  1.0000 -0.0887635631
C   C81       1.0  0.74056  0.54842  0.01692  1.0000 -0.0887635631
C   C82       1.0  0.98308  0.45158  0.25944  1.0000 -0.0887635631
C   C83       1.0  0.25944  0.98308  0.45158  1.0000 -0.0887635631
C   C84       1.0  0.45158  0.25944  0.98308  1.0000 -0.0887635631
C   C85       1.0  0.49292  0.07417  0.14387  1.0000 -0.0200607252
C   C86       1.0  0.07417  0.14387  0.49292  1.0000 -0.0200607252
C   C87       1.0  0.14387  0.49292  0.07417  1.0000 -0.0200607252
C   C88       1.0  0.92583  0.50708  0.85613  1.0000 -0.0200607252
C   C89       1.0  0.85613  0.92583  0.50708  1.0000 -0.0200607252
C   C90       1.0  0.50708  0.85613  0.92583  1.0000 -0.0200607252
C   C91       1.0  0.50708  0.92583  0.85613  1.0000 -0.0200607252
C   C92       1.0  0.92583  0.85613  0.50708  1.0000 -0.0200607252
C   C93       1.0  0.85613  0.50708  0.92583  1.0000 -0.0200607252
C   C94       1.0  0.07417  0.49292  0.14387  1.0000 -0.0200607252
C   C95       1.0  0.14387  0.07417  0.49292  1.0000 -0.0200607252
C   C96       1.0  0.49292  0.14387  0.07417  1.0000 -0.0200607252
C   C97       1.0  0.49593  0.02158  0.08944  1.0000 -0.1974553936
C   C98       1.0  0.02158  0.08944  0.49593  1.0000 -0.1974553936
C   C99       1.0  0.08944  0.49593  0.02158  1.0000 -0.1974553936
C   C100      1.0  0.97842  0.50407  0.91056  1.0000 -0.1974553936
C   C101      1.0  0.91056  0.97842  0.50407  1.0000 -0.1974553936
C   C102      1.0  0.50407  0.91056  0.97842  1.0000 -0.1974553936
C   C103      1.0  0.50407  0.97842  0.91056  1.0000 -0.1974553936
C   C104      1.0  0.97842  0.91056  0.50407  1.0000 -0.1974553936
C   C105      1.0  0.91056  0.50407  0.97842  1.0000 -0.1974553936
C   C106      1.0  0.02158  0.49593  0.08944  1.0000 -0.1974553936
C   C107      1.0  0.08944  0.02158  0.49593  1.0000 -0.1974553936
C   C108      1.0  0.49593  0.08944  0.02158  1.0000 -0.1974553936
C   C109      1.0  0.49812  0.02794  0.02794  1.0000 0.0714803153
C   C110      1.0  0.02794  0.02794  0.49812  1.0000 0.0714803153
C   C111      1.0  0.02794  0.49812  0.02794  1.0000 0.0714803153
C   C112      1.0  0.97206  0.50188  0.97206  1.0000 0.0714803153
C   C113      1.0  0.97206  0.97206  0.50188  1.0000 0.0714803153
C   C114      1.0  0.50188  0.97206  0.97206  1.0000 0.0714803153
C   C115      1.0  0.49085  0.13509  0.13509  1.0000 0.1603169269
C   C116      1.0  0.13509  0.13509  0.49085  1.0000 0.1603169269
C   C117      1.0  0.13509  0.49085  0.13509  1.0000 0.1603169269
C   C118      1.0  0.86491  0.50915  0.86491  1.0000 0.1603169269
C   C119      1.0  0.86491  0.86491  0.50915  1.0000 0.1603169269
C   C120      1.0  0.50915  0.86491  0.86491  1.0000 0.1603169269
C   C121      1.0  0.41114  0.17343  0.17343  1.0000 -0.0200607252
C   C122      1.0  0.17343  0.17343  0.41114  1.0000 -0.0144419815
C   C123      1.0  0.17343  0.41114  0.17343  1.0000 -0.0144419815
C   C124      1.0  0.82657  0.58886  0.82657  1.0000 -0.0200607252
C   C125      1.0  0.82657  0.82657  0.58886  1.0000 -0.0200607252
C   C126      1.0  0.58886  0.82657  0.82657  1.0000 -0.0200607252
C   C127      1.0  0.41128  0.22916  0.22916  1.0000 -0.3525516067
C   C128      1.0  0.22916  0.22916  0.41128  1.0000 -0.3525516067
C   C129      1.0  0.22916  0.41128  0.22916  1.0000 -0.3525516067
C   C130      1.0  0.77084  0.58872  0.77084  1.0000 -0.3525516067
C   C131      1.0  0.77084  0.77084  0.58872  1.0000 -0.3525516067
C   C132      1.0  0.58872  0.77084  0.77084  1.0000 -0.3525516067
O   O1        1.0  0.45864  0.96089  0.38008  1.0000 -0.5294272575
O   O2        1.0  0.96089  0.38008  0.45864  1.0000 -0.5294272575
O   O3        1.0  0.38008  0.45864  0.96089  1.0000 -0.5294272575
O   O4        1.0  0.03911  0.54136  0.61992  1.0000 -0.5294272575
O   O5        1.0  0.61992  0.03911  0.54136  1.0000 -0.5294272575
O   O6        1.0  0.54136  0.61992  0.03911  1.0000 -0.5294272575
O   O7        1.0  0.54136  0.03911  0.61992  1.0000 -0.5294272575
O   O8        1.0  0.03911  0.61992  0.54136  1.0000 -0.5294272575
O   O9        1.0  0.61992  0.54136  0.03911  1.0000 -0.5294272575
O   O10       1.0  0.96089  0.45864  0.38008  1.0000 -0.5294272575
O   O11       1.0  0.38008  0.96089  0.45864  1.0000 -0.5294272575
O   O12       1.0  0.45864  0.38008  0.96089  1.0000 -0.5294272575
O   O13       1.0  0.53311  0.07820  0.45434  1.0000 -0.510340072
O   O14       1.0  0.07820  0.45434  0.53311  1.0000 -0.510340072
O   O15       1.0  0.45434  0.53311  0.07820  1.0000 -0.510340072
O   O16       1.0  0.92180  0.46689  0.54566  1.0000 -0.510340072
O   O17       1.0  0.54566  0.92180  0.46689  1.0000 -0.510340072
O   O18       1.0  0.46689  0.54566  0.92180  1.0000 -0.510340072
O   O19       1.0  0.46689  0.92180  0.54566  1.0000 -0.510340072
O   O20       1.0  0.92180  0.54566  0.46689  1.0000 -0.510340072
O   O21       1.0  0.54566  0.46689  0.92180  1.0000 -0.510340072
O   O22       1.0  0.07820  0.53311  0.45434  1.0000 -0.510340072
O   O23       1.0  0.45434  0.07820  0.53311  1.0000 -0.510340072
O   O24       1.0  0.53311  0.45434  0.07820  1.0000 -0.510340072
O   O25       1.0  0.48818  0.18867  0.18867  1.0000 -0.2419711176
O   O26       1.0  0.18867  0.18867  0.48818  1.0000 -0.2419711176
O   O27       1.0  0.18867  0.48818  0.18867  1.0000 -0.2419711176
O   O28       1.0  0.81133  0.51182  0.81133  1.0000 -0.2419711176
O   O29       1.0  0.81133  0.81133  0.51182  1.0000 -0.2419711176
O   O30       1.0  0.51182  0.81133  0.81133  1.0000 -0.2419711176
