# DDEC6 charges by PACMAN v1.1 (https://github.com/mtap-research/PACMAN-charge/)
data_2016[Cd][bcu]3[ASR]1
_chemical_formula_sum              "Cd8 H80 C104 S8 N32 O32"
_cell_length_a       9.5095
_cell_length_b       19.84
_cell_length_c       21.035
_cell_angle_alpha    90
_cell_angle_beta     90
_cell_angle_gamma    90

_symmetry_space_group_name_H-M    "P 1"
_symmetry_Int_Tables_number       1

loop_
  _symmetry_equiv_pos_as_xyz
  'x, y, z'

loop_
  _atom_site_type_symbol
  _atom_site_label
  _atom_site_symmetry_multiplicity
  _atom_site_fract_x
  _atom_site_fract_y
  _atom_site_fract_z
  _atom_site_occupancy
  _atom_site_charge
Cd  Cd1       1.0  0.50754  0.55346  0.42614  1.0000 0.8674378245
Cd  Cd2       1.0  0.99246  0.44654  0.92614  1.0000 0.8674378245
Cd  Cd3       1.0  0.49246  0.05346  0.07386  1.0000 0.8674378245
Cd  Cd4       1.0  0.00754  0.94654  0.57386  1.0000 0.8674378245
Cd  Cd5       1.0  0.49246  0.44654  0.57386  1.0000 0.8674378245
Cd  Cd6       1.0  0.00754  0.55346  0.07386  1.0000 0.8674378245
Cd  Cd7       1.0  0.50754  0.94654  0.92614  1.0000 0.8674378245
Cd  Cd8       1.0  0.99246  0.05346  0.42614  1.0000 0.8674378245
H   H1        1.0  0.47530  0.30920  0.46580  1.0000 0.1311335274
H   H2        1.0  0.02470  0.69080  0.96580  1.0000 0.1311335274
H   H3        1.0  0.52470  0.80920  0.03420  1.0000 0.1311335274
H   H4        1.0  0.97530  0.19080  0.53420  1.0000 0.1311335274
H   H5        1.0  0.52470  0.69080  0.53420  1.0000 0.1311335274
H   H6        1.0  0.97530  0.30920  0.03420  1.0000 0.1311335274
H   H7        1.0  0.47530  0.19080  0.96580  1.0000 0.1311335274
H   H8        1.0  0.02470  0.80920  0.46580  1.0000 0.1311335274
H   H9        1.0  0.57610  0.19620  0.46340  1.0000 0.1186817422
H   H10       1.0  0.92390  0.80380  0.96340  1.0000 0.1186817422
H   H11       1.0  0.42390  0.69620  0.03660  1.0000 0.1186817422
H   H12       1.0  0.07610  0.30380  0.53660  1.0000 0.1186817422
H   H13       1.0  0.42390  0.80380  0.53660  1.0000 0.1186817422
H   H14       1.0  0.07610  0.19620  0.03660  1.0000 0.1186817422
H   H15       1.0  0.57610  0.30380  0.96340  1.0000 0.1186817422
H   H16       1.0  0.92390  0.69620  0.46340  1.0000 0.1186817422
H   H17       1.0  0.37240  0.44950  0.31410  1.0000 0.1311335274
H   H18       1.0  0.12760  0.55050  0.81410  1.0000 0.1311335274
H   H19       1.0  0.62760  0.94950  0.18590  1.0000 0.1311335274
H   H20       1.0  0.87240  0.05050  0.68590  1.0000 0.1311335274
H   H21       1.0  0.62760  0.55050  0.68590  1.0000 0.1311335274
H   H22       1.0  0.87240  0.44950  0.18590  1.0000 0.1311335274
H   H23       1.0  0.37240  0.05050  0.81410  1.0000 0.1311335274
H   H24       1.0  0.12760  0.94950  0.31410  1.0000 0.1311335274
H   H25       1.0  0.32700  0.47320  0.20240  1.0000 0.1370422156
H   H26       1.0  0.17300  0.52680  0.70240  1.0000 0.1370422156
H   H27       1.0  0.67300  0.97320  0.29760  1.0000 0.1370422156
H   H28       1.0  0.82700  0.02680  0.79760  1.0000 0.1370422156
H   H29       1.0  0.67300  0.52680  0.79760  1.0000 0.1370422156
H   H30       1.0  0.82700  0.47320  0.29760  1.0000 0.1370422156
H   H31       1.0  0.32700  0.02680  0.70240  1.0000 0.1370422156
H   H32       1.0  0.17300  0.97320  0.20240  1.0000 0.1370422156
H   H33       1.0  0.55590  0.62020  0.27470  1.0000 0.1186817422
H   H34       1.0  0.94410  0.37980  0.77470  1.0000 0.1186817422
H   H35       1.0  0.44410  0.12020  0.22530  1.0000 0.1186817422
H   H36       1.0  0.05590  0.87980  0.72530  1.0000 0.1186817422
H   H37       1.0  0.44410  0.37980  0.72530  1.0000 0.1186817422
H   H38       1.0  0.05590  0.62020  0.22530  1.0000 0.1186817422
H   H39       1.0  0.55590  0.87980  0.77470  1.0000 0.1186817422
H   H40       1.0  0.94410  0.12020  0.27470  1.0000 0.1186817422
H   H41       1.0  0.46240  0.64090  0.16240  1.0000 0.1186817422
H   H42       1.0  0.03760  0.35910  0.66240  1.0000 0.1186817422
H   H43       1.0  0.53760  0.14090  0.33760  1.0000 0.1186817422
H   H44       1.0  0.96240  0.85910  0.83760  1.0000 0.1186817422
H   H45       1.0  0.53760  0.35910  0.83760  1.0000 0.1186817422
H   H46       1.0  0.96240  0.64090  0.33760  1.0000 0.1186817422
H   H47       1.0  0.46240  0.85910  0.66240  1.0000 0.1186817422
H   H48       1.0  0.03760  0.14090  0.16240  1.0000 0.1186817422
H   H49       1.0  0.35810  0.58710  0.13460  1.0000 0.1370422156
H   H50       1.0  0.14190  0.41290  0.63460  1.0000 0.1370422156
H   H51       1.0  0.64190  0.08710  0.36540  1.0000 0.1370422156
H   H52       1.0  0.85810  0.91290  0.86540  1.0000 0.1370422156
H   H53       1.0  0.64190  0.41290  0.86540  1.0000 0.1370422156
H   H54       1.0  0.85810  0.58710  0.36540  1.0000 0.1370422156
H   H55       1.0  0.35810  0.91290  0.63460  1.0000 0.1370422156
H   H56       1.0  0.14190  0.08710  0.13460  1.0000 0.1370422156
H   H57       1.0  0.47660  0.47990  0.07610  1.0000 0.1370422156
H   H58       1.0  0.02340  0.52010  0.57610  1.0000 0.1370422156
H   H59       1.0  0.52340  0.97990  0.42390  1.0000 0.1370422156
H   H60       1.0  0.97660  0.02010  0.92390  1.0000 0.1370422156
H   H61       1.0  0.52340  0.52010  0.92390  1.0000 0.1370422156
H   H62       1.0  0.97660  0.47990  0.42390  1.0000 0.1370422156
H   H63       1.0  0.47660  0.02010  0.57610  1.0000 0.1370422156
H   H64       1.0  0.02340  0.97990  0.07610  1.0000 0.1370422156
H   H65       1.0  0.70810  0.46570  0.02830  1.0000 0.1311335274
H   H66       1.0  0.79190  0.53430  0.52830  1.0000 0.1311335274
H   H67       1.0  0.29190  0.96570  0.47170  1.0000 0.1311335274
H   H68       1.0  0.20810  0.03430  0.97170  1.0000 0.1311335274
H   H69       1.0  0.29190  0.53430  0.97170  1.0000 0.1311335274
H   H70       1.0  0.20810  0.46570  0.47170  1.0000 0.1311335274
H   H71       1.0  0.70810  0.03430  0.52830  1.0000 0.1311335274
H   H72       1.0  0.79190  0.96570  0.02830  1.0000 0.1311335274
H   H73       1.0  0.72020  0.63070  0.12960  1.0000 0.1186817422
H   H74       1.0  0.77980  0.36930  0.62960  1.0000 0.1186817422
H   H75       1.0  0.27980  0.13070  0.37040  1.0000 0.1186817422
H   H76       1.0  0.22020  0.86930  0.87040  1.0000 0.1186817422
H   H77       1.0  0.27980  0.36930  0.87040  1.0000 0.1186817422
H   H78       1.0  0.22020  0.63070  0.37040  1.0000 0.1186817422
H   H79       1.0  0.72020  0.86930  0.62960  1.0000 0.1186817422
H   H80       1.0  0.77980  0.13070  0.12960  1.0000 0.1186817422
C   C1        1.0  0.65820  0.34819  0.43311  1.0000 -0.1136569112
C   C2        1.0  0.84180  0.65181  0.93311  1.0000 -0.1136569112
C   C3        1.0  0.34180  0.84819  0.06689  1.0000 -0.1136569112
C   C4        1.0  0.15820  0.15181  0.56689  1.0000 -0.1156745181
C   C5        1.0  0.34180  0.65181  0.56689  1.0000 -0.1156745181
C   C6        1.0  0.15820  0.34819  0.06689  1.0000 -0.1136569112
C   C7        1.0  0.65820  0.15181  0.93311  1.0000 -0.1156745181
C   C8        1.0  0.84180  0.84819  0.43311  1.0000 -0.1136569112
C   C9        1.0  0.56670  0.30010  0.45273  1.0000 -0.1136569112
C   C10       1.0  0.93330  0.69990  0.95273  1.0000 -0.1136569112
C   C11       1.0  0.43330  0.80010  0.04727  1.0000 -0.1136569112
C   C12       1.0  0.06670  0.19990  0.54727  1.0000 -0.1136569112
C   C13       1.0  0.43330  0.69990  0.54727  1.0000 -0.1136569112
C   C14       1.0  0.06670  0.30010  0.04727  1.0000 -0.1136569112
C   C15       1.0  0.56670  0.19990  0.95273  1.0000 -0.1136569112
C   C16       1.0  0.93330  0.80010  0.45273  1.0000 -0.1136569112
C   C17       1.0  0.62490  0.23470  0.45120  1.0000 -0.1364636422
C   C18       1.0  0.87510  0.76530  0.95120  1.0000 -0.1364636422
C   C19       1.0  0.37510  0.73470  0.04880  1.0000 -0.1364636422
C   C20       1.0  0.12490  0.26530  0.54880  1.0000 -0.1364636422
C   C21       1.0  0.37510  0.76530  0.54880  1.0000 -0.1364636422
C   C22       1.0  0.12490  0.23470  0.04880  1.0000 -0.1364636422
C   C23       1.0  0.62490  0.26530  0.95120  1.0000 -0.1364636422
C   C24       1.0  0.87510  0.73470  0.45120  1.0000 -0.1364636422
C   C25       1.0  0.75880  0.23396  0.43012  1.0000 -0.1136569112
C   C26       1.0  0.74120  0.76604  0.93012  1.0000 -0.1136569112
C   C27       1.0  0.24120  0.73396  0.06988  1.0000 -0.1136569112
C   C28       1.0  0.25880  0.26604  0.56988  1.0000 -0.1136569112
C   C29       1.0  0.24120  0.76604  0.56988  1.0000 -0.1136569112
C   C30       1.0  0.25880  0.23396  0.06988  1.0000 -0.1136569112
C   C31       1.0  0.75880  0.26604  0.93012  1.0000 -0.1136569112
C   C32       1.0  0.74120  0.73396  0.43012  1.0000 -0.1136569112
C   C33       1.0  0.85380  0.17445  0.42251  1.0000 0.5417609214
C   C34       1.0  0.64620  0.82555  0.92251  1.0000 0.5417609214
C   C35       1.0  0.14620  0.67445  0.07749  1.0000 0.5417609214
C   C36       1.0  0.35380  0.32555  0.57749  1.0000 0.5417609214
C   C37       1.0  0.14620  0.82555  0.57749  1.0000 0.5417609214
C   C38       1.0  0.35380  0.17445  0.07749  1.0000 0.5417609214
C   C39       1.0  0.85380  0.32555  0.92251  1.0000 0.5417609214
C   C40       1.0  0.64620  0.67445  0.42251  1.0000 0.5417609214
C   C41       1.0  0.63540  0.42222  0.42909  1.0000 0.5614883154
C   C42       1.0  0.86460  0.57778  0.92909  1.0000 0.5614883154
C   C43       1.0  0.36460  0.92222  0.07091  1.0000 0.5614883154
C   C44       1.0  0.13540  0.07778  0.57091  1.0000 0.5614883154
C   C45       1.0  0.36460  0.57778  0.57091  1.0000 0.5614883154
C   C46       1.0  0.13540  0.42222  0.07091  1.0000 0.5614883154
C   C47       1.0  0.63540  0.07778  0.92909  1.0000 0.5614883154
C   C48       1.0  0.86460  0.92222  0.42909  1.0000 0.5614883154
C   C49       1.0  0.40390  0.48720  0.29210  1.0000 -0.0437383159
C   C50       1.0  0.09610  0.51280  0.79210  1.0000 -0.0437383159
C   C51       1.0  0.59610  0.98720  0.20790  1.0000 -0.0437383159
C   C52       1.0  0.90390  0.01280  0.70790  1.0000 -0.0437383159
C   C53       1.0  0.59610  0.51280  0.70790  1.0000 -0.0437383159
C   C54       1.0  0.90390  0.48720  0.20790  1.0000 -0.0437383159
C   C55       1.0  0.40390  0.01280  0.79210  1.0000 -0.0437383159
C   C56       1.0  0.09610  0.98720  0.29210  1.0000 -0.0437383159
C   C57       1.0  0.37840  0.49980  0.23050  1.0000 -0.100571327
C   C58       1.0  0.12160  0.50020  0.73050  1.0000 -0.100571327
C   C59       1.0  0.62160  0.99980  0.26950  1.0000 -0.100571327
C   C60       1.0  0.87840  0.00020  0.76950  1.0000 -0.100571327
C   C61       1.0  0.62160  0.50020  0.76950  1.0000 -0.100571327
C   C62       1.0  0.87840  0.49980  0.26950  1.0000 -0.100571327
C   C63       1.0  0.37840  0.00020  0.73050  1.0000 -0.100571327
C   C64       1.0  0.12160  0.99980  0.23050  1.0000 -0.100571327
C   C65       1.0  0.50450  0.58050  0.27107  1.0000 0.0837714792
C   C66       1.0  0.99550  0.41950  0.77107  1.0000 0.0837714792
C   C67       1.0  0.49550  0.08050  0.22893  1.0000 0.0837714792
C   C68       1.0  0.00450  0.91950  0.72893  1.0000 0.0837714792
C   C69       1.0  0.49550  0.41950  0.72893  1.0000 0.0837714792
C   C70       1.0  0.00450  0.58050  0.22893  1.0000 0.0837714792
C   C71       1.0  0.50450  0.91950  0.77107  1.0000 0.0837714792
C   C72       1.0  0.99550  0.08050  0.27107  1.0000 0.0837714792
C   C73       1.0  0.44760  0.59300  0.15604  1.0000 -0.0316098198
C   C74       1.0  0.05240  0.40700  0.65604  1.0000 -0.0316098198
C   C75       1.0  0.55240  0.09300  0.34396  1.0000 -0.0316098198
C   C76       1.0  0.94760  0.90700  0.84396  1.0000 -0.0316098198
C   C77       1.0  0.55240  0.40700  0.84396  1.0000 -0.0316098198
C   C78       1.0  0.94760  0.59300  0.34396  1.0000 -0.0316098198
C   C79       1.0  0.44760  0.90700  0.65604  1.0000 -0.0316098198
C   C80       1.0  0.05240  0.09300  0.15604  1.0000 -0.0316098198
C   C81       1.0  0.55360  0.50830  0.08093  1.0000 -0.100571327
C   C82       1.0  0.94640  0.49170  0.58093  1.0000 -0.100571327
C   C83       1.0  0.44640  0.00830  0.41907  1.0000 -0.100571327
C   C84       1.0  0.05360  0.99170  0.91907  1.0000 -0.100571327
C   C85       1.0  0.44640  0.49170  0.91907  1.0000 -0.100571327
C   C86       1.0  0.05360  0.50830  0.41907  1.0000 -0.100571327
C   C87       1.0  0.55360  0.99170  0.58093  1.0000 -0.100571327
C   C88       1.0  0.94640  0.00830  0.08093  1.0000 -0.100571327
C   C89       1.0  0.68170  0.50090  0.05495  1.0000 -0.0316098198
C   C90       1.0  0.81830  0.49910  0.55495  1.0000 -0.0316098198
C   C91       1.0  0.31830  0.00090  0.44505  1.0000 -0.0316098198
C   C92       1.0  0.18170  0.99910  0.94505  1.0000 -0.0316098198
C   C93       1.0  0.31830  0.49910  0.94505  1.0000 -0.0316098198
C   C94       1.0  0.18170  0.50090  0.44505  1.0000 -0.0316098198
C   C95       1.0  0.68170  0.99910  0.55495  1.0000 -0.0316098198
C   C96       1.0  0.81830  0.00090  0.05495  1.0000 -0.0316098198
C   C97       1.0  0.68940  0.59130  0.11022  1.0000 0.0837714792
C   C98       1.0  0.81060  0.40870  0.61022  1.0000 0.0837714792
C   C99       1.0  0.31060  0.09130  0.38978  1.0000 0.0837714792
C   C100      1.0  0.18940  0.90870  0.88978  1.0000 0.0837714792
C   C101      1.0  0.31060  0.40870  0.88978  1.0000 0.0837714792
C   C102      1.0  0.18940  0.59130  0.38978  1.0000 0.0837714792
C   C103      1.0  0.68940  0.90870  0.61022  1.0000 0.0837714792
C   C104      1.0  0.81060  0.09130  0.11022  1.0000 0.0837714792
S   S1        1.0  0.81767  0.31384  0.41213  1.0000 0.1311335274
S   S2        1.0  0.68233  0.68616  0.91213  1.0000 0.1311335274
S   S3        1.0  0.18233  0.81384  0.08787  1.0000 0.1311335274
S   S4        1.0  0.31767  0.18616  0.58787  1.0000 0.1311335274
S   S5        1.0  0.18233  0.68616  0.58787  1.0000 0.1311335274
S   S6        1.0  0.31767  0.31384  0.08787  1.0000 0.1311335274
S   S7        1.0  0.81767  0.18616  0.91213  1.0000 0.1311335274
S   S8        1.0  0.68233  0.81384  0.41213  1.0000 0.1311335274
N   N1        1.0  0.48300  0.53803  0.31789  1.0000 -0.2892793399
N   N2        1.0  0.01700  0.46197  0.81789  1.0000 -0.2892793399
N   N3        1.0  0.51700  0.03803  0.18211  1.0000 -0.2892793399
N   N4        1.0  0.98300  0.96197  0.68211  1.0000 -0.2892793399
N   N5        1.0  0.51700  0.46197  0.68211  1.0000 -0.2892793399
N   N6        1.0  0.98300  0.53803  0.18211  1.0000 -0.2892793399
N   N7        1.0  0.48300  0.96197  0.81789  1.0000 -0.2892793399
N   N8        1.0  0.01700  0.03803  0.31789  1.0000 -0.2892793399
N   N9        1.0  0.44310  0.55940  0.21755  1.0000 0.017307422
N   N10       1.0  0.05690  0.44060  0.71755  1.0000 0.017307422
N   N11       1.0  0.55690  0.05940  0.28245  1.0000 0.017307422
N   N12       1.0  0.94310  0.94060  0.78245  1.0000 0.017307422
N   N13       1.0  0.55690  0.44060  0.78245  1.0000 0.017307422
N   N14       1.0  0.94310  0.55940  0.28245  1.0000 0.017307422
N   N15       1.0  0.44310  0.94060  0.71755  1.0000 0.017307422
N   N16       1.0  0.05690  0.05940  0.21755  1.0000 0.017307422
N   N17       1.0  0.56000  0.56616  0.11603  1.0000 0.017307422
N   N18       1.0  0.94000  0.43384  0.61603  1.0000 0.017307422
N   N19       1.0  0.44000  0.06616  0.38397  1.0000 0.017307422
N   N20       1.0  0.06000  0.93384  0.88397  1.0000 0.017307422
N   N21       1.0  0.44000  0.43384  0.88397  1.0000 0.017307422
N   N22       1.0  0.06000  0.56616  0.38397  1.0000 0.017307422
N   N23       1.0  0.56000  0.93384  0.61603  1.0000 0.017307422
N   N24       1.0  0.94000  0.06616  0.11603  1.0000 0.017307422
N   N25       1.0  0.76800  0.55277  0.07328  1.0000 -0.2892793399
N   N26       1.0  0.73200  0.44723  0.57328  1.0000 -0.2892793399
N   N27       1.0  0.23200  0.05277  0.42672  1.0000 -0.2892793399
N   N28       1.0  0.26800  0.94723  0.92672  1.0000 -0.2892793399
N   N29       1.0  0.23200  0.44723  0.92672  1.0000 -0.2892793399
N   N30       1.0  0.26800  0.55277  0.42672  1.0000 -0.2892793399
N   N31       1.0  0.76800  0.94723  0.57328  1.0000 -0.2892793399
N   N32       1.0  0.73200  0.05277  0.07328  1.0000 -0.2892793399
O   O1        1.0  0.97110  0.18115  0.39812  1.0000 -0.5497300949
O   O2        1.0  0.52890  0.81885  0.89812  1.0000 -0.5497300949
O   O3        1.0  0.02890  0.68115  0.10188  1.0000 -0.5497300949
O   O4        1.0  0.47110  0.31885  0.60188  1.0000 -0.5497300949
O   O5        1.0  0.02890  0.81885  0.60188  1.0000 -0.5497300949
O   O6        1.0  0.47110  0.18115  0.10188  1.0000 -0.5497300949
O   O7        1.0  0.97110  0.31885  0.89812  1.0000 -0.5497300949
O   O8        1.0  0.52890  0.68115  0.39812  1.0000 -0.5497300949
O   O9        1.0  0.80600  0.11891  0.44272  1.0000 -0.5497300949
O   O10       1.0  0.69400  0.88109  0.94272  1.0000 -0.5497300949
O   O11       1.0  0.19400  0.61891  0.05728  1.0000 -0.5497300949
O   O12       1.0  0.30600  0.38109  0.55728  1.0000 -0.5497300949
O   O13       1.0  0.19400  0.88109  0.55728  1.0000 -0.5497300949
O   O14       1.0  0.30600  0.11891  0.05728  1.0000 -0.5497300949
O   O15       1.0  0.80600  0.38109  0.94272  1.0000 -0.5497300949
O   O16       1.0  0.69400  0.61891  0.44272  1.0000 -0.5497300949
O   O17       1.0  0.72150  0.45827  0.40205  1.0000 -0.5497300949
O   O18       1.0  0.77850  0.54173  0.90205  1.0000 -0.5497300949
O   O19       1.0  0.27850  0.95827  0.09795  1.0000 -0.5497300949
O   O20       1.0  0.22150  0.04173  0.59795  1.0000 -0.5497300949
O   O21       1.0  0.27850  0.54173  0.59795  1.0000 -0.5497300949
O   O22       1.0  0.22150  0.45827  0.09795  1.0000 -0.5497300949
O   O23       1.0  0.72150  0.04173  0.90205  1.0000 -0.5497300949
O   O24       1.0  0.77850  0.95827  0.40205  1.0000 -0.5497300949
O   O25       1.0  0.52100  0.44353  0.45464  1.0000 -0.5691920371
O   O26       1.0  0.97900  0.55647  0.95464  1.0000 -0.5691920371
O   O27       1.0  0.47900  0.94353  0.04536  1.0000 -0.5691920371
O   O28       1.0  0.02100  0.05647  0.54536  1.0000 -0.5691920371
O   O29       1.0  0.47900  0.55647  0.54536  1.0000 -0.5691920371
O   O30       1.0  0.02100  0.44353  0.04536  1.0000 -0.5691920371
O   O31       1.0  0.52100  0.05647  0.95464  1.0000 -0.5691920371
O   O32       1.0  0.97900  0.94353  0.45464  1.0000 -0.5691920371
