# DDEC6 charges by PACMAN v1.1 (https://github.com/mtap-research/PACMAN-charge/)
data_2016[Eu][tfz]3[ASR]1
_chemical_formula_sum              "Eu6 H28 C68 O40"
_cell_length_a       12.7757
_cell_length_b       12.7757
_cell_length_c       20.9497
_cell_angle_alpha    75.2653
_cell_angle_beta     104.735
_cell_angle_gamma    128.976

_symmetry_space_group_name_H-M    "P 1"
_symmetry_Int_Tables_number       1

loop_
  _symmetry_equiv_pos_as_xyz
  'x, y, z'

loop_
  _atom_site_type_symbol
  _atom_site_label
  _atom_site_symmetry_multiplicity
  _atom_site_fract_x
  _atom_site_fract_y
  _atom_site_fract_z
  _atom_site_occupancy
  _atom_site_charge
Eu  Eu1       1.0  0.86121  0.86121  0.25000  1.0000 2.0755287816
Eu  Eu2       1.0  0.13879  0.13879  0.75000  1.0000 2.0755287816
Eu  Eu3       1.0  0.53937  0.82013  0.14180  1.0000 1.9678858925
Eu  Eu4       1.0  0.82013  0.53937  0.35820  1.0000 1.9678858925
Eu  Eu5       1.0  0.46063  0.17987  0.85820  1.0000 1.9678858925
Eu  Eu6       1.0  0.17987  0.46063  0.64180  1.0000 1.9678858925
H   H1        1.0  0.82170  0.46310  0.15080  1.0000 0.1379441069
H   H2        1.0  0.46310  0.82170  0.34920  1.0000 0.1379441069
H   H3        1.0  0.17830  0.53690  0.84920  1.0000 0.1379441069
H   H4        1.0  0.53690  0.17830  0.65080  1.0000 0.1379441069
H   H5        1.0  0.63350  0.65210  0.99440  1.0000 0.1127896864
H   H6        1.0  0.65210  0.63350  0.50560  1.0000 0.1127896864
H   H7        1.0  0.36650  0.34790  0.00560  1.0000 0.1127896864
H   H8        1.0  0.34790  0.36650  0.49440  1.0000 0.1127896864
H   H9        1.0  0.69650  0.54370  0.95880  1.0000 0.1452614624
H   H10       1.0  0.54370  0.69650  0.54120  1.0000 0.1452614624
H   H11       1.0  0.30350  0.45630  0.04120  1.0000 0.1452614624
H   H12       1.0  0.45630  0.30350  0.45880  1.0000 0.1452614624
H   H13       1.0  0.04770  0.59930  0.06550  1.0000 0.1379441069
H   H14       1.0  0.59930  0.04770  0.43450  1.0000 0.1379441069
H   H15       1.0  0.95230  0.40070  0.93450  1.0000 0.1379441069
H   H16       1.0  0.40070  0.95230  0.56550  1.0000 0.1379441069
H   H17       1.0  0.13310  0.33810  0.16050  1.0000 0.1265437041
H   H18       1.0  0.33810  0.13310  0.33950  1.0000 0.1265437041
H   H19       1.0  0.86690  0.66190  0.83950  1.0000 0.1265437041
H   H20       1.0  0.66190  0.86690  0.66050  1.0000 0.1265437041
H   H21       1.0  0.74590  0.19770  0.08310  1.0000 0.1265437041
H   H22       1.0  0.19770  0.74590  0.41690  1.0000 0.1265437041
H   H23       1.0  0.25410  0.80230  0.91690  1.0000 0.1265437041
H   H24       1.0  0.80230  0.25410  0.58310  1.0000 0.1265437041
H   H25       1.0  0.39570  0.97810  0.04330  1.0000 0.1379441069
H   H26       1.0  0.97810  0.39570  0.45670  1.0000 0.1379441069
H   H27       1.0  0.60430  0.02190  0.95670  1.0000 0.1379441069
H   H28       1.0  0.02190  0.60430  0.54330  1.0000 0.1379441069
C   C1        1.0  0.76750  0.49710  0.05260  1.0000 0.2697374855
C   C2        1.0  0.49710  0.76750  0.44740  1.0000 0.2697374855
C   C3        1.0  0.23250  0.50290  0.94740  1.0000 0.2697374855
C   C4        1.0  0.50290  0.23250  0.55260  1.0000 0.2697374855
C   C5        1.0  0.78510  0.50390  0.11920  1.0000 -0.258788545
C   C6        1.0  0.50390  0.78510  0.38080  1.0000 -0.258788545
C   C7        1.0  0.21490  0.49610  0.88080  1.0000 -0.258788545
C   C8        1.0  0.49610  0.21490  0.61920  1.0000 -0.258788545
C   C9        1.0  0.74830  0.57250  0.14030  1.0000 0.0202146914
C   C10       1.0  0.57250  0.74830  0.35970  1.0000 0.0202146914
C   C11       1.0  0.25170  0.42750  0.85970  1.0000 0.0202146914
C   C12       1.0  0.42750  0.25170  0.64030  1.0000 0.0202146914
C   C13       1.0  0.69690  0.63470  0.09410  1.0000 -0.1002222191
C   C14       1.0  0.63470  0.69690  0.40590  1.0000 -0.1002222191
C   C15       1.0  0.30310  0.36530  0.90590  1.0000 -0.1002222191
C   C16       1.0  0.36530  0.30310  0.59410  1.0000 -0.1002222191
C   C17       1.0  0.67510  0.61670  0.02640  1.0000 -0.077337202
C   C18       1.0  0.61670  0.67510  0.47360  1.0000 -0.077337202
C   C19       1.0  0.32490  0.38330  0.97360  1.0000 -0.077337202
C   C20       1.0  0.38330  0.32490  0.52640  1.0000 -0.077337202
C   C21       1.0  0.71030  0.55150  0.00460  1.0000 -0.2023841481
C   C22       1.0  0.55150  0.71030  0.49540  1.0000 -0.2023841481
C   C23       1.0  0.28970  0.44850  0.99540  1.0000 -0.2023841481
C   C24       1.0  0.44850  0.28970  0.50460  1.0000 -0.2023841481
C   C25       1.0  0.76770  0.56830  0.21470  1.0000 0.6098505069
C   C26       1.0  0.56830  0.76770  0.28530  1.0000 0.6098505069
C   C27       1.0  0.23230  0.43170  0.78530  1.0000 0.6098505069
C   C28       1.0  0.43170  0.23230  0.71470  1.0000 0.6098505069
C   C29       1.0  0.65260  0.70580  0.11070  1.0000 0.602830093
C   C30       1.0  0.70580  0.65260  0.38930  1.0000 0.602830093
C   C31       1.0  0.34740  0.29420  0.88930  1.0000 0.602830093
C   C32       1.0  0.29420  0.34740  0.61070  1.0000 0.602830093
C   C33       1.0  0.88590  0.40270  0.06980  1.0000 0.2162047733
C   C34       1.0  0.40270  0.88590  0.43020  1.0000 0.2162047733
C   C35       1.0  0.11410  0.59730  0.93020  1.0000 0.2162047733
C   C36       1.0  0.59730  0.11410  0.56980  1.0000 0.2162047733
C   C37       1.0  0.01930  0.50930  0.08060  1.0000 -0.2023841481
C   C38       1.0  0.50930  0.01930  0.41940  1.0000 -0.2023841481
C   C39       1.0  0.98070  0.49070  0.91940  1.0000 -0.2023841481
C   C40       1.0  0.49070  0.98070  0.58060  1.0000 -0.2023841481
C   C41       1.0  0.11460  0.48700  0.11360  1.0000 -0.0195916945
C   C42       1.0  0.48700  0.11460  0.38640  1.0000 -0.0195916945
C   C43       1.0  0.88540  0.51300  0.88640  1.0000 -0.0195916945
C   C44       1.0  0.51300  0.88540  0.61360  1.0000 -0.0195916945
C   C45       1.0  0.07000  0.35560  0.13780  1.0000 -0.118589029
C   C46       1.0  0.35560  0.07000  0.36220  1.0000 -0.118589029
C   C47       1.0  0.93000  0.64440  0.86220  1.0000 -0.118589029
C   C48       1.0  0.64440  0.93000  0.63780  1.0000 -0.118589029
C   C49       1.0  0.93040  0.24780  0.12850  1.0000 -0.0008655641
C   C50       1.0  0.24780  0.93040  0.37150  1.0000 -0.0008655641
C   C51       1.0  0.06960  0.75220  0.87150  1.0000 -0.0008655641
C   C52       1.0  0.75220  0.06960  0.62850  1.0000 -0.0008655641
C   C53       1.0  0.83900  0.27100  0.09230  1.0000 -0.2122337859
C   C54       1.0  0.27100  0.83900  0.40770  1.0000 -0.2122337859
C   C55       1.0  0.16100  0.72900  0.90770  1.0000 -0.2122337859
C   C56       1.0  0.72900  0.16100  0.59230  1.0000 -0.2122337859
C   C57       1.0  0.25920  0.60060  0.12170  1.0000 0.5712324787
C   C58       1.0  0.60060  0.25920  0.37830  1.0000 0.5712324787
C   C59       1.0  0.74080  0.39940  0.87830  1.0000 0.5712324787
C   C60       1.0  0.39940  0.74080  0.62170  1.0000 0.5712324787
C   C61       1.0  0.87970  0.10450  0.15770  1.0000 0.6328249384
C   C62       1.0  0.10450  0.87970  0.34230  1.0000 0.6328249384
C   C63       1.0  0.12030  0.89550  0.84230  1.0000 0.6328249384
C   C64       1.0  0.89550  0.12030  0.65770  1.0000 0.6328249384
C   C65       1.0  0.45700  0.99040  0.01840  1.0000 0.2337728847
C   C66       1.0  0.99040  0.45700  0.48160  1.0000 0.2337728847
C   C67       1.0  0.54300  0.00960  0.98160  1.0000 0.2337728847
C   C68       1.0  0.00960  0.54300  0.51840  1.0000 0.2337728847
O   O1        1.0  0.79320  0.42400  0.02970  1.0000 -0.2242935229
O   O2        1.0  0.42400  0.79320  0.47030  1.0000 -0.2242935229
O   O3        1.0  0.20680  0.57600  0.97030  1.0000 -0.2242935229
O   O4        1.0  0.57600  0.20680  0.52970  1.0000 -0.2242935229
O   O5        1.0  0.86080  0.67540  0.24210  1.0000 -0.7428944822
O   O6        1.0  0.67540  0.86080  0.25790  1.0000 -0.7428944822
O   O7        1.0  0.13920  0.32460  0.75790  1.0000 -0.7428944822
O   O8        1.0  0.32460  0.13920  0.74210  1.0000 -0.7428944822
O   O9        1.0  0.69820  0.45880  0.24770  1.0000 -0.5386138748
O   O10       1.0  0.45880  0.69820  0.25230  1.0000 -0.5386138748
O   O11       1.0  0.30180  0.54120  0.75230  1.0000 -0.5386138748
O   O12       1.0  0.54120  0.30180  0.74770  1.0000 -0.5386138748
O   O13       1.0  0.60070  0.75270  0.06620  1.0000 -0.5896710943
O   O14       1.0  0.75270  0.60070  0.43380  1.0000 -0.5896710943
O   O15       1.0  0.39930  0.24730  0.93380  1.0000 -0.5896710943
O   O16       1.0  0.24730  0.39930  0.56620  1.0000 -0.5896710943
O   O17       1.0  0.66480  0.71660  0.17200  1.0000 -0.7428944822
O   O18       1.0  0.71660  0.66480  0.32800  1.0000 -0.7428944822
O   O19       1.0  0.33520  0.28340  0.82800  1.0000 -0.7428944822
O   O20       1.0  0.28340  0.33520  0.67200  1.0000 -0.7428944822
O   O21       1.0  0.34830  0.58050  0.13170  1.0000 -0.6207801293
O   O22       1.0  0.58050  0.34830  0.36830  1.0000 -0.6207801293
O   O23       1.0  0.65170  0.41950  0.86830  1.0000 -0.6207801293
O   O24       1.0  0.41950  0.65170  0.63170  1.0000 -0.6207801293
O   O25       1.0  0.29680  0.72000  0.12260  1.0000 -0.6661148261
O   O26       1.0  0.72000  0.29680  0.37740  1.0000 -0.6661148261
O   O27       1.0  0.70320  0.28000  0.87740  1.0000 -0.6661148261
O   O28       1.0  0.28000  0.70320  0.62260  1.0000 -0.6661148261
O   O29       1.0  0.95310  0.09070  0.20770  1.0000 -0.6661148261
O   O30       1.0  0.09070  0.95310  0.29230  1.0000 -0.6661148261
O   O31       1.0  0.04690  0.90930  0.79230  1.0000 -0.6661148261
O   O32       1.0  0.90930  0.04690  0.70770  1.0000 -0.6661148261
O   O33       1.0  0.76850  0.00790  0.13290  1.0000 -0.7061229388
O   O34       1.0  0.00790  0.76850  0.36710  1.0000 -0.7061229388
O   O35       1.0  0.23150  0.99210  0.86710  1.0000 -0.7061229388
O   O36       1.0  0.99210  0.23150  0.63290  1.0000 -0.7061229388
O   O37       1.0  0.51730  0.93550  0.03940  1.0000 -0.3973925005
O   O38       1.0  0.93550  0.51730  0.46060  1.0000 -0.3973925005
O   O39       1.0  0.48270  0.06450  0.96060  1.0000 -0.3973925005
O   O40       1.0  0.06450  0.48270  0.53940  1.0000 -0.3973925005
