# DDEC6 charges by PACMAN v1.1 (https://github.com/mtap-research/PACMAN-charge/)
data_2016[Th][cor]3[ASR]1
_chemical_formula_sum              "Th4 H72 C126 N6 O36"
_cell_length_a       17.1687
_cell_length_b       17.1687
_cell_length_c       17.1687
_cell_angle_alpha    92.7762
_cell_angle_beta     92.7762
_cell_angle_gamma    92.7762

_symmetry_space_group_name_H-M    "P 1"
_symmetry_Int_Tables_number       1

loop_
  _symmetry_equiv_pos_as_xyz
  'x, y, z'

loop_
  _atom_site_type_symbol
  _atom_site_label
  _atom_site_symmetry_multiplicity
  _atom_site_fract_x
  _atom_site_fract_y
  _atom_site_fract_z
  _atom_site_occupancy
  _atom_site_charge
Th  Th1       1.0  0.65445  0.65445  0.65445  1.0000 2.2305810499
Th  Th2       1.0  0.84555  0.84555  0.84555  1.0000 2.2305810499
Th  Th3       1.0  0.34555  0.34555  0.34555  1.0000 2.2305810499
Th  Th4       1.0  0.15445  0.15445  0.15445  1.0000 2.2305810499
H   H1        1.0  0.87544  0.69999  0.30970  1.0000 0.1246353022
H   H2        1.0  0.69999  0.30970  0.87544  1.0000 0.1246353022
H   H3        1.0  0.30970  0.87544  0.69999  1.0000 0.1246353022
H   H4        1.0  0.62456  0.19030  0.80001  1.0000 0.1246353022
H   H5        1.0  0.80001  0.62456  0.19030  1.0000 0.1246353022
H   H6        1.0  0.19030  0.80001  0.62456  1.0000 0.1246353022
H   H7        1.0  0.12456  0.30001  0.69030  1.0000 0.1246353022
H   H8        1.0  0.30001  0.69030  0.12456  1.0000 0.1246353022
H   H9        1.0  0.69030  0.12456  0.30001  1.0000 0.1246353022
H   H10       1.0  0.37544  0.80970  0.19999  1.0000 0.1246353022
H   H11       1.0  0.19999  0.37544  0.80970  1.0000 0.1246353022
H   H12       1.0  0.80970  0.19999  0.37544  1.0000 0.1246353022
H   H13       1.0  0.79814  0.71699  0.41710  1.0000 0.1290804053
H   H14       1.0  0.71699  0.41710  0.79814  1.0000 0.1290804053
H   H15       1.0  0.41710  0.79814  0.71699  1.0000 0.1290804053
H   H16       1.0  0.70186  0.08290  0.78301  1.0000 0.1290804053
H   H17       1.0  0.78301  0.70186  0.08290  1.0000 0.1290804053
H   H18       1.0  0.08290  0.78301  0.70186  1.0000 0.1290804053
H   H19       1.0  0.20186  0.28301  0.58290  1.0000 0.1290804053
H   H20       1.0  0.28301  0.58290  0.20186  1.0000 0.1290804053
H   H21       1.0  0.58290  0.20186  0.28301  1.0000 0.1290804053
H   H22       1.0  0.29814  0.91710  0.21699  1.0000 0.1290804053
H   H23       1.0  0.21699  0.29814  0.91710  1.0000 0.1290804053
H   H24       1.0  0.91710  0.21699  0.29814  1.0000 0.1290804053
H   H25       1.0  0.88634  0.46979  0.35140  1.0000 0.1290804053
H   H26       1.0  0.46979  0.35140  0.88634  1.0000 0.1290804053
H   H27       1.0  0.35140  0.88634  0.46979  1.0000 0.1290804053
H   H28       1.0  0.61366  0.14860  0.03021  1.0000 0.1290804053
H   H29       1.0  0.03021  0.61366  0.14860  1.0000 0.1290804053
H   H30       1.0  0.14860  0.03021  0.61366  1.0000 0.1290804053
H   H31       1.0  0.11366  0.53021  0.64860  1.0000 0.1290804053
H   H32       1.0  0.53021  0.64860  0.11366  1.0000 0.1290804053
H   H33       1.0  0.64860  0.11366  0.53021  1.0000 0.1290804053
H   H34       1.0  0.38634  0.85140  0.96979  1.0000 0.1290804053
H   H35       1.0  0.96979  0.38634  0.85140  1.0000 0.1290804053
H   H36       1.0  0.85140  0.96979  0.38634  1.0000 0.1290804053
H   H37       1.0  0.81274  0.48819  0.46090  1.0000 0.1246353022
H   H38       1.0  0.48819  0.46090  0.81274  1.0000 0.1246353022
H   H39       1.0  0.46090  0.81274  0.48819  1.0000 0.1290804053
H   H40       1.0  0.68726  0.03910  0.01181  1.0000 0.1290804053
H   H41       1.0  0.01181  0.68726  0.03910  1.0000 0.1246353022
H   H42       1.0  0.03910  0.01181  0.68726  1.0000 0.1290804053
H   H43       1.0  0.18726  0.51181  0.53910  1.0000 0.1290804053
H   H44       1.0  0.51181  0.53910  0.18726  1.0000 0.1246353022
H   H45       1.0  0.53910  0.18726  0.51181  1.0000 0.1246353022
H   H46       1.0  0.31274  0.96090  0.98819  1.0000 0.1246353022
H   H47       1.0  0.98819  0.31274  0.96090  1.0000 0.1290804053
H   H48       1.0  0.96090  0.98819  0.31274  1.0000 0.1290804053
H   H49       1.0  0.04924  0.55659  0.34770  1.0000 0.1290804053
H   H50       1.0  0.55659  0.34770  0.04924  1.0000 0.1290804053
H   H51       1.0  0.34770  0.04924  0.55659  1.0000 0.1290804053
H   H52       1.0  0.45076  0.15230  0.94341  1.0000 0.1290804053
H   H53       1.0  0.94341  0.45076  0.15230  1.0000 0.1290804053
H   H54       1.0  0.15230  0.94341  0.45076  1.0000 0.1290804053
H   H55       1.0  0.95076  0.44341  0.65230  1.0000 0.1290804053
H   H56       1.0  0.44341  0.65230  0.95076  1.0000 0.1290804053
H   H57       1.0  0.65230  0.95076  0.44341  1.0000 0.1290804053
H   H58       1.0  0.54924  0.84770  0.05659  1.0000 0.1290804053
H   H59       1.0  0.05659  0.54924  0.84770  1.0000 0.1290804053
H   H60       1.0  0.84770  0.05659  0.54924  1.0000 0.1290804053
H   H61       1.0  0.14304  0.46199  0.34910  1.0000 0.1376506138
H   H62       1.0  0.46199  0.34910  0.14304  1.0000 0.1376506138
H   H63       1.0  0.34910  0.14304  0.46199  1.0000 0.1376506138
H   H64       1.0  0.35696  0.15090  0.03801  1.0000 0.1376506138
H   H65       1.0  0.03801  0.35696  0.15090  1.0000 0.1376506138
H   H66       1.0  0.15090  0.03801  0.35696  1.0000 0.1376506138
H   H67       1.0  0.85696  0.53801  0.65090  1.0000 0.1376506138
H   H68       1.0  0.53801  0.65090  0.85696  1.0000 0.1376506138
H   H69       1.0  0.65090  0.85696  0.53801  1.0000 0.1376506138
H   H70       1.0  0.64304  0.84910  0.96199  1.0000 0.1376506138
H   H71       1.0  0.96199  0.64304  0.84910  1.0000 0.1376506138
H   H72       1.0  0.84910  0.96199  0.64304  1.0000 0.1376506138
C   C1        1.0  0.79522  0.60412  0.44853  1.0000 -0.0173944843
C   C2        1.0  0.60412  0.44853  0.79522  1.0000 -0.0173944843
C   C3        1.0  0.44853  0.79522  0.60412  1.0000 -0.0173944843
C   C4        1.0  0.70478  0.05147  0.89588  1.0000 -0.0173944843
C   C5        1.0  0.89588  0.70478  0.05147  1.0000 -0.0173944843
C   C6        1.0  0.05147  0.89588  0.70478  1.0000 -0.0173944843
C   C7        1.0  0.20478  0.39588  0.55147  1.0000 -0.0173944843
C   C8        1.0  0.39588  0.55147  0.20478  1.0000 -0.0173944843
C   C9        1.0  0.55147  0.20478  0.39588  1.0000 -0.0173944843
C   C10       1.0  0.29522  0.94853  0.10412  1.0000 -0.0173944843
C   C11       1.0  0.10412  0.29522  0.94853  1.0000 -0.0173944843
C   C12       1.0  0.94853  0.10412  0.29522  1.0000 -0.0173944843
C   C13       1.0  0.88612  0.58193  0.31736  1.0000 0.1929567405
C   C14       1.0  0.58193  0.31736  0.88612  1.0000 0.1929567405
C   C15       1.0  0.31736  0.88612  0.58193  1.0000 0.1929567405
C   C16       1.0  0.61388  0.18264  0.91807  1.0000 0.1929567405
C   C17       1.0  0.91807  0.61388  0.18264  1.0000 0.1929567405
C   C18       1.0  0.18264  0.91807  0.61388  1.0000 0.1929567405
C   C19       1.0  0.11388  0.41807  0.68264  1.0000 0.1929567405
C   C20       1.0  0.41807  0.68264  0.11388  1.0000 0.1929567405
C   C21       1.0  0.68264  0.11388  0.41807  1.0000 0.1929567405
C   C22       1.0  0.38612  0.81736  0.08193  1.0000 0.1929567405
C   C23       1.0  0.08193  0.38612  0.81736  1.0000 0.1929567405
C   C24       1.0  0.81736  0.08193  0.38612  1.0000 0.1929567405
C   C25       1.0  0.74447  0.61579  0.51608  1.0000 0.5495058892
C   C26       1.0  0.61579  0.51608  0.74447  1.0000 0.5495058892
C   C27       1.0  0.51608  0.74447  0.61579  1.0000 0.5495058892
C   C28       1.0  0.75553  0.98392  0.88421  1.0000 0.5495058892
C   C29       1.0  0.88421  0.75553  0.98392  1.0000 0.5495058892
C   C30       1.0  0.98392  0.88421  0.75553  1.0000 0.5495058892
C   C31       1.0  0.25553  0.38421  0.48392  1.0000 0.5495058892
C   C32       1.0  0.38421  0.48392  0.25553  1.0000 0.5495058892
C   C33       1.0  0.48392  0.25553  0.38421  1.0000 0.5495058892
C   C34       1.0  0.24447  0.01608  0.11579  1.0000 0.5495058892
C   C35       1.0  0.11579  0.24447  0.01608  1.0000 0.5495058892
C   C36       1.0  0.01608  0.11579  0.24447  1.0000 0.5495058892
C   C37       1.0  0.86114  0.65648  0.33907  1.0000 -0.1939856958
C   C38       1.0  0.65648  0.33907  0.86114  1.0000 -0.1939856958
C   C39       1.0  0.33907  0.86114  0.65648  1.0000 -0.1939856958
C   C40       1.0  0.63886  0.16093  0.84352  1.0000 -0.1939856958
C   C41       1.0  0.84352  0.63886  0.16093  1.0000 -0.1939856958
C   C42       1.0  0.16093  0.84352  0.63886  1.0000 -0.1939856958
C   C43       1.0  0.13886  0.34352  0.66093  1.0000 -0.1939856958
C   C44       1.0  0.34352  0.66093  0.13886  1.0000 -0.1939856958
C   C45       1.0  0.66093  0.13886  0.34352  1.0000 -0.1939856958
C   C46       1.0  0.36114  0.83907  0.15648  1.0000 -0.1939856958
C   C47       1.0  0.15648  0.36114  0.83907  1.0000 -0.1939856958
C   C48       1.0  0.83907  0.15648  0.36114  1.0000 -0.1939856958
C   C49       1.0  0.81555  0.66667  0.40364  1.0000 -0.0827388206
C   C50       1.0  0.66667  0.40364  0.81555  1.0000 -0.0827388206
C   C51       1.0  0.40364  0.81555  0.66667  1.0000 -0.0827388206
C   C52       1.0  0.68445  0.09636  0.83340  1.0000 -0.0827388206
C   C53       1.0  0.83340  0.68445  0.09636  1.0000 -0.0827388206
C   C54       1.0  0.09636  0.83340  0.68445  1.0000 -0.0827388206
C   C55       1.0  0.18445  0.33340  0.59636  1.0000 -0.0827388206
C   C56       1.0  0.33340  0.59636  0.18445  1.0000 -0.0827388206
C   C57       1.0  0.59636  0.18445  0.33340  1.0000 -0.0827388206
C   C58       1.0  0.31555  0.90364  0.16660  1.0000 -0.0827388206
C   C59       1.0  0.16660  0.31555  0.90364  1.0000 -0.0827388206
C   C60       1.0  0.90364  0.16660  0.31555  1.0000 -0.0827388206
C   C61       1.0  0.86813  0.52001  0.36415  1.0000 -0.1952443241
C   C62       1.0  0.52001  0.36415  0.86813  1.0000 -0.1952443241
C   C63       1.0  0.36415  0.86813  0.52001  1.0000 -0.1952443241
C   C64       1.0  0.63187  0.13585  0.97999  1.0000 -0.1939856958
C   C65       1.0  0.97999  0.63187  0.13585  1.0000 -0.1952443241
C   C66       1.0  0.13585  0.97999  0.63187  1.0000 -0.1939856958
C   C67       1.0  0.13187  0.47999  0.63585  1.0000 -0.1952443241
C   C68       1.0  0.47999  0.63585  0.13187  1.0000 -0.1952443241
C   C69       1.0  0.63585  0.13187  0.47999  1.0000 -0.1952443241
C   C70       1.0  0.36813  0.86415  0.02001  1.0000 -0.1952443241
C   C71       1.0  0.02001  0.36813  0.86415  1.0000 -0.1952443241
C   C72       1.0  0.86415  0.02001  0.36813  1.0000 -0.1939856958
C   C73       1.0  0.98718  0.51282  0.25000  1.0000 0.1704688716
C   C74       1.0  0.51282  0.25000  0.98718  1.0000 0.1704688716
C   C75       1.0  0.25000  0.98718  0.51282  1.0000 0.1704688716
C   C76       1.0  0.01282  0.48718  0.75000  1.0000 0.1704688716
C   C77       1.0  0.48718  0.75000  0.01282  1.0000 0.1704688716
C   C78       1.0  0.75000  0.01282  0.48718  1.0000 0.1704688716
C   C79       1.0  0.82379  0.53087  0.42922  1.0000 -0.0827388206
C   C80       1.0  0.53087  0.42922  0.82379  1.0000 -0.0827388206
C   C81       1.0  0.42922  0.82379  0.53087  1.0000 -0.0827388206
C   C82       1.0  0.67621  0.07078  0.96913  1.0000 -0.0827388206
C   C83       1.0  0.96913  0.67621  0.07078  1.0000 -0.0827388206
C   C84       1.0  0.07078  0.96913  0.67621  1.0000 -0.0827388206
C   C85       1.0  0.17621  0.46913  0.57078  1.0000 -0.0827388206
C   C86       1.0  0.46913  0.57078  0.17621  1.0000 -0.0827388206
C   C87       1.0  0.57078  0.17621  0.46913  1.0000 -0.0827388206
C   C88       1.0  0.32379  0.92922  0.03087  1.0000 -0.0827388206
C   C89       1.0  0.03087  0.32379  0.92922  1.0000 -0.0827388206
C   C90       1.0  0.92922  0.03087  0.32379  1.0000 -0.0827388206
C   C91       1.0  0.04672  0.51584  0.30805  1.0000 -0.1780536673
C   C92       1.0  0.51584  0.30805  0.04672  1.0000 -0.1780536673
C   C93       1.0  0.30805  0.04672  0.51584  1.0000 -0.1780536673
C   C94       1.0  0.45328  0.19195  0.98416  1.0000 -0.1780536673
C   C95       1.0  0.98416  0.45328  0.19195  1.0000 -0.1780536673
C   C96       1.0  0.19195  0.98416  0.45328  1.0000 -0.1780536673
C   C97       1.0  0.95328  0.48416  0.69195  1.0000 -0.1780536673
C   C98       1.0  0.48416  0.69195  0.95328  1.0000 -0.1780536673
C   C99       1.0  0.69195  0.95328  0.48416  1.0000 -0.1780536673
C   C100      1.0  0.54672  0.80805  0.01584  1.0000 -0.1780536673
C   C101      1.0  0.01584  0.54672  0.80805  1.0000 -0.1780536673
C   C102      1.0  0.80805  0.01584  0.54672  1.0000 -0.1780536673
C   C103      1.0  0.10020  0.39980  0.25000  1.0000 -0.0173944843
C   C104      1.0  0.39980  0.25000  0.10020  1.0000 -0.0173944843
C   C105      1.0  0.25000  0.10020  0.39980  1.0000 -0.0173944843
C   C106      1.0  0.89980  0.60020  0.75000  1.0000 -0.0173944843
C   C107      1.0  0.60020  0.75000  0.89980  1.0000 -0.0173944843
C   C108      1.0  0.75000  0.89980  0.60020  1.0000 -0.0173944843
C   C109      1.0  0.10290  0.45965  0.30872  1.0000 -0.0827388206
C   C110      1.0  0.45965  0.30872  0.10290  1.0000 -0.0827388206
C   C111      1.0  0.30872  0.10290  0.45965  1.0000 -0.0827388206
C   C112      1.0  0.39710  0.19128  0.04035  1.0000 -0.0827388206
C   C113      1.0  0.04035  0.39710  0.19128  1.0000 -0.0827388206
C   C114      1.0  0.19128  0.04035  0.39710  1.0000 -0.0827388206
C   C115      1.0  0.89710  0.54035  0.69128  1.0000 -0.0827388206
C   C116      1.0  0.54035  0.69128  0.89710  1.0000 -0.0827388206
C   C117      1.0  0.69128  0.89710  0.54035  1.0000 -0.0827388206
C   C118      1.0  0.60290  0.80872  0.95965  1.0000 -0.0827388206
C   C119      1.0  0.95965  0.60290  0.80872  1.0000 -0.0827388206
C   C120      1.0  0.80872  0.95965  0.60290  1.0000 -0.0827388206
C   C121      1.0  0.16050  0.33950  0.25000  1.0000 0.6288495708
C   C122      1.0  0.33950  0.25000  0.16050  1.0000 0.6288495708
C   C123      1.0  0.25000  0.16050  0.33950  1.0000 0.6288495708
C   C124      1.0  0.83950  0.66050  0.75000  1.0000 0.6288495708
C   C125      1.0  0.66050  0.75000  0.83950  1.0000 0.6288495708
C   C126      1.0  0.75000  0.83950  0.66050  1.0000 0.6288495708
N   N1        1.0  0.92950  0.57050  0.25000  1.0000 -0.1600832047
N   N2        1.0  0.57050  0.25000  0.92950  1.0000 -0.1600832047
N   N3        1.0  0.25000  0.92950  0.57050  1.0000 -0.1600832047
N   N4        1.0  0.07050  0.42950  0.75000  1.0000 -0.1600832047
N   N5        1.0  0.42950  0.75000  0.07050  1.0000 -0.1600832047
N   N6        1.0  0.75000  0.07050  0.42950  1.0000 -0.1600832047
O   O1        1.0  0.72839  0.55956  0.55929  1.0000 -0.5881847791
O   O2        1.0  0.55956  0.55929  0.72839  1.0000 -0.5881847791
O   O3        1.0  0.55929  0.72839  0.55956  1.0000 -0.5881847791
O   O4        1.0  0.77161  0.94071  0.94044  1.0000 -0.5881847791
O   O5        1.0  0.94044  0.77161  0.94071  1.0000 -0.5881847791
O   O6        1.0  0.94071  0.94044  0.77161  1.0000 -0.5881847791
O   O7        1.0  0.27161  0.44044  0.44071  1.0000 -0.5881847791
O   O8        1.0  0.44044  0.44071  0.27161  1.0000 -0.5881847791
O   O9        1.0  0.44071  0.27161  0.44044  1.0000 -0.5881847791
O   O10       1.0  0.22839  0.05929  0.05956  1.0000 -0.5881847791
O   O11       1.0  0.05956  0.22839  0.05929  1.0000 -0.5881847791
O   O12       1.0  0.05929  0.05956  0.22839  1.0000 -0.5881847791
O   O13       1.0  0.71788  0.68222  0.52991  1.0000 -0.5692237667
O   O14       1.0  0.68222  0.52991  0.71788  1.0000 -0.5692237667
O   O15       1.0  0.52991  0.71788  0.68222  1.0000 -0.5692237667
O   O16       1.0  0.78212  0.97009  0.81778  1.0000 -0.5692237667
O   O17       1.0  0.81778  0.78212  0.97009  1.0000 -0.5692237667
O   O18       1.0  0.97009  0.81778  0.78212  1.0000 -0.5692237667
O   O19       1.0  0.28212  0.31778  0.47009  1.0000 -0.5692237667
O   O20       1.0  0.31778  0.47009  0.28212  1.0000 -0.5692237667
O   O21       1.0  0.47009  0.28212  0.31778  1.0000 -0.5692237667
O   O22       1.0  0.21788  0.02991  0.18222  1.0000 -0.5692237667
O   O23       1.0  0.18222  0.21788  0.02991  1.0000 -0.5692237667
O   O24       1.0  0.02991  0.18222  0.21788  1.0000 -0.5692237667
O   O25       1.0  0.20837  0.34045  0.30823  1.0000 -0.5833064866
O   O26       1.0  0.34045  0.30823  0.20837  1.0000 -0.5833064866
O   O27       1.0  0.30823  0.20837  0.34045  1.0000 -0.5833064866
O   O28       1.0  0.29163  0.19177  0.15955  1.0000 -0.5833064866
O   O29       1.0  0.15955  0.29163  0.19177  1.0000 -0.5833064866
O   O30       1.0  0.19177  0.15955  0.29163  1.0000 -0.5833064866
O   O31       1.0  0.79163  0.65955  0.69177  1.0000 -0.5833064866
O   O32       1.0  0.65955  0.69177  0.79163  1.0000 -0.5833064866
O   O33       1.0  0.69177  0.79163  0.65955  1.0000 -0.5833064866
O   O34       1.0  0.70837  0.80823  0.84045  1.0000 -0.5833064866
O   O35       1.0  0.84045  0.70837  0.80823  1.0000 -0.5833064866
O   O36       1.0  0.80823  0.84045  0.70837  1.0000 -0.5833064866
