# DDEC6 charges by PACMAN v1.1 (https://github.com/mtap-research/PACMAN-charge/)
data_2016[Ni][dia]3[ASR]4
_chemical_formula_sum              "Ni4 H168 C122 N24 O24"
_cell_length_a       19.1912
_cell_length_b       19.1912
_cell_length_c       29.562
_cell_angle_alpha    54.3058
_cell_angle_beta     125.694
_cell_angle_gamma    153.387

_symmetry_space_group_name_H-M    "P 1"
_symmetry_Int_Tables_number       1

loop_
  _symmetry_equiv_pos_as_xyz
  'x, y, z'

loop_
  _atom_site_type_symbol
  _atom_site_label
  _atom_site_symmetry_multiplicity
  _atom_site_fract_x
  _atom_site_fract_y
  _atom_site_fract_z
  _atom_site_occupancy
  _atom_site_charge
Ni  Ni1       1.0  0.50000  0.50000  0.50000  1.0000 0.5993868366
Ni  Ni2       1.0  0.50000  0.50000  0.00000  1.0000 0.5993868366
Ni  Ni3       1.0  0.50000  0.00000  0.50000  1.0000 0.5993868366
Ni  Ni4       1.0  0.00000  0.50000  0.00000  1.0000 0.5993868366
H   H1        1.0  0.60100  0.04220  0.44570  1.0000 0.2469170744
H   H2        1.0  0.04220  0.60100  0.05430  1.0000 0.2469170744
H   H3        1.0  0.39900  0.95780  0.55430  1.0000 0.2469170744
H   H4        1.0  0.95780  0.39900  0.94570  1.0000 0.2469170744
H   H5        1.0  0.51180  0.34880  0.56260  1.0000 0.2469170744
H   H6        1.0  0.34880  0.51180  0.93740  1.0000 0.2469170744
H   H7        1.0  0.48820  0.65120  0.43740  1.0000 0.2469170744
H   H8        1.0  0.65120  0.48820  0.06260  1.0000 0.2469170744
H   H9        1.0  0.70210  0.61470  0.72940  1.0000 0.1007215184
H   H10       1.0  0.61470  0.70210  0.77060  1.0000 0.1007215184
H   H11       1.0  0.29790  0.38530  0.27060  1.0000 0.1007215184
H   H12       1.0  0.38530  0.29790  0.22940  1.0000 0.1007215184
H   H13       1.0  0.82300  0.72060  0.77560  1.0000 0.1090425701
H   H14       1.0  0.72060  0.82300  0.72440  1.0000 0.1090425701
H   H15       1.0  0.17700  0.27940  0.22440  1.0000 0.1090425701
H   H16       1.0  0.27940  0.17700  0.27560  1.0000 0.1090425701
H   H17       1.0  0.44580  0.46920  0.69130  1.0000 0.1007215184
H   H18       1.0  0.46920  0.44580  0.80870  1.0000 0.1007215184
H   H19       1.0  0.55420  0.53080  0.30870  1.0000 0.1007215184
H   H20       1.0  0.53080  0.55420  0.19130  1.0000 0.1007215184
H   H21       1.0  0.53410  0.63210  0.66450  1.0000 0.1007215184
H   H22       1.0  0.63210  0.53410  0.83550  1.0000 0.1007215184
H   H23       1.0  0.46590  0.36790  0.33550  1.0000 0.1007215184
H   H24       1.0  0.36790  0.46590  0.16450  1.0000 0.1007215184
H   H25       1.0  0.97400  0.06980  0.62840  1.0000 0.1301987089
H   H26       1.0  0.06980  0.97400  0.87160  1.0000 0.1301987089
H   H27       1.0  0.02600  0.93020  0.37160  1.0000 0.1301987089
H   H28       1.0  0.93020  0.02600  0.12840  1.0000 0.1301987089
H   H29       1.0  0.16620  0.22760  0.58650  1.0000 0.1007215184
H   H30       1.0  0.22760  0.16620  0.91350  1.0000 0.1007215184
H   H31       1.0  0.83380  0.77240  0.41350  1.0000 0.1007215184
H   H32       1.0  0.77240  0.83380  0.08650  1.0000 0.1007215184
H   H33       1.0  0.16760  0.97220  0.68970  1.0000 0.1181185135
H   H34       1.0  0.97220  0.16760  0.81030  1.0000 0.1181185135
H   H35       1.0  0.83240  0.02780  0.31030  1.0000 0.1181185135
H   H36       1.0  0.02780  0.83240  0.18970  1.0000 0.1181185135
H   H37       1.0  0.96800  0.80700  0.73000  1.0000 0.1181185135
H   H38       1.0  0.80700  0.96800  0.77000  1.0000 0.1181185135
H   H39       1.0  0.03200  0.19300  0.27000  1.0000 0.1181185135
H   H40       1.0  0.19300  0.03200  0.23000  1.0000 0.1181185135
H   H41       1.0  0.30560  0.45960  0.60420  1.0000 0.1181185135
H   H42       1.0  0.45960  0.30560  0.89580  1.0000 0.1181185135
H   H43       1.0  0.69440  0.54040  0.39580  1.0000 0.1181185135
H   H44       1.0  0.54040  0.69440  0.10420  1.0000 0.1181185135
H   H45       1.0  0.07180  0.31520  0.54080  1.0000 0.1090425701
H   H46       1.0  0.31520  0.07180  0.95920  1.0000 0.1090425701
H   H47       1.0  0.92820  0.68480  0.45920  1.0000 0.1090425701
H   H48       1.0  0.68480  0.92820  0.04080  1.0000 0.1090425701
H   H49       1.0  0.89410  0.18790  0.64620  1.0000 0.1090425701
H   H50       1.0  0.18790  0.89410  0.85380  1.0000 0.1090425701
H   H51       1.0  0.10590  0.81210  0.35380  1.0000 0.1090425701
H   H52       1.0  0.81210  0.10590  0.14620  1.0000 0.1090425701
H   H53       1.0  0.12090  0.32090  0.71150  1.0000 0.1301987089
H   H54       1.0  0.32090  0.12090  0.78850  1.0000 0.1301987089
H   H55       1.0  0.87910  0.67910  0.28850  1.0000 0.1301987089
H   H56       1.0  0.67910  0.87910  0.21150  1.0000 0.1301987089
H   H57       1.0  0.76430  0.53570  0.60430  1.0000 0.1090425701
H   H58       1.0  0.53570  0.76430  0.89570  1.0000 0.1090425701
H   H59       1.0  0.23570  0.46430  0.39570  1.0000 0.1090425701
H   H60       1.0  0.46430  0.23570  0.10430  1.0000 0.1090425701
H   H61       1.0  0.82020  0.67060  0.55380  1.0000 0.1090425701
H   H62       1.0  0.67060  0.82020  0.94620  1.0000 0.1090425701
H   H63       1.0  0.17980  0.32940  0.44620  1.0000 0.1090425701
H   H64       1.0  0.32940  0.17980  0.05380  1.0000 0.1090425701
H   H65       1.0  0.36740  0.50220  0.37250  1.0000 0.1181185135
H   H66       1.0  0.50220  0.36740  0.12750  1.0000 0.1181185135
H   H67       1.0  0.63260  0.49780  0.62750  1.0000 0.1181185135
H   H68       1.0  0.49780  0.63260  0.87250  1.0000 0.1181185135
H   H69       1.0  0.18910  0.32510  0.37200  1.0000 0.1090425701
H   H70       1.0  0.32510  0.18910  0.12800  1.0000 0.1090425701
H   H71       1.0  0.81090  0.67490  0.62800  1.0000 0.1090425701
H   H72       1.0  0.67490  0.81090  0.87200  1.0000 0.1090425701
H   H73       1.0  0.13440  0.15100  0.47320  1.0000 0.1090425701
H   H74       1.0  0.15100  0.13440  0.02680  1.0000 0.1090425701
H   H75       1.0  0.86560  0.84900  0.52680  1.0000 0.1090425701
H   H76       1.0  0.84900  0.86560  0.97320  1.0000 0.1090425701
H   H77       1.0  0.11810  0.13070  0.42190  1.0000 0.083771228
H   H78       1.0  0.13070  0.11810  0.07810  1.0000 0.083771228
H   H79       1.0  0.88190  0.86930  0.57810  1.0000 0.083771228
H   H80       1.0  0.86930  0.88190  0.92190  1.0000 0.083771228
H   H81       1.0  0.12530  0.99810  0.50090  1.0000 0.1181185135
H   H82       1.0  0.99810  0.12530  0.99910  1.0000 0.1181185135
H   H83       1.0  0.87470  0.00190  0.49910  1.0000 0.1181185135
H   H84       1.0  0.00190  0.87470  0.00090  1.0000 0.1181185135
H   H85       1.0  0.27230  0.14030  0.53340  1.0000 0.1181185135
H   H86       1.0  0.14030  0.27230  0.96660  1.0000 0.1181185135
H   H87       1.0  0.72770  0.85970  0.46660  1.0000 0.1090425701
H   H88       1.0  0.85970  0.72770  0.03340  1.0000 0.1181185135
H   H89       1.0  0.50740  0.50100  0.40140  1.0000 0.1007215184
H   H90       1.0  0.50100  0.50740  0.09860  1.0000 0.1007215184
H   H91       1.0  0.49260  0.49900  0.59860  1.0000 0.1007215184
H   H92       1.0  0.49900  0.49260  0.90140  1.0000 0.1007215184
H   H93       1.0  0.34580  0.33280  0.38460  1.0000 0.0908853865
H   H94       1.0  0.33280  0.34580  0.11540  1.0000 0.0908853865
H   H95       1.0  0.65420  0.66720  0.61540  1.0000 0.0908853865
H   H96       1.0  0.66720  0.65420  0.88460  1.0000 0.0908853865
H   H97       1.0  0.63180  0.40660  0.52220  1.0000 0.1007215184
H   H98       1.0  0.40660  0.63180  0.97780  1.0000 0.1007215184
H   H99       1.0  0.36820  0.59340  0.47780  1.0000 0.0908853865
H   H100      1.0  0.59340  0.36820  0.02220  1.0000 0.1007215184
H   H101      1.0  0.69290  0.55050  0.48040  1.0000 0.1007215184
H   H102      1.0  0.55050  0.69290  0.01960  1.0000 0.1007215184
H   H103      1.0  0.30710  0.44950  0.51960  1.0000 0.1007215184
H   H104      1.0  0.44950  0.30710  0.98040  1.0000 0.1007215184
H   H105      1.0  0.27380  0.12180  0.44610  1.0000 0.1090425701
H   H106      1.0  0.12180  0.27380  0.05390  1.0000 0.1090425701
H   H107      1.0  0.72620  0.87820  0.55390  1.0000 0.1090425701
H   H108      1.0  0.87820  0.72620  0.94610  1.0000 0.1090425701
H   H109      1.0  0.37050  0.14830  0.50750  1.0000 0.1090425701
H   H110      1.0  0.14830  0.37050  0.99250  1.0000 0.1090425701
H   H111      1.0  0.62950  0.85170  0.49250  1.0000 0.1090425701
H   H112      1.0  0.85170  0.62950  0.00750  1.0000 0.1090425701
H   H113      1.0  0.56460  0.87760  0.60610  1.0000 0.1007215184
H   H114      1.0  0.87760  0.56460  0.89390  1.0000 0.1007215184
H   H115      1.0  0.43540  0.12240  0.39390  1.0000 0.1007215184
H   H116      1.0  0.12240  0.43540  0.10610  1.0000 0.1007215184
H   H117      1.0  0.40680  0.69440  0.62300  1.0000 0.0908853865
H   H118      1.0  0.69440  0.40680  0.87700  1.0000 0.1007215184
H   H119      1.0  0.59320  0.30560  0.37700  1.0000 0.1007215184
H   H120      1.0  0.30560  0.59320  0.12300  1.0000 0.1007215184
H   H121      1.0  0.23030  0.58830  0.65790  1.0000 0.1007215184
H   H122      1.0  0.58830  0.23030  0.84210  1.0000 0.1007215184
H   H123      1.0  0.76970  0.41170  0.34210  1.0000 0.1007215184
H   H124      1.0  0.41170  0.76970  0.15790  1.0000 0.1007215184
H   H125      1.0  0.25970  0.70190  0.64910  1.0000 0.1007215184
H   H126      1.0  0.70190  0.25970  0.85090  1.0000 0.1007215184
H   H127      1.0  0.74030  0.29810  0.35090  1.0000 0.1007215184
H   H128      1.0  0.29810  0.74030  0.14910  1.0000 0.1007215184
H   H129      1.0  0.05670  0.53270  0.57950  1.0000 0.1090425701
H   H130      1.0  0.53270  0.05670  0.92050  1.0000 0.1090425701
H   H131      1.0  0.94330  0.46730  0.42050  1.0000 0.1090425701
H   H132      1.0  0.46730  0.94330  0.07950  1.0000 0.1090425701
H   H133      1.0  0.18410  0.71170  0.55410  1.0000 0.1090425701
H   H134      1.0  0.71170  0.18410  0.94590  1.0000 0.1090425701
H   H135      1.0  0.81590  0.28830  0.44590  1.0000 0.1090425701
H   H136      1.0  0.28830  0.81590  0.05410  1.0000 0.1090425701
H   H137      1.0  0.14970  0.62470  0.50390  1.0000 0.1090425701
H   H138      1.0  0.62470  0.14970  0.99610  1.0000 0.1090425701
H   H139      1.0  0.85030  0.37530  0.49610  1.0000 0.1090425701
H   H140      1.0  0.37530  0.85030  0.00390  1.0000 0.1090425701
H   H141      1.0  0.16230  0.54150  0.55900  1.0000 0.0908853865
H   H142      1.0  0.54150  0.16230  0.94100  1.0000 0.0908853865
H   H143      1.0  0.83770  0.45850  0.44100  1.0000 0.0908853865
H   H144      1.0  0.45850  0.83770  0.05900  1.0000 0.0908853865
H   H145      1.0  0.50600  0.82480  0.52750  1.0000 0.1181185135
H   H146      1.0  0.82480  0.50600  0.97250  1.0000 0.1181185135
H   H147      1.0  0.49400  0.17520  0.47250  1.0000 0.1181185135
H   H148      1.0  0.17520  0.49400  0.02750  1.0000 0.1181185135
H   H149      1.0  0.32530  0.65130  0.52180  1.0000 0.1090425701
H   H150      1.0  0.65130  0.32530  0.97820  1.0000 0.1090425701
H   H151      1.0  0.67470  0.34870  0.47820  1.0000 0.1090425701
H   H152      1.0  0.34870  0.67470  0.02180  1.0000 0.1090425701
H   H153      1.0  0.27440  0.74560  0.43610  1.0000 0.1090425701
H   H154      1.0  0.74560  0.27440  0.06390  1.0000 0.1090425701
H   H155      1.0  0.72560  0.25440  0.56390  1.0000 0.1090425701
H   H156      1.0  0.25440  0.72560  0.93610  1.0000 0.1090425701
H   H157      1.0  0.39640  0.79920  0.43140  1.0000 0.1007215184
H   H158      1.0  0.79920  0.39640  0.06860  1.0000 0.1007215184
H   H159      1.0  0.60360  0.20080  0.56860  1.0000 0.1007215184
H   H160      1.0  0.20080  0.60360  0.93140  1.0000 0.1007215184
H   H161      1.0  0.35780  0.95440  0.37010  1.0000 0.1007215184
H   H162      1.0  0.95440  0.35780  0.12990  1.0000 0.1007215184
H   H163      1.0  0.64220  0.04560  0.62990  1.0000 0.1007215184
H   H164      1.0  0.04560  0.64220  0.87010  1.0000 0.1007215184
H   H165      1.0  0.48480  0.02940  0.35510  1.0000 0.0908853865
H   H166      1.0  0.02940  0.48480  0.14490  1.0000 0.0908853865
H   H167      1.0  0.51520  0.97060  0.64490  1.0000 0.0908853865
H   H168      1.0  0.97060  0.51520  0.85510  1.0000 0.0908853865
C   C1        1.0  0.61700  0.61700  0.75000  1.0000 0.0908853865
C   C2        1.0  0.38300  0.38300  0.25000  1.0000 0.0908853865
C   C3        1.0  0.74725  0.68975  0.74100  1.0000 -0.0797637373
C   C4        1.0  0.68975  0.74725  0.75900  1.0000 -0.0797637373
C   C5        1.0  0.25275  0.31025  0.25900  1.0000 -0.0797637373
C   C6        1.0  0.31025  0.25275  0.24100  1.0000 -0.0797637373
C   C7        1.0  0.48940  0.54920  0.69742  1.0000 -0.0888241944
C   C8        1.0  0.54920  0.48940  0.80258  1.0000 -0.0888241944
C   C9        1.0  0.51060  0.45080  0.30258  1.0000 -0.0888241944
C   C10       1.0  0.45080  0.51060  0.19742  1.0000 -0.0888241944
C   C11       1.0  0.94687  0.91853  0.68084  1.0000 0.2469170744
C   C12       1.0  0.91853  0.94687  0.81916  1.0000 0.2469170744
C   C13       1.0  0.05313  0.08147  0.31916  1.0000 0.2469170744
C   C14       1.0  0.08147  0.05313  0.18084  1.0000 0.2469170744
C   C15       1.0  0.01010  0.04770  0.63950  1.0000 -0.2257863626
C   C16       1.0  0.04770  0.01010  0.86050  1.0000 -0.2257863626
C   C17       1.0  0.98990  0.95230  0.36050  1.0000 -0.2257863626
C   C18       1.0  0.95230  0.98990  0.13950  1.0000 -0.2257863626
C   C19       1.0  0.12613  0.14287  0.61500  1.0000 -0.1025276722
C   C20       1.0  0.14287  0.12613  0.88500  1.0000 -0.1025276722
C   C21       1.0  0.87387  0.85713  0.38500  1.0000 -0.1025276722
C   C22       1.0  0.85713  0.87387  0.11500  1.0000 -0.1025276722
C   C23       1.0  0.18483  0.11357  0.63235  1.0000 -0.059494505
C   C24       1.0  0.11357  0.18483  0.86765  1.0000 -0.059494505
C   C25       1.0  0.81517  0.88643  0.36765  1.0000 -0.059494505
C   C26       1.0  0.88643  0.81517  0.13235  1.0000 -0.059494505
C   C27       1.0  0.12568  0.98952  0.67622  1.0000 -0.1025276722
C   C28       1.0  0.98952  0.12568  0.82378  1.0000 -0.1025276722
C   C29       1.0  0.87432  0.01048  0.32378  1.0000 -0.1025276722
C   C30       1.0  0.01048  0.87432  0.17622  1.0000 -0.1025276722
C   C31       1.0  0.00644  0.89016  0.70084  1.0000 -0.2611858613
C   C32       1.0  0.89016  0.00644  0.79916  1.0000 -0.2611858613
C   C33       1.0  0.99356  0.10984  0.29916  1.0000 -0.2611858613
C   C34       1.0  0.10984  0.99356  0.20084  1.0000 -0.2611858613
C   C35       1.0  0.23501  0.40159  0.66454  1.0000 0.2423404857
C   C36       1.0  0.40159  0.23501  0.83546  1.0000 0.2423404857
C   C37       1.0  0.76499  0.59841  0.33546  1.0000 0.2423404857
C   C38       1.0  0.59841  0.76499  0.16454  1.0000 0.2423404857
C   C39       1.0  0.22185  0.40255  0.61316  1.0000 -0.2658823028
C   C40       1.0  0.40255  0.22185  0.88684  1.0000 -0.2611858613
C   C41       1.0  0.77815  0.59745  0.38684  1.0000 -0.2611858613
C   C42       1.0  0.59745  0.77815  0.11316  1.0000 -0.2611858613
C   C43       1.0  0.08199  0.31741  0.57502  1.0000 -0.1025276722
C   C44       1.0  0.31741  0.08199  0.92498  1.0000 -0.1025276722
C   C45       1.0  0.91801  0.68259  0.42498  1.0000 -0.1025276722
C   C46       1.0  0.68259  0.91801  0.07502  1.0000 -0.1025276722
C   C47       1.0  0.95757  0.23583  0.58635  1.0000 -0.059494505
C   C48       1.0  0.23583  0.95757  0.91365  1.0000 -0.059494505
C   C49       1.0  0.04243  0.76417  0.41365  1.0000 -0.059494505
C   C50       1.0  0.76417  0.04243  0.08635  1.0000 -0.059494505
C   C51       1.0  0.80885  0.14835  0.54293  1.0000 0.5261596247
C   C52       1.0  0.14835  0.80885  0.95707  1.0000 0.5261596247
C   C53       1.0  0.19115  0.85165  0.45707  1.0000 0.5261596247
C   C54       1.0  0.85165  0.19115  0.04293  1.0000 0.5261596247
C   C55       1.0  0.97579  0.24041  0.63790  1.0000 -0.1103526653
C   C56       1.0  0.24041  0.97579  0.86210  1.0000 -0.1103526653
C   C57       1.0  0.02421  0.75959  0.36210  1.0000 -0.1103526653
C   C58       1.0  0.75959  0.02421  0.13790  1.0000 -0.1103526653
C   C59       1.0  0.11153  0.32067  0.67690  1.0000 -0.2164486287
C   C60       1.0  0.32067  0.11153  0.82310  1.0000 -0.2164486287
C   C61       1.0  0.88847  0.67933  0.32310  1.0000 -0.2164486287
C   C62       1.0  0.67933  0.88847  0.17690  1.0000 -0.2164486287
C   C63       1.0  0.30032  0.21008  0.60120  1.0000 0.5373386249
C   C64       1.0  0.21008  0.30032  0.89880  1.0000 0.5373386249
C   C65       1.0  0.69968  0.78992  0.39880  1.0000 0.5373386249
C   C66       1.0  0.78992  0.69968  0.10120  1.0000 0.5373386249
C   C67       1.0  0.73579  0.57161  0.57570  1.0000 -0.0888241944
C   C68       1.0  0.57161  0.73579  0.92430  1.0000 -0.0888241944
C   C69       1.0  0.26421  0.42839  0.42430  1.0000 -0.0888241944
C   C70       1.0  0.42839  0.26421  0.07570  1.0000 -0.0888241944
C   C71       1.0  0.28673  0.40427  0.39606  1.0000 -0.1380746577
C   C72       1.0  0.40427  0.28673  0.10394  1.0000 -0.1380746577
C   C73       1.0  0.71327  0.59573  0.60394  1.0000 -0.1380746577
C   C74       1.0  0.59573  0.71327  0.89606  1.0000 -0.1380746577
C   C75       1.0  0.18823  0.17857  0.45560  1.0000 -0.0888241944
C   C76       1.0  0.17857  0.18823  0.04440  1.0000 -0.0888241944
C   C77       1.0  0.81177  0.82143  0.54440  1.0000 -0.0888241944
C   C78       1.0  0.82143  0.81177  0.95560  1.0000 -0.0888241944
C   C79       1.0  0.22371  0.11229  0.49660  1.0000 -0.2099973813
C   C80       1.0  0.11229  0.22371  0.00340  1.0000 -0.2099973813
C   C81       1.0  0.77629  0.88771  0.50340  1.0000 -0.2099973813
C   C82       1.0  0.88771  0.77629  0.99660  1.0000 -0.2099973813
C   C83       1.0  0.41674  0.38886  0.41590  1.0000 -0.0346449253
C   C84       1.0  0.38886  0.41674  0.08410  1.0000 -0.0346449253
C   C85       1.0  0.58326  0.61114  0.58410  1.0000 -0.0346449253
C   C86       1.0  0.61114  0.58326  0.91590  1.0000 -0.0346449253
C   C87       1.0  0.60474  0.44426  0.49952  1.0000 -0.0073060261
C   C88       1.0  0.44426  0.60474  0.00048  1.0000 -0.0073060261
C   C89       1.0  0.39526  0.55574  0.50048  1.0000 -0.0073060261
C   C90       1.0  0.55574  0.39526  0.99952  1.0000 -0.0073060261
C   C91       1.0  0.33293  0.17407  0.47670  1.0000 -0.0888241944
C   C92       1.0  0.17407  0.33293  0.02330  1.0000 -0.0888241944
C   C93       1.0  0.66707  0.82593  0.52330  1.0000 -0.0888241944
C   C94       1.0  0.82593  0.66707  0.97670  1.0000 -0.0888241944
C   C95       1.0  0.45321  0.79019  0.60396  1.0000 -0.0391679395
C   C96       1.0  0.79019  0.45321  0.89604  1.0000 -0.0391679395
C   C97       1.0  0.54679  0.20981  0.39604  1.0000 -0.0391679395
C   C98       1.0  0.20981  0.54679  0.10396  1.0000 -0.0391679395
C   C99       1.0  0.26930  0.67870  0.63330  1.0000 -0.0888241944
C   C100      1.0  0.67870  0.26930  0.86670  1.0000 -0.0888241944
C   C101      1.0  0.73070  0.32130  0.36670  1.0000 -0.0888241944
C   C102      1.0  0.32130  0.73070  0.13330  1.0000 -0.0888241944
C   C103      1.0  0.16693  0.63587  0.57530  1.0000 -0.2099973813
C   C104      1.0  0.63587  0.16693  0.92470  1.0000 -0.2164486287
C   C105      1.0  0.83307  0.36413  0.42470  1.0000 -0.2164486287
C   C106      1.0  0.36413  0.83307  0.07530  1.0000 -0.2164486287
C   C107      1.0  0.20343  0.63377  0.54270  1.0000 -0.1103526653
C   C108      1.0  0.63377  0.20343  0.95730  1.0000 -0.1103526653
C   C109      1.0  0.79657  0.36623  0.45730  1.0000 -0.1103526653
C   C110      1.0  0.36623  0.79657  0.04270  1.0000 -0.1103526653
C   C111      1.0  0.40055  0.76045  0.51370  1.0000 -0.1700381383
C   C112      1.0  0.76045  0.40055  0.98630  1.0000 -0.1700381383
C   C113      1.0  0.59945  0.23955  0.48630  1.0000 -0.1700381383
C   C114      1.0  0.23955  0.59945  0.01370  1.0000 -0.1700381383
C   C115      1.0  0.38032  0.81108  0.45036  1.0000 -0.0888241944
C   C116      1.0  0.81108  0.38032  0.04964  1.0000 -0.0888241944
C   C117      1.0  0.61968  0.18892  0.54964  1.0000 -0.0888241944
C   C118      1.0  0.18892  0.61968  0.95036  1.0000 -0.0888241944
C   C119      1.0  0.46784  0.03076  0.37962  1.0000 -0.0011643721
C   C120      1.0  0.03076  0.46784  0.12038  1.0000 -0.0011643721
C   C121      1.0  0.53216  0.96924  0.62038  1.0000 -0.0011643721
C   C122      1.0  0.96924  0.53216  0.87962  1.0000 -0.0011643721
N   N1        1.0  0.43632  0.81428  0.63278  1.0000 -0.1380746577
N   N2        1.0  0.81428  0.43632  0.86722  1.0000 -0.1380746577
N   N3        1.0  0.56368  0.18572  0.36722  1.0000 -0.1380746577
N   N4        1.0  0.18572  0.56368  0.13278  1.0000 -0.1380746577
N   N5        1.0  0.37552  0.77748  0.54308  1.0000 -0.1025276722
N   N6        1.0  0.77748  0.37552  0.95692  1.0000 -0.1025276722
N   N7        1.0  0.62448  0.22252  0.45692  1.0000 -0.1025276722
N   N8        1.0  0.22252  0.62448  0.04308  1.0000 -0.1025276722
N   N9        1.0  0.49737  0.97803  0.43930  1.0000 -0.3318868175
N   N10       1.0  0.97803  0.49737  0.06070  1.0000 -0.3318868175
N   N11       1.0  0.50263  0.02197  0.56070  1.0000 -0.3318868175
N   N12       1.0  0.02197  0.50263  0.93930  1.0000 -0.3318868175
N   N13       1.0  0.46867  0.34513  0.45733  1.0000 -0.1630755968
N   N14       1.0  0.34513  0.46867  0.04267  1.0000 -0.1630755968
N   N15       1.0  0.53133  0.65487  0.54267  1.0000 -0.1630755968
N   N16       1.0  0.65487  0.53133  0.95733  1.0000 -0.1630755968
N   N17       1.0  0.58609  0.45211  0.53826  1.0000 -0.3318868175
N   N18       1.0  0.45211  0.58609  0.96174  1.0000 -0.3318868175
N   N19       1.0  0.41391  0.54789  0.46174  1.0000 -0.3318868175
N   N20       1.0  0.54789  0.41391  0.03826  1.0000 -0.3318868175
N   N21       1.0  0.33421  0.35299  0.43935  1.0000 -0.1103526653
N   N22       1.0  0.35299  0.33421  0.06065  1.0000 -0.1103526653
N   N23       1.0  0.66579  0.64701  0.56065  1.0000 -0.1103526653
N   N24       1.0  0.64701  0.66579  0.93935  1.0000 -0.1103526653
O   O1        1.0  0.72083  0.11777  0.54702  1.0000 -0.5810609206
O   O2        1.0  0.11777  0.72083  0.95298  1.0000 -0.5810609206
O   O3        1.0  0.27917  0.88223  0.45298  1.0000 -0.5810609206
O   O4        1.0  0.88223  0.27917  0.04702  1.0000 -0.5810609206
O   O5        1.0  0.78231  0.11109  0.50587  1.0000 -0.5899539188
O   O6        1.0  0.11109  0.78231  0.99413  1.0000 -0.5899539188
O   O7        1.0  0.21769  0.88891  0.49413  1.0000 -0.5899539188
O   O8        1.0  0.88891  0.21769  0.00587  1.0000 -0.5899539188
O   O9        1.0  0.36497  0.19323  0.62162  1.0000 -0.5968771323
O   O10       1.0  0.19323  0.36497  0.87838  1.0000 -0.5968771323
O   O11       1.0  0.63503  0.80677  0.37838  1.0000 -0.5968771323
O   O12       1.0  0.80677  0.63503  0.12162  1.0000 -0.5968771323
O   O13       1.0  0.32761  0.30299  0.55657  1.0000 -0.5810609206
O   O14       1.0  0.30299  0.32761  0.94343  1.0000 -0.5810609206
O   O15       1.0  0.67239  0.69701  0.44343  1.0000 -0.5810609206
O   O16       1.0  0.69701  0.67239  0.05657  1.0000 -0.5810609206
O   O17       1.0  0.82155  0.82485  0.69749  1.0000 -0.199306125
O   O18       1.0  0.82485  0.82155  0.80251  1.0000 -0.199306125
O   O19       1.0  0.17845  0.17515  0.30251  1.0000 -0.199306125
O   O20       1.0  0.17515  0.17845  0.19749  1.0000 -0.199306125
O   O21       1.0  0.36774  0.48106  0.70575  1.0000 -0.1942998141
O   O22       1.0  0.48106  0.36774  0.79425  1.0000 -0.1942998141
O   O23       1.0  0.63226  0.51894  0.29425  1.0000 -0.199306125
O   O24       1.0  0.51894  0.63226  0.20575  1.0000 -0.199306125
