# DDEC6 charges by PACMAN v1.1 (https://github.com/mtap-research/PACMAN-charge/)
data_2016[Cd][nan]3[ASR]32
_chemical_formula_sum              "Cd4 B4 H60 C72 N32 O8"
_cell_length_a       9.003
_cell_length_b       17.382
_cell_length_c       17.164
_cell_angle_alpha    90
_cell_angle_beta     105.909
_cell_angle_gamma    90

_symmetry_space_group_name_H-M    "P 1"
_symmetry_Int_Tables_number       1

loop_
  _symmetry_equiv_pos_as_xyz
  'x, y, z'

loop_
  _atom_site_type_symbol
  _atom_site_label
  _atom_site_symmetry_multiplicity
  _atom_site_fract_x
  _atom_site_fract_y
  _atom_site_fract_z
  _atom_site_occupancy
  _atom_site_charge
Cd  Cd1       1.0  0.16963  0.06015  0.78525  1.0000 0.7616386824
Cd  Cd2       1.0  0.83037  0.56015  0.71475  1.0000 0.7616386824
Cd  Cd3       1.0  0.83037  0.93985  0.21475  1.0000 0.7616386824
Cd  Cd4       1.0  0.16963  0.43985  0.28525  1.0000 0.7616386824
B   B1        1.0  0.71520  0.85370  0.87060  1.0000 0.5138325903
B   B2        1.0  0.28480  0.35370  0.62940  1.0000 0.5138325903
B   B3        1.0  0.28480  0.14630  0.12940  1.0000 0.5153843575
B   B4        1.0  0.71520  0.64630  0.37060  1.0000 0.5138325903
H   H1        1.0  0.34640  0.96780  0.66370  1.0000 0.1301574969
H   H2        1.0  0.65360  0.46780  0.83630  1.0000 0.1301574969
H   H3        1.0  0.65360  0.03220  0.33630  1.0000 0.1301574969
H   H4        1.0  0.34640  0.53220  0.16370  1.0000 0.1301574969
H   H5        1.0  0.50040  0.63020  0.74660  1.0000 0.1212572797
H   H6        1.0  0.49960  0.13020  0.75340  1.0000 0.1212572797
H   H7        1.0  0.49960  0.36980  0.25340  1.0000 0.1212572797
H   H8        1.0  0.50040  0.86980  0.24660  1.0000 0.1212572797
H   H9        1.0  0.82470  0.98130  0.79530  1.0000 0.109811432
H   H10       1.0  0.17530  0.48130  0.70470  1.0000 0.109811432
H   H11       1.0  0.17530  0.01870  0.20470  1.0000 0.109811432
H   H12       1.0  0.82470  0.51870  0.29530  1.0000 0.109811432
H   H13       1.0  0.49960  0.96220  0.90290  1.0000 0.1001367048
H   H14       1.0  0.50040  0.46220  0.59710  1.0000 0.1001367048
H   H15       1.0  0.50040  0.03780  0.09710  1.0000 0.1001367048
H   H16       1.0  0.49960  0.53780  0.40290  1.0000 0.1001367048
H   H17       1.0  0.45390  0.75280  0.80770  1.0000 0.1212572797
H   H18       1.0  0.54610  0.25280  0.69230  1.0000 0.1212572797
H   H19       1.0  0.54610  0.24720  0.19230  1.0000 0.1301574969
H   H20       1.0  0.45390  0.74720  0.30770  1.0000 0.1301574969
H   H21       1.0  0.90460  0.73640  0.82200  1.0000 0.109811432
H   H22       1.0  0.09540  0.23640  0.67800  1.0000 0.109811432
H   H23       1.0  0.09540  0.26360  0.17800  1.0000 0.109811432
H   H24       1.0  0.90460  0.76360  0.32200  1.0000 0.109811432
H   H25       1.0  0.03640  0.81920  0.95190  1.0000 0.1301574969
H   H26       1.0  0.96360  0.31920  0.54810  1.0000 0.1301574969
H   H27       1.0  0.96360  0.18080  0.04810  1.0000 0.1301574969
H   H28       1.0  0.03640  0.68080  0.45190  1.0000 0.1301574969
H   H29       1.0  0.57270  0.88130  0.69920  1.0000 0.1301574969
H   H30       1.0  0.42730  0.38130  0.80080  1.0000 0.1301574969
H   H31       1.0  0.42730  0.11870  0.30080  1.0000 0.1301574969
H   H32       1.0  0.57270  0.61870  0.19920  1.0000 0.1301574969
H   H33       1.0  0.84780  0.93400  0.01720  1.0000 0.1001367048
H   H34       1.0  0.15220  0.43400  0.48280  1.0000 0.1001367048
H   H35       1.0  0.15220  0.06600  0.98280  1.0000 0.1001367048
H   H36       1.0  0.84780  0.56600  0.51720  1.0000 0.1001367048
H   H37       1.0  0.62910  0.08420  0.62980  1.0000 0.109811432
H   H38       1.0  0.37090  0.58420  0.87020  1.0000 0.109811432
H   H39       1.0  0.37090  0.91580  0.37020  1.0000 0.109811432
H   H40       1.0  0.62910  0.41580  0.12980  1.0000 0.109811432
H   H41       1.0  0.23270  0.90550  0.92380  1.0000 0.109811432
H   H42       1.0  0.76730  0.40550  0.57620  1.0000 0.109811432
H   H43       1.0  0.76730  0.09450  0.07620  1.0000 0.109811432
H   H44       1.0  0.23270  0.59450  0.42380  1.0000 0.109811432
H   H45       1.0  0.88030  0.94530  0.52420  1.0000 0.1212572797
H   H46       1.0  0.11970  0.44530  0.97580  1.0000 0.1212572797
H   H47       1.0  0.11970  0.05470  0.47580  1.0000 0.1212572797
H   H48       1.0  0.88030  0.55470  0.02420  1.0000 0.1212572797
H   H49       1.0  0.58340  0.79810  0.10550  1.0000 0.1212572797
H   H50       1.0  0.41660  0.29810  0.39450  1.0000 0.1212572797
H   H51       1.0  0.41660  0.20190  0.89450  1.0000 0.1212572797
H   H52       1.0  0.58340  0.70190  0.60550  1.0000 0.1212572797
H   H53       1.0  0.54520  0.76210  0.96230  1.0000 0.1212572797
H   H54       1.0  0.45480  0.26210  0.53770  1.0000 0.1212572797
H   H55       1.0  0.45480  0.23790  0.03770  1.0000 0.1212572797
H   H56       1.0  0.54520  0.73790  0.46230  1.0000 0.1212572797
H   H57       1.0  0.65650  0.90690  0.42900  1.0000 0.109811432
H   H58       1.0  0.34350  0.40690  0.07100  1.0000 0.109811432
H   H59       1.0  0.34350  0.09310  0.57100  1.0000 0.109811432
H   H60       1.0  0.65650  0.59310  0.92900  1.0000 0.109811432
C   C1        1.0  0.40630  0.95580  0.71710  1.0000 -0.0324473641
C   C2        1.0  0.59370  0.45580  0.78290  1.0000 -0.0324473641
C   C3        1.0  0.59370  0.04420  0.28290  1.0000 -0.0324473641
C   C4        1.0  0.40630  0.54420  0.21710  1.0000 -0.0324473641
C   C5        1.0  0.57700  0.66750  0.76980  1.0000 -0.0495151911
C   C6        1.0  0.42300  0.16750  0.73020  1.0000 -0.0495151911
C   C7        1.0  0.42300  0.33250  0.23020  1.0000 -0.0495151911
C   C8        1.0  0.57700  0.83250  0.26980  1.0000 -0.0495151911
C   C9        1.0  0.90250  0.95140  0.83110  1.0000 0.1301574969
C   C10       1.0  0.09750  0.45140  0.66890  1.0000 0.1301574969
C   C11       1.0  0.09750  0.04860  0.16890  1.0000 0.1301574969
C   C12       1.0  0.90250  0.54860  0.33110  1.0000 0.1301574969
C   C13       1.0  0.48920  0.95260  0.84720  1.0000 0.1212572797
C   C14       1.0  0.51080  0.45260  0.65280  1.0000 0.1212572797
C   C15       1.0  0.51080  0.04740  0.15280  1.0000 0.1212572797
C   C16       1.0  0.48920  0.54740  0.34720  1.0000 0.1212572797
C   C17       1.0  0.55080  0.73470  0.80330  1.0000 -0.0888861678
C   C18       1.0  0.44920  0.23470  0.69670  1.0000 -0.0888861678
C   C19       1.0  0.44920  0.26530  0.19670  1.0000 -0.0888861678
C   C20       1.0  0.55080  0.76530  0.30330  1.0000 -0.0888861678
C   C21       1.0  0.79760  0.72510  0.81080  1.0000 0.1301574969
C   C22       1.0  0.20240  0.22510  0.68920  1.0000 0.1301574969
C   C23       1.0  0.20240  0.27490  0.18920  1.0000 0.1301574969
C   C24       1.0  0.79760  0.77490  0.31080  1.0000 0.1301574969
C   C25       1.0  0.01690  0.86230  0.91660  1.0000 -0.0888861678
C   C26       1.0  0.98310  0.36230  0.58340  1.0000 -0.0888861678
C   C27       1.0  0.98310  0.13770  0.08340  1.0000 -0.0888861678
C   C28       1.0  0.01690  0.63770  0.41660  1.0000 -0.0888861678
C   C29       1.0  0.52990  0.90790  0.73630  1.0000 -0.0888861678
C   C30       1.0  0.47010  0.40790  0.76370  1.0000 -0.0888861678
C   C31       1.0  0.47010  0.09210  0.26370  1.0000 -0.0888861678
C   C32       1.0  0.52990  0.59210  0.23630  1.0000 -0.0888861678
C   C33       1.0  0.77650  0.89500  0.02160  1.0000 0.1212572797
C   C34       1.0  0.22350  0.39500  0.47840  1.0000 0.1212572797
C   C35       1.0  0.22350  0.10500  0.97840  1.0000 0.1212572797
C   C36       1.0  0.77650  0.60500  0.52160  1.0000 0.1212572797
C   C37       1.0  0.63420  0.04830  0.58890  1.0000 -0.1792459972
C   C38       1.0  0.36580  0.54830  0.91110  1.0000 -0.1792459972
C   C39       1.0  0.36580  0.95170  0.41110  1.0000 -0.1792459972
C   C40       1.0  0.63420  0.45170  0.08890  1.0000 -0.1792459972
C   C41       1.0  0.49590  0.02710  0.53020  1.0000 0.0720393919
C   C42       1.0  0.50410  0.52710  0.96980  1.0000 0.0720393919
C   C43       1.0  0.50410  0.97290  0.46980  1.0000 0.0720393919
C   C44       1.0  0.49590  0.47290  0.03020  1.0000 0.0720393919
C   C45       1.0  0.12430  0.91000  0.90120  1.0000 -0.0495151911
C   C46       1.0  0.87570  0.41000  0.59880  1.0000 -0.0495151911
C   C47       1.0  0.87570  0.09000  0.09880  1.0000 -0.0495151911
C   C48       1.0  0.12430  0.59000  0.40120  1.0000 -0.0495151911
C   C49       1.0  0.77510  0.01850  0.58840  1.0000 -0.019410137
C   C50       1.0  0.22490  0.51850  0.91160  1.0000 -0.019410137
C   C51       1.0  0.22490  0.98150  0.41160  1.0000 -0.019410137
C   C52       1.0  0.77510  0.48150  0.08840  1.0000 -0.019410137
C   C53       1.0  0.78330  0.96530  0.52630  1.0000 -0.114495363
C   C54       1.0  0.21670  0.46530  0.97370  1.0000 -0.114495363
C   C55       1.0  0.21670  0.03470  0.47370  1.0000 -0.114495363
C   C56       1.0  0.78330  0.53470  0.02630  1.0000 -0.114495363
C   C57       1.0  0.63330  0.82150  0.06940  1.0000 -0.0495151911
C   C58       1.0  0.36670  0.32150  0.43060  1.0000 -0.0495151911
C   C59       1.0  0.36670  0.17850  0.93060  1.0000 -0.0495151911
C   C60       1.0  0.63330  0.67850  0.56940  1.0000 -0.0495151911
C   C61       1.0  0.61180  0.80140  0.99060  1.0000 -0.0746816657
C   C62       1.0  0.38820  0.30140  0.50940  1.0000 -0.0754432044
C   C63       1.0  0.38820  0.19860  0.00940  1.0000 -0.0754432044
C   C64       1.0  0.61180  0.69860  0.49060  1.0000 -0.0754432044
C   C65       1.0  0.91940  0.03890  0.65270  1.0000 0.5357276314
C   C66       1.0  0.08060  0.53890  0.84730  1.0000 0.5357276314
C   C67       1.0  0.08060  0.96110  0.34730  1.0000 0.5357276314
C   C68       1.0  0.91940  0.46110  0.15270  1.0000 0.5357276314
C   C69       1.0  0.65010  0.94310  0.46940  1.0000 -0.1609386838
C   C70       1.0  0.34990  0.44310  0.03060  1.0000 -0.1609386838
C   C71       1.0  0.34990  0.05690  0.53060  1.0000 -0.1609386838
C   C72       1.0  0.65010  0.55690  0.96940  1.0000 -0.1609386838
N   N1        1.0  0.58270  0.90500  0.82060  1.0000 -0.2204955461
N   N2        1.0  0.41730  0.40500  0.67940  1.0000 -0.2204955461
N   N3        1.0  0.41730  0.09500  0.17940  1.0000 -0.2204955461
N   N4        1.0  0.58270  0.59500  0.32060  1.0000 -0.2204955461
N   N5        1.0  0.73200  0.66140  0.77430  1.0000 -0.2833640836
N   N6        1.0  0.26800  0.16140  0.72570  1.0000 -0.2833640836
N   N7        1.0  0.26800  0.33860  0.22570  1.0000 -0.2833640836
N   N8        1.0  0.73200  0.83860  0.27430  1.0000 -0.2833640836
N   N9        1.0  0.87350  0.88780  0.87140  1.0000 -0.2204955461
N   N10       1.0  0.12650  0.38780  0.62860  1.0000 -0.2204955461
N   N11       1.0  0.12650  0.11220  0.12860  1.0000 -0.2204955461
N   N12       1.0  0.87350  0.61220  0.37140  1.0000 -0.2204955461
N   N13       1.0  0.70420  0.84850  0.95920  1.0000 -0.2137610595
N   N14       1.0  0.29580  0.34850  0.54080  1.0000 -0.2137610595
N   N15       1.0  0.29580  0.15150  0.04080  1.0000 -0.2137610595
N   N16       1.0  0.70420  0.65150  0.45920  1.0000 -0.2137610595
N   N17       1.0  0.69210  0.77230  0.83020  1.0000 -0.2137610595
N   N18       1.0  0.30790  0.27230  0.66980  1.0000 -0.2137610595
N   N19       1.0  0.30790  0.22770  0.16980  1.0000 -0.2137610595
N   N20       1.0  0.69210  0.72770  0.33020  1.0000 -0.2137610595
N   N21       1.0  0.05200  0.96610  0.84790  1.0000 -0.2833640836
N   N22       1.0  0.94800  0.46610  0.65210  1.0000 -0.2833640836
N   N23       1.0  0.94800  0.03390  0.15210  1.0000 -0.2833640836
N   N24       1.0  0.05200  0.53390  0.34790  1.0000 -0.2833640836
N   N25       1.0  0.73810  0.88080  0.08920  1.0000 -0.2957287244
N   N26       1.0  0.26190  0.38080  0.41080  1.0000 -0.2957287244
N   N27       1.0  0.26190  0.11920  0.91080  1.0000 -0.2957287244
N   N28       1.0  0.73810  0.61920  0.58920  1.0000 -0.2957287244
N   N29       1.0  0.38140  0.98450  0.78790  1.0000 -0.2902522496
N   N30       1.0  0.61860  0.48450  0.71210  1.0000 -0.2902522496
N   N31       1.0  0.61860  0.01550  0.21210  1.0000 -0.2902522496
N   N32       1.0  0.38140  0.51550  0.28790  1.0000 -0.2902522496
O   O1        1.0  0.91320  0.08750  0.70680  1.0000 -0.581721086
O   O2        1.0  0.08680  0.58750  0.79320  1.0000 -0.581721086
O   O3        1.0  0.08680  0.91250  0.29320  1.0000 -0.581721086
O   O4        1.0  0.91320  0.41250  0.20680  1.0000 -0.581721086
O   O5        1.0  0.04180  0.00520  0.65340  1.0000 -0.5370574779
O   O6        1.0  0.95820  0.50520  0.84660  1.0000 -0.5370574779
O   O7        1.0  0.95820  0.99480  0.34660  1.0000 -0.5370574779
O   O8        1.0  0.04180  0.49480  0.15340  1.0000 -0.5370574779
