# DDEC6 charges by PACMAN v1.1 (https://github.com/mtap-research/PACMAN-charge/)
data_2016[Cu][nbo]3[ASR]35
_chemical_formula_sum              "Cu6 H90 C132 O30"
_cell_length_a       21.6151
_cell_length_b       21.6151
_cell_length_c       21.6151
_cell_angle_alpha    108.713
_cell_angle_beta     108.713
_cell_angle_gamma    108.713

_symmetry_space_group_name_H-M    "P 1"
_symmetry_Int_Tables_number       1

loop_
  _symmetry_equiv_pos_as_xyz
  'x, y, z'

loop_
  _atom_site_type_symbol
  _atom_site_label
  _atom_site_symmetry_multiplicity
  _atom_site_fract_x
  _atom_site_fract_y
  _atom_site_fract_z
  _atom_site_occupancy
  _atom_site_charge
Cu  Cu1       1.0  0.95353  0.43077  0.95353  1.0000 0.8589421683
Cu  Cu2       1.0  0.43077  0.95353  0.95353  1.0000 0.8589421683
Cu  Cu3       1.0  0.95353  0.95353  0.43077  1.0000 0.8589421683
Cu  Cu4       1.0  0.56923  0.04647  0.04647  1.0000 0.8589421683
Cu  Cu5       1.0  0.04647  0.56923  0.04647  1.0000 0.8589421683
Cu  Cu6       1.0  0.04647  0.04647  0.56923  1.0000 0.8589421683
H   H1        1.0  0.07110  0.64980  0.89140  1.0000 0.1276827182
H   H2        1.0  0.64980  0.89140  0.07110  1.0000 0.1276827182
H   H3        1.0  0.89140  0.07110  0.64980  1.0000 0.1276827182
H   H4        1.0  0.35020  0.92890  0.10860  1.0000 0.1276827182
H   H5        1.0  0.10860  0.35020  0.92890  1.0000 0.1276827182
H   H6        1.0  0.92890  0.10860  0.35020  1.0000 0.1276827182
H   H7        1.0  0.92890  0.35020  0.10860  1.0000 0.1276827182
H   H8        1.0  0.35020  0.10860  0.92890  1.0000 0.1276827182
H   H9        1.0  0.10860  0.92890  0.35020  1.0000 0.1276827182
H   H10       1.0  0.64980  0.07110  0.89140  1.0000 0.1276827182
H   H11       1.0  0.89140  0.64980  0.07110  1.0000 0.1276827182
H   H12       1.0  0.07110  0.89140  0.64980  1.0000 0.1276827182
H   H13       1.0  0.07490  0.67140  0.79580  1.0000 0.1276827182
H   H14       1.0  0.67140  0.79580  0.07490  1.0000 0.1276827182
H   H15       1.0  0.79580  0.07490  0.67140  1.0000 0.1276827182
H   H16       1.0  0.32860  0.92510  0.20420  1.0000 0.1276827182
H   H17       1.0  0.20420  0.32860  0.92510  1.0000 0.1276827182
H   H18       1.0  0.92510  0.20420  0.32860  1.0000 0.1276827182
H   H19       1.0  0.92510  0.32860  0.20420  1.0000 0.1276827182
H   H20       1.0  0.32860  0.20420  0.92510  1.0000 0.1276827182
H   H21       1.0  0.20420  0.92510  0.32860  1.0000 0.1276827182
H   H22       1.0  0.67140  0.07490  0.79580  1.0000 0.1276827182
H   H23       1.0  0.79580  0.67140  0.07490  1.0000 0.1276827182
H   H24       1.0  0.07490  0.79580  0.67140  1.0000 0.1276827182
H   H25       1.0  0.91770  0.45900  0.65060  1.0000 0.1196794091
H   H26       1.0  0.45900  0.65060  0.91770  1.0000 0.1196794091
H   H27       1.0  0.65060  0.91770  0.45900  1.0000 0.1196794091
H   H28       1.0  0.54100  0.08230  0.34940  1.0000 0.1196794091
H   H29       1.0  0.34940  0.54100  0.08230  1.0000 0.1196794091
H   H30       1.0  0.08230  0.34940  0.54100  1.0000 0.1196794091
H   H31       1.0  0.08230  0.54100  0.34940  1.0000 0.1196794091
H   H32       1.0  0.54100  0.34940  0.08230  1.0000 0.1196794091
H   H33       1.0  0.34940  0.08230  0.54100  1.0000 0.1196794091
H   H34       1.0  0.45900  0.91770  0.65060  1.0000 0.1196794091
H   H35       1.0  0.65060  0.45900  0.91770  1.0000 0.1196794091
H   H36       1.0  0.91770  0.65060  0.45900  1.0000 0.1196794091
H   H37       1.0  0.92090  0.43860  0.75000  1.0000 0.1196794091
H   H38       1.0  0.43860  0.75000  0.92090  1.0000 0.1196794091
H   H39       1.0  0.75000  0.92090  0.43860  1.0000 0.1196794091
H   H40       1.0  0.56140  0.07910  0.25000  1.0000 0.1276827182
H   H41       1.0  0.25000  0.56140  0.07910  1.0000 0.1276827182
H   H42       1.0  0.07910  0.25000  0.56140  1.0000 0.1196794091
H   H43       1.0  0.07910  0.56140  0.25000  1.0000 0.1196794091
H   H44       1.0  0.56140  0.25000  0.07910  1.0000 0.1276827182
H   H45       1.0  0.25000  0.07910  0.56140  1.0000 0.1276827182
H   H46       1.0  0.43860  0.92090  0.75000  1.0000 0.1196794091
H   H47       1.0  0.75000  0.43860  0.92090  1.0000 0.1196794091
H   H48       1.0  0.92090  0.75000  0.43860  1.0000 0.1196794091
H   H49       1.0  0.99910  0.48370  0.59700  1.0000 0.1107654893
H   H50       1.0  0.48370  0.59700  0.99910  1.0000 0.1107654893
H   H51       1.0  0.59700  0.99910  0.48370  1.0000 0.1107654893
H   H52       1.0  0.51630  0.00090  0.40300  1.0000 0.1107654893
H   H53       1.0  0.40300  0.51630  0.00090  1.0000 0.1107654893
H   H54       1.0  0.00090  0.40300  0.51630  1.0000 0.1107654893
H   H55       1.0  0.00090  0.51630  0.40300  1.0000 0.1107654893
H   H56       1.0  0.51630  0.40300  0.00090  1.0000 0.1107654893
H   H57       1.0  0.40300  0.00090  0.51630  1.0000 0.1107654893
H   H58       1.0  0.48370  0.99910  0.59700  1.0000 0.1107654893
H   H59       1.0  0.59700  0.48370  0.99910  1.0000 0.1107654893
H   H60       1.0  0.99910  0.59700  0.48370  1.0000 0.1107654893
H   H61       1.0  0.90030  0.68360  0.63870  1.0000 0.0720372273
H   H62       1.0  0.68360  0.63870  0.90030  1.0000 0.0720372273
H   H63       1.0  0.63870  0.90030  0.68360  1.0000 0.0720372273
H   H64       1.0  0.31640  0.09970  0.36130  1.0000 0.0720372273
H   H65       1.0  0.36130  0.31640  0.09970  1.0000 0.0720372273
H   H66       1.0  0.09970  0.36130  0.31640  1.0000 0.0720372273
H   H67       1.0  0.09970  0.31640  0.36130  1.0000 0.0720372273
H   H68       1.0  0.31640  0.36130  0.09970  1.0000 0.0720372273
H   H69       1.0  0.36130  0.09970  0.31640  1.0000 0.0720372273
H   H70       1.0  0.68360  0.90030  0.63870  1.0000 0.0720372273
H   H71       1.0  0.63870  0.68360  0.90030  1.0000 0.0720372273
H   H72       1.0  0.90030  0.63870  0.68360  1.0000 0.0720372273
H   H73       1.0  0.89000  0.74370  0.74370  1.0000 0.1107654893
H   H74       1.0  0.74370  0.74370  0.89000  1.0000 0.1107654893
H   H75       1.0  0.74370  0.89000  0.74370  1.0000 0.1107654893
H   H76       1.0  0.25630  0.11000  0.25630  1.0000 0.1107654893
H   H77       1.0  0.25630  0.25630  0.11000  1.0000 0.1107654893
H   H78       1.0  0.11000  0.25630  0.25630  1.0000 0.1107654893
H   H79       1.0  0.96460  0.75010  0.79470  1.0000 0.1107654893
H   H80       1.0  0.75010  0.79470  0.96460  1.0000 0.1107654893
H   H81       1.0  0.79470  0.96460  0.75010  1.0000 0.1107654893
H   H82       1.0  0.24990  0.03540  0.20530  1.0000 0.1107654893
H   H83       1.0  0.20530  0.24990  0.03540  1.0000 0.1107654893
H   H84       1.0  0.03540  0.20530  0.24990  1.0000 0.1107654893
H   H85       1.0  0.03540  0.24990  0.20530  1.0000 0.1107654893
H   H86       1.0  0.24990  0.20530  0.03540  1.0000 0.1107654893
H   H87       1.0  0.20530  0.03540  0.24990  1.0000 0.1107654893
H   H88       1.0  0.75010  0.96460  0.79470  1.0000 0.1107654893
H   H89       1.0  0.79470  0.75010  0.96460  1.0000 0.1107654893
H   H90       1.0  0.96460  0.79470  0.75010  1.0000 0.1107654893
C   C1        1.0  0.99650  0.52749  0.89505  1.0000 0.5794428759
C   C2        1.0  0.52749  0.89505  0.99650  1.0000 0.5794428759
C   C3        1.0  0.89505  0.99650  0.52749  1.0000 0.5794428759
C   C4        1.0  0.47251  0.00350  0.10495  1.0000 0.5794428759
C   C5        1.0  0.10495  0.47251  0.00350  1.0000 0.5794428759
C   C6        1.0  0.00350  0.10495  0.47251  1.0000 0.5794428759
C   C7        1.0  0.00350  0.47251  0.10495  1.0000 0.5794428759
C   C8        1.0  0.47251  0.10495  0.00350  1.0000 0.5794428759
C   C9        1.0  0.10495  0.00350  0.47251  1.0000 0.5794428759
C   C10       1.0  0.52749  0.99650  0.89505  1.0000 0.5794428759
C   C11       1.0  0.89505  0.52749  0.99650  1.0000 0.5794428759
C   C12       1.0  0.99650  0.89505  0.52749  1.0000 0.5794428759
C   C13       1.0  0.99640  0.54157  0.83094  1.0000 -0.0314749372
C   C14       1.0  0.54157  0.83094  0.99640  1.0000 -0.0314749372
C   C15       1.0  0.83094  0.99640  0.54157  1.0000 -0.0314749372
C   C16       1.0  0.45843  0.00360  0.16906  1.0000 -0.0314749372
C   C17       1.0  0.16906  0.45843  0.00360  1.0000 -0.0314749372
C   C18       1.0  0.00360  0.16906  0.45843  1.0000 -0.0314749372
C   C19       1.0  0.00360  0.45843  0.16906  1.0000 -0.0314749372
C   C20       1.0  0.45843  0.16906  0.00360  1.0000 -0.0314749372
C   C21       1.0  0.16906  0.00360  0.45843  1.0000 -0.0314749372
C   C22       1.0  0.54157  0.99640  0.83094  1.0000 -0.0314749372
C   C23       1.0  0.83094  0.54157  0.99640  1.0000 -0.0314749372
C   C24       1.0  0.99640  0.83094  0.54157  1.0000 -0.0314749372
C   C25       1.0  0.04137  0.61122  0.84313  1.0000 -0.0874931258
C   C26       1.0  0.61122  0.84313  0.04137  1.0000 -0.0874931258
C   C27       1.0  0.84313  0.04137  0.61122  1.0000 -0.0874931258
C   C28       1.0  0.38878  0.95863  0.15687  1.0000 -0.0874931258
C   C29       1.0  0.15687  0.38878  0.95863  1.0000 -0.0874931258
C   C30       1.0  0.95863  0.15687  0.38878  1.0000 -0.0874931258
C   C31       1.0  0.95863  0.38878  0.15687  1.0000 -0.0874931258
C   C32       1.0  0.38878  0.15687  0.95863  1.0000 -0.0874931258
C   C33       1.0  0.15687  0.95863  0.38878  1.0000 -0.0874931258
C   C34       1.0  0.61122  0.04137  0.84313  1.0000 -0.0874931258
C   C35       1.0  0.84313  0.61122  0.04137  1.0000 -0.0874931258
C   C36       1.0  0.04137  0.84313  0.61122  1.0000 -0.0874931258
C   C37       1.0  0.04310  0.62446  0.78574  1.0000 -0.1522645865
C   C38       1.0  0.62446  0.78574  0.04310  1.0000 -0.1522645865
C   C39       1.0  0.78574  0.04310  0.62446  1.0000 -0.1522645865
C   C40       1.0  0.37554  0.95690  0.21426  1.0000 -0.1522645865
C   C41       1.0  0.21426  0.37554  0.95690  1.0000 -0.1522645865
C   C42       1.0  0.95690  0.21426  0.37554  1.0000 -0.1522645865
C   C43       1.0  0.95690  0.37554  0.21426  1.0000 -0.1522645865
C   C44       1.0  0.37554  0.21426  0.95690  1.0000 -0.1522645865
C   C45       1.0  0.21426  0.95690  0.37554  1.0000 -0.1522645865
C   C46       1.0  0.62446  0.04310  0.78574  1.0000 -0.1522645865
C   C47       1.0  0.78574  0.62446  0.04310  1.0000 -0.1522645865
C   C48       1.0  0.04310  0.78574  0.62446  1.0000 -0.1522645865
C   C49       1.0  0.99829  0.56900  0.71291  1.0000 0.091876457
C   C50       1.0  0.56900  0.71291  0.99829  1.0000 0.091876457
C   C51       1.0  0.71291  0.99829  0.56900  1.0000 0.091876457
C   C52       1.0  0.43100  0.00171  0.28709  1.0000 0.091876457
C   C53       1.0  0.28709  0.43100  0.00171  1.0000 0.091876457
C   C54       1.0  0.00171  0.28709  0.43100  1.0000 0.091876457
C   C55       1.0  0.00171  0.43100  0.28709  1.0000 0.091876457
C   C56       1.0  0.43100  0.28709  0.00171  1.0000 0.091876457
C   C57       1.0  0.28709  0.00171  0.43100  1.0000 0.091876457
C   C58       1.0  0.56900  0.99829  0.71291  1.0000 0.091876457
C   C59       1.0  0.71291  0.56900  0.99829  1.0000 0.091876457
C   C60       1.0  0.99829  0.71291  0.56900  1.0000 0.091876457
C   C61       1.0  0.94962  0.49708  0.69880  1.0000 -0.1723234518
C   C62       1.0  0.49708  0.69880  0.94962  1.0000 -0.1723234518
C   C63       1.0  0.69880  0.94962  0.49708  1.0000 -0.1723234518
C   C64       1.0  0.50292  0.05038  0.30120  1.0000 -0.1723234518
C   C65       1.0  0.30120  0.50292  0.05038  1.0000 -0.1723234518
C   C66       1.0  0.05038  0.30120  0.50292  1.0000 -0.1723234518
C   C67       1.0  0.05038  0.50292  0.30120  1.0000 -0.1723234518
C   C68       1.0  0.50292  0.30120  0.05038  1.0000 -0.1723234518
C   C69       1.0  0.30120  0.05038  0.50292  1.0000 -0.1723234518
C   C70       1.0  0.49708  0.94962  0.69880  1.0000 -0.1723234518
C   C71       1.0  0.69880  0.49708  0.94962  1.0000 -0.1723234518
C   C72       1.0  0.94962  0.69880  0.49708  1.0000 -0.1723234518
C   C73       1.0  0.95115  0.48546  0.75869  1.0000 -0.0874931258
C   C74       1.0  0.48546  0.75869  0.95115  1.0000 -0.0874931258
C   C75       1.0  0.75869  0.95115  0.48546  1.0000 -0.0874931258
C   C76       1.0  0.51454  0.04885  0.24131  1.0000 -0.0874931258
C   C77       1.0  0.24131  0.51454  0.04885  1.0000 -0.0874931258
C   C78       1.0  0.04885  0.24131  0.51454  1.0000 -0.0874931258
C   C79       1.0  0.04885  0.51454  0.24131  1.0000 -0.0874931258
C   C80       1.0  0.51454  0.24131  0.04885  1.0000 -0.0874931258
C   C81       1.0  0.24131  0.04885  0.51454  1.0000 -0.0874931258
C   C82       1.0  0.48546  0.95115  0.75869  1.0000 -0.0874931258
C   C83       1.0  0.75869  0.48546  0.95115  1.0000 -0.0874931258
C   C84       1.0  0.95115  0.75869  0.48546  1.0000 -0.0874931258
C   C85       1.0  0.99875  0.57788  0.64690  1.0000 -0.0196662941
C   C86       1.0  0.57788  0.64690  0.99875  1.0000 -0.0196662941
C   C87       1.0  0.64690  0.99875  0.57788  1.0000 -0.0196662941
C   C88       1.0  0.42212  0.00125  0.35310  1.0000 -0.0196662941
C   C89       1.0  0.35310  0.42212  0.00125  1.0000 -0.0196662941
C   C90       1.0  0.00125  0.35310  0.42212  1.0000 -0.0196662941
C   C91       1.0  0.00125  0.42212  0.35310  1.0000 -0.0196662941
C   C92       1.0  0.42212  0.35310  0.00125  1.0000 -0.0196662941
C   C93       1.0  0.35310  0.00125  0.42212  1.0000 -0.0196662941
C   C94       1.0  0.57788  0.99875  0.64690  1.0000 -0.0196662941
C   C95       1.0  0.64690  0.57788  0.99875  1.0000 -0.0196662941
C   C96       1.0  0.99875  0.64690  0.57788  1.0000 -0.0196662941
C   C97       1.0  0.99932  0.52495  0.59213  1.0000 -0.1882214895
C   C98       1.0  0.52495  0.59213  0.99932  1.0000 -0.1882214895
C   C99       1.0  0.59213  0.99932  0.52495  1.0000 -0.1882214895
C   C100      1.0  0.47505  0.00068  0.40787  1.0000 -0.1882214895
C   C101      1.0  0.40787  0.47505  0.00068  1.0000 -0.1882214895
C   C102      1.0  0.00068  0.40787  0.47505  1.0000 -0.1882214895
C   C103      1.0  0.00068  0.47505  0.40787  1.0000 -0.1882214895
C   C104      1.0  0.47505  0.40787  0.00068  1.0000 -0.1882214895
C   C105      1.0  0.40787  0.00068  0.47505  1.0000 -0.1882214895
C   C106      1.0  0.52495  0.99932  0.59213  1.0000 -0.1882214895
C   C107      1.0  0.59213  0.52495  0.99932  1.0000 -0.1882214895
C   C108      1.0  0.99932  0.59213  0.52495  1.0000 -0.1882214895
C   C109      1.0  0.00020  0.52900  0.52900  1.0000 0.0720372273
C   C110      1.0  0.52900  0.52900  0.00020  1.0000 0.0720372273
C   C111      1.0  0.52900  0.00020  0.52900  1.0000 0.0720372273
C   C112      1.0  0.47100  0.99980  0.47100  1.0000 0.0720372273
C   C113      1.0  0.47100  0.47100  0.99980  1.0000 0.0720372273
C   C114      1.0  0.99980  0.47100  0.47100  1.0000 0.0720372273
C   C115      1.0  0.00046  0.64182  0.64182  1.0000 0.1772704595
C   C116      1.0  0.64182  0.64182  0.00046  1.0000 0.1772704595
C   C117      1.0  0.64182  0.00046  0.64182  1.0000 0.1772704595
C   C118      1.0  0.35818  0.99954  0.35818  1.0000 0.1772704595
C   C119      1.0  0.35818  0.35818  0.99954  1.0000 0.1772704595
C   C120      1.0  0.99954  0.35818  0.35818  1.0000 0.1772704595
C   C121      1.0  0.92752  0.68519  0.68519  1.0000 0.0043155
C   C122      1.0  0.68519  0.68519  0.92752  1.0000 0.0043155
C   C123      1.0  0.68519  0.92752  0.68519  1.0000 0.0043155
C   C124      1.0  0.31481  0.07248  0.31481  1.0000 0.0043155
C   C125      1.0  0.31481  0.31481  0.07248  1.0000 0.0043155
C   C126      1.0  0.07248  0.31481  0.31481  1.0000 0.0043155
C   C127      1.0  0.93770  0.74925  0.74925  1.0000 -0.3712801562
C   C128      1.0  0.74925  0.74925  0.93770  1.0000 -0.3712801562
C   C129      1.0  0.74925  0.93770  0.74925  1.0000 -0.3712801562
C   C130      1.0  0.25075  0.06230  0.25075  1.0000 -0.3712801562
C   C131      1.0  0.25075  0.25075  0.06230  1.0000 -0.3712801562
C   C132      1.0  0.06230  0.25075  0.25075  1.0000 -0.3712801562
O   O1        1.0  0.95593  0.46070  0.87794  1.0000 -0.5251258241
O   O2        1.0  0.46070  0.87794  0.95593  1.0000 -0.5251258241
O   O3        1.0  0.87794  0.95593  0.46070  1.0000 -0.5246215092
O   O4        1.0  0.53930  0.04407  0.12206  1.0000 -0.5251258241
O   O5        1.0  0.12206  0.53930  0.04407  1.0000 -0.5246215092
O   O6        1.0  0.04407  0.12206  0.53930  1.0000 -0.5246215092
O   O7        1.0  0.04407  0.53930  0.12206  1.0000 -0.5251258241
O   O8        1.0  0.53930  0.12206  0.04407  1.0000 -0.5246215092
O   O9        1.0  0.12206  0.04407  0.53930  1.0000 -0.5246215092
O   O10       1.0  0.46070  0.95593  0.87794  1.0000 -0.5246215092
O   O11       1.0  0.87794  0.46070  0.95593  1.0000 -0.5246215092
O   O12       1.0  0.95593  0.87794  0.46070  1.0000 -0.5246215092
O   O13       1.0  0.03739  0.58098  0.95892  1.0000 -0.5092816031
O   O14       1.0  0.58098  0.95892  0.03739  1.0000 -0.5092816031
O   O15       1.0  0.95892  0.03739  0.58098  1.0000 -0.5092816031
O   O16       1.0  0.41902  0.96261  0.04108  1.0000 -0.5092816031
O   O17       1.0  0.04108  0.41902  0.96261  1.0000 -0.5092816031
O   O18       1.0  0.96261  0.04108  0.41902  1.0000 -0.5092816031
O   O19       1.0  0.96261  0.41902  0.04108  1.0000 -0.5092816031
O   O20       1.0  0.41902  0.04108  0.96261  1.0000 -0.5092816031
O   O21       1.0  0.04108  0.96261  0.41902  1.0000 -0.5092816031
O   O22       1.0  0.58098  0.03739  0.95892  1.0000 -0.5092816031
O   O23       1.0  0.95892  0.58098  0.03739  1.0000 -0.5092816031
O   O24       1.0  0.03739  0.95892  0.58098  1.0000 -0.5092816031
O   O25       1.0  0.00268  0.69756  0.69756  1.0000 -0.2305933586
O   O26       1.0  0.69756  0.69756  0.00268  1.0000 -0.2305933586
O   O27       1.0  0.69756  0.00268  0.69756  1.0000 -0.2305933586
O   O28       1.0  0.30244  0.99732  0.30244  1.0000 -0.2305933586
O   O29       1.0  0.30244  0.30244  0.99732  1.0000 -0.2305933586
O   O30       1.0  0.99732  0.30244  0.30244  1.0000 -0.2305933586
