# DDEC6 charges by PACMAN v1.1 (https://github.com/mtap-research/PACMAN-charge/)
data_2016[ZnU][nan]3[ASR]1
_chemical_formula_sum              "U4 Zn4 H48 C96 N16 O32"
_cell_length_a       15.7633
_cell_length_b       15.7633
_cell_length_c       15.4596
_cell_angle_alpha    77.2652
_cell_angle_beta     102.735
_cell_angle_gamma    67.1284

_symmetry_space_group_name_H-M    "P 1"
_symmetry_Int_Tables_number       1

loop_
  _symmetry_equiv_pos_as_xyz
  'x, y, z'

loop_
  _atom_site_type_symbol
  _atom_site_label
  _atom_site_symmetry_multiplicity
  _atom_site_fract_x
  _atom_site_fract_y
  _atom_site_fract_z
  _atom_site_occupancy
  _atom_site_charge
U   U1        1.0  0.11251  0.41167  0.41583  1.0000 1.9418894075
U   U2        1.0  0.41167  0.11251  0.08417  1.0000 1.9418894075
U   U3        1.0  0.88749  0.58833  0.58417  1.0000 1.9466875019
U   U4        1.0  0.58833  0.88749  0.91583  1.0000 1.9418894075
Zn  Zn1       1.0  0.26402  0.79600  0.49936  1.0000 0.618935329
Zn  Zn2       1.0  0.79600  0.26402  0.00064  1.0000 0.618935329
Zn  Zn3       1.0  0.73598  0.20400  0.50064  1.0000 0.618935329
Zn  Zn4       1.0  0.20400  0.73598  0.99936  1.0000 0.618935329
H   H1        1.0  0.89990  0.95890  0.35720  1.0000 0.12880597
H   H2        1.0  0.95890  0.89990  0.14280  1.0000 0.12880597
H   H3        1.0  0.10010  0.04110  0.64280  1.0000 0.12880597
H   H4        1.0  0.04110  0.10010  0.85720  1.0000 0.12880597
H   H5        1.0  0.17110  0.61610  0.16820  1.0000 0.1124364856
H   H6        1.0  0.61610  0.17110  0.33180  1.0000 0.1124364856
H   H7        1.0  0.82890  0.38390  0.83180  1.0000 0.1124364856
H   H8        1.0  0.38390  0.82890  0.66820  1.0000 0.1124364856
H   H9        1.0  0.87860  0.81680  0.38360  1.0000 0.12880597
H   H10       1.0  0.81680  0.87860  0.11640  1.0000 0.12880597
H   H11       1.0  0.12140  0.18320  0.61640  1.0000 0.12880597
H   H12       1.0  0.18320  0.12140  0.88360  1.0000 0.12880597
H   H13       1.0  0.16830  0.65830  0.46770  1.0000 0.1124364856
H   H14       1.0  0.65830  0.16830  0.03230  1.0000 0.1124364856
H   H15       1.0  0.83170  0.34170  0.53230  1.0000 0.1124364856
H   H16       1.0  0.34170  0.83170  0.96770  1.0000 0.1124364856
H   H17       1.0  0.25970  0.99750  0.46410  1.0000 0.1028116058
H   H18       1.0  0.99750  0.25970  0.03590  1.0000 0.1028116058
H   H19       1.0  0.74030  0.00250  0.53590  1.0000 0.1028116058
H   H20       1.0  0.00250  0.74030  0.96410  1.0000 0.1028116058
H   H21       1.0  0.24050  0.47610  0.85880  1.0000 0.12880597
H   H22       1.0  0.47610  0.24050  0.64120  1.0000 0.12880597
H   H23       1.0  0.75950  0.52390  0.14120  1.0000 0.12880597
H   H24       1.0  0.52390  0.75950  0.35880  1.0000 0.12880597
H   H25       1.0  0.98220  0.20620  0.34770  1.0000 0.1195340328
H   H26       1.0  0.20620  0.98220  0.15230  1.0000 0.1195340328
H   H27       1.0  0.01780  0.79380  0.65230  1.0000 0.1195340328
H   H28       1.0  0.79380  0.01780  0.84770  1.0000 0.1195340328
H   H29       1.0  0.24930  0.55370  0.71780  1.0000 0.12880597
H   H30       1.0  0.55370  0.24930  0.78220  1.0000 0.12880597
H   H31       1.0  0.75070  0.44630  0.28220  1.0000 0.12880597
H   H32       1.0  0.44630  0.75070  0.21780  1.0000 0.12880597
H   H33       1.0  0.93430  0.08410  0.34200  1.0000 0.1195340328
H   H34       1.0  0.08410  0.93430  0.15800  1.0000 0.1195340328
H   H35       1.0  0.06570  0.91590  0.65800  1.0000 0.1195340328
H   H36       1.0  0.91590  0.06570  0.84200  1.0000 0.1195340328
H   H37       1.0  0.24690  0.76930  0.81030  1.0000 0.1028116058
H   H38       1.0  0.76930  0.24690  0.68970  1.0000 0.1028116058
H   H39       1.0  0.75310  0.23070  0.18970  1.0000 0.1028116058
H   H40       1.0  0.23070  0.75310  0.31030  1.0000 0.1028116058
H   H41       1.0  0.25470  0.40410  0.00560  1.0000 0.1195340328
H   H42       1.0  0.40410  0.25470  0.49440  1.0000 0.1195340328
H   H43       1.0  0.74530  0.59590  0.99440  1.0000 0.1195340328
H   H44       1.0  0.59590  0.74530  0.50560  1.0000 0.1195340328
H   H45       1.0  0.22610  0.35490  0.14470  1.0000 0.1354060295
H   H46       1.0  0.35490  0.22610  0.35530  1.0000 0.1354060295
H   H47       1.0  0.77390  0.64510  0.85530  1.0000 0.1354060295
H   H48       1.0  0.64510  0.77390  0.64470  1.0000 0.1354060295
C   C1        1.0  0.17200  0.45500  0.25900  1.0000 0.5414600792
C   C2        1.0  0.45500  0.17200  0.24100  1.0000 0.5414600792
C   C3        1.0  0.82800  0.54500  0.74100  1.0000 0.5414600792
C   C4        1.0  0.54500  0.82800  0.75900  1.0000 0.5414600792
C   C5        1.0  0.19593  0.48013  0.17190  1.0000 -0.0684784536
C   C6        1.0  0.48013  0.19593  0.32810  1.0000 -0.0684784536
C   C7        1.0  0.80407  0.51987  0.82810  1.0000 -0.0684784536
C   C8        1.0  0.51987  0.80407  0.67190  1.0000 -0.0684784536
C   C9        1.0  0.95381  0.89721  0.38160  1.0000 -0.1872352004
C   C10       1.0  0.89721  0.95381  0.11840  1.0000 -0.1872352004
C   C11       1.0  0.04619  0.10279  0.61840  1.0000 -0.1872352004
C   C12       1.0  0.10279  0.04619  0.88160  1.0000 -0.1872352004
C   C13       1.0  0.18723  0.57303  0.13500  1.0000 0.0722700368
C   C14       1.0  0.57303  0.18723  0.36500  1.0000 0.0722700368
C   C15       1.0  0.81277  0.42697  0.86500  1.0000 0.0722700368
C   C16       1.0  0.42697  0.81277  0.63500  1.0000 0.0722700368
C   C17       1.0  0.12787  0.11367  0.40690  1.0000 -0.0684784536
C   C18       1.0  0.11367  0.12787  0.09310  1.0000 -0.0684784536
C   C19       1.0  0.87213  0.88633  0.59310  1.0000 -0.0684784536
C   C20       1.0  0.88633  0.87213  0.90690  1.0000 -0.0684784536
C   C21       1.0  0.01392  0.62932  0.44740  1.0000 0.618935329
C   C22       1.0  0.62932  0.01392  0.05260  1.0000 0.618935329
C   C23       1.0  0.98608  0.37068  0.55260  1.0000 0.618935329
C   C24       1.0  0.37068  0.98608  0.94740  1.0000 0.618935329
C   C25       1.0  0.23370  0.58190  0.91460  1.0000 0.1561769667
C   C26       1.0  0.58190  0.23370  0.58540  1.0000 0.1561769667
C   C27       1.0  0.76630  0.41810  0.08540  1.0000 0.1561769667
C   C28       1.0  0.41810  0.76630  0.41460  1.0000 0.1561769667
C   C29       1.0  0.94094  0.81234  0.39570  1.0000 -0.0591427483
C   C30       1.0  0.81234  0.94094  0.10430  1.0000 -0.0591427483
C   C31       1.0  0.05906  0.18766  0.60430  1.0000 -0.0591427483
C   C32       1.0  0.18766  0.05906  0.89570  1.0000 -0.0591427483
C   C33       1.0  0.11346  0.71906  0.44660  1.0000 0.0722700368
C   C34       1.0  0.71906  0.11346  0.05340  1.0000 0.0722700368
C   C35       1.0  0.88654  0.28094  0.55340  1.0000 0.0722700368
C   C36       1.0  0.28094  0.88654  0.94660  1.0000 0.0722700368
C   C37       1.0  0.06986  0.97146  0.40020  1.0000 0.1487557911
C   C38       1.0  0.97146  0.06986  0.09980  1.0000 0.1487557911
C   C39       1.0  0.93014  0.02854  0.59980  1.0000 0.1487557911
C   C40       1.0  0.02854  0.93014  0.90020  1.0000 0.1487557911
C   C41       1.0  0.04693  0.88753  0.40430  1.0000 0.1487557911
C   C42       1.0  0.88753  0.04693  0.09570  1.0000 0.1487557911
C   C43       1.0  0.95307  0.11247  0.59570  1.0000 0.1487557911
C   C44       1.0  0.11247  0.95307  0.90430  1.0000 0.1487557911
C   C45       1.0  0.19337  0.01577  0.43920  1.0000 0.051938669
C   C46       1.0  0.01577  0.19337  0.06080  1.0000 0.051938669
C   C47       1.0  0.80663  0.98423  0.56080  1.0000 0.051938669
C   C48       1.0  0.98423  0.80663  0.93920  1.0000 0.051938669
C   C49       1.0  0.02178  0.72338  0.42740  1.0000 -0.0834792954
C   C50       1.0  0.72338  0.02178  0.07260  1.0000 -0.0834792954
C   C51       1.0  0.97822  0.27662  0.57260  1.0000 -0.0834792954
C   C52       1.0  0.27662  0.97822  0.92740  1.0000 -0.0834792954
C   C53       1.0  0.24040  0.53660  0.84780  1.0000 -0.1806994853
C   C54       1.0  0.53660  0.24040  0.65220  1.0000 -0.1806994853
C   C55       1.0  0.75960  0.46340  0.15220  1.0000 -0.1806994853
C   C56       1.0  0.46340  0.75960  0.34780  1.0000 -0.1806994853
C   C57       1.0  0.02860  0.14080  0.36990  1.0000 -0.0684784536
C   C58       1.0  0.14080  0.02860  0.13010  1.0000 -0.0684784536
C   C59       1.0  0.97140  0.85920  0.63010  1.0000 -0.0684784536
C   C60       1.0  0.85920  0.97140  0.86990  1.0000 -0.0684784536
C   C61       1.0  0.22350  0.54090  0.00540  1.0000 0.1487557911
C   C62       1.0  0.54090  0.22350  0.49460  1.0000 0.1487557911
C   C63       1.0  0.77650  0.45910  0.99460  1.0000 0.1487557911
C   C64       1.0  0.45910  0.77650  0.50540  1.0000 0.1487557911
C   C65       1.0  0.24960  0.66900  0.74900  1.0000 -0.0684784536
C   C66       1.0  0.66900  0.24960  0.75100  1.0000 -0.0684784536
C   C67       1.0  0.75040  0.33100  0.25100  1.0000 -0.0684784536
C   C68       1.0  0.33100  0.75040  0.24900  1.0000 -0.0684784536
C   C69       1.0  0.24680  0.58260  0.76420  1.0000 -0.0591427483
C   C70       1.0  0.58260  0.24680  0.73580  1.0000 -0.0591427483
C   C71       1.0  0.75320  0.41740  0.23580  1.0000 -0.0591427483
C   C72       1.0  0.41740  0.75320  0.26420  1.0000 -0.0591427483
C   C73       1.0  0.00030  0.06770  0.36670  1.0000 -0.1872352004
C   C74       1.0  0.06770  0.00030  0.13330  1.0000 -0.1872352004
C   C75       1.0  0.99970  0.93230  0.63330  1.0000 -0.1872352004
C   C76       1.0  0.93230  0.99970  0.86670  1.0000 -0.1872352004
C   C77       1.0  0.24461  0.71001  0.81960  1.0000 0.0402056101
C   C78       1.0  0.71001  0.24461  0.68040  1.0000 0.0402056101
C   C79       1.0  0.75539  0.28999  0.18040  1.0000 0.0402056101
C   C80       1.0  0.28999  0.75539  0.31960  1.0000 0.0402056101
C   C81       1.0  0.25720  0.72200  0.66000  1.0000 0.523012099
C   C82       1.0  0.72200  0.25720  0.84000  1.0000 0.523012099
C   C83       1.0  0.74280  0.27800  0.34000  1.0000 0.523012099
C   C84       1.0  0.27800  0.74280  0.16000  1.0000 0.523012099
C   C85       1.0  0.23610  0.44690  0.03860  1.0000 -0.1872352004
C   C86       1.0  0.44690  0.23610  0.46140  1.0000 -0.1872352004
C   C87       1.0  0.76390  0.55310  0.96140  1.0000 -0.1872352004
C   C88       1.0  0.55310  0.76390  0.53860  1.0000 -0.1872352004
C   C89       1.0  0.22030  0.41730  0.12220  1.0000 -0.025588974
C   C90       1.0  0.41730  0.22030  0.37780  1.0000 -0.025588974
C   C91       1.0  0.77970  0.58270  0.87780  1.0000 -0.025588974
C   C92       1.0  0.58270  0.77970  0.62220  1.0000 -0.025588974
C   C93       1.0  0.16580  0.18640  0.41810  1.0000 0.5691331449
C   C94       1.0  0.18640  0.16580  0.08190  1.0000 0.5691331449
C   C95       1.0  0.83420  0.81360  0.58190  1.0000 0.5691331449
C   C96       1.0  0.81360  0.83420  0.91810  1.0000 0.5691331449
N   N1        1.0  0.16625  0.94605  0.43650  1.0000 -0.2503721418
N   N2        1.0  0.94605  0.16625  0.06350  1.0000 -0.2503721418
N   N3        1.0  0.83375  0.05395  0.56350  1.0000 -0.2503721418
N   N4        1.0  0.05395  0.83375  0.93650  1.0000 -0.2503721418
N   N5        1.0  0.12567  0.79847  0.43590  1.0000 -0.2503721418
N   N6        1.0  0.79847  0.12567  0.06410  1.0000 -0.2503721418
N   N7        1.0  0.87433  0.20153  0.56410  1.0000 -0.2503721418
N   N8        1.0  0.20153  0.87433  0.93590  1.0000 -0.2503721418
N   N9        1.0  0.20094  0.60314  0.05370  1.0000 -0.2586011169
N   N10       1.0  0.60314  0.20094  0.44630  1.0000 -0.2586011169
N   N11       1.0  0.79906  0.39686  0.94630  1.0000 -0.2586011169
N   N12       1.0  0.39686  0.79906  0.55370  1.0000 -0.2586011169
N   N13       1.0  0.23668  0.66788  0.90080  1.0000 -0.2503721418
N   N14       1.0  0.66788  0.23668  0.59920  1.0000 -0.2503721418
N   N15       1.0  0.76332  0.33212  0.09920  1.0000 -0.2503721418
N   N16       1.0  0.33212  0.76332  0.40080  1.0000 -0.2503721418
O   O1        1.0  0.08825  0.55325  0.45700  1.0000 -0.6542543945
O   O2        1.0  0.55325  0.08825  0.04300  1.0000 -0.6542543945
O   O3        1.0  0.91175  0.44675  0.54300  1.0000 -0.6542543945
O   O4        1.0  0.44675  0.91175  0.95700  1.0000 -0.6542543945
O   O5        1.0  0.93504  0.63204  0.45420  1.0000 -0.6698507545
O   O6        1.0  0.63204  0.93504  0.04580  1.0000 -0.6698507545
O   O7        1.0  0.06496  0.36796  0.54580  1.0000 -0.6698507545
O   O8        1.0  0.36796  0.06496  0.95420  1.0000 -0.6698507545
O   O9        1.0  0.22765  0.81245  0.63900  1.0000 -0.5698023018
O   O10       1.0  0.81245  0.22765  0.86100  1.0000 -0.5698023018
O   O11       1.0  0.77235  0.18755  0.36100  1.0000 -0.5698023018
O   O12       1.0  0.18755  0.77235  0.13900  1.0000 -0.5698023018
O   O13       1.0  0.16808  0.37508  0.28560  1.0000 -0.5915346322
O   O14       1.0  0.37508  0.16808  0.21440  1.0000 -0.5915346322
O   O15       1.0  0.83192  0.62492  0.71440  1.0000 -0.5915346322
O   O16       1.0  0.62492  0.83192  0.78560  1.0000 -0.5915346322
O   O17       1.0  0.15664  0.51204  0.30520  1.0000 -0.6214368817
O   O18       1.0  0.51204  0.15664  0.19480  1.0000 -0.6214368817
O   O19       1.0  0.84336  0.48796  0.69480  1.0000 -0.6214368817
O   O20       1.0  0.48796  0.84336  0.80520  1.0000 -0.6214368817
O   O21       1.0  0.28982  0.67542  0.60900  1.0000 -0.5316509333
O   O22       1.0  0.67542  0.28982  0.89100  1.0000 -0.5316509333
O   O23       1.0  0.71018  0.32458  0.39100  1.0000 -0.5316509333
O   O24       1.0  0.32458  0.71018  0.10900  1.0000 -0.5316509333
O   O25       1.0  0.10056  0.27116  0.40500  1.0000 -0.6698507545
O   O26       1.0  0.27116  0.10056  0.09500  1.0000 -0.6698507545
O   O27       1.0  0.89944  0.72884  0.59500  1.0000 -0.6698507545
O   O28       1.0  0.72884  0.89944  0.90500  1.0000 -0.6698507545
O   O29       1.0  0.25185  0.16165  0.43590  1.0000 -0.5316509333
O   O30       1.0  0.16165  0.25185  0.06410  1.0000 -0.5316509333
O   O31       1.0  0.74815  0.83835  0.56410  1.0000 -0.5316509333
O   O32       1.0  0.83835  0.74815  0.93590  1.0000 -0.5316509333
