# DDEC6 charges by PACMAN v1.1 (https://github.com/mtap-research/PACMAN-charge/)
data_2016[Cu][nbo]3[ASR]13
_chemical_formula_sum              "Cu6 H78 C126 O30"
_cell_length_a       21.336
_cell_length_b       21.336
_cell_length_c       21.336
_cell_angle_alpha    114.174
_cell_angle_beta     114.174
_cell_angle_gamma    114.174

_symmetry_space_group_name_H-M    "P 1"
_symmetry_Int_Tables_number       1

loop_
  _symmetry_equiv_pos_as_xyz
  'x, y, z'

loop_
  _atom_site_type_symbol
  _atom_site_label
  _atom_site_symmetry_multiplicity
  _atom_site_fract_x
  _atom_site_fract_y
  _atom_site_fract_z
  _atom_site_occupancy
  _atom_site_charge
Cu  Cu1       1.0  0.57933  0.09025  0.57933  1.0000 0.8396636516
Cu  Cu2       1.0  0.09025  0.57933  0.57933  1.0000 0.8396636516
Cu  Cu3       1.0  0.57934  0.57934  0.09025  1.0000 0.8396636516
Cu  Cu4       1.0  0.90975  0.42066  0.42066  1.0000 0.8396636516
Cu  Cu5       1.0  0.42066  0.90975  0.42066  1.0000 0.8396636516
Cu  Cu6       1.0  0.42066  0.42066  0.90975  1.0000 0.8396636516
H   H1        1.0  0.63490  0.20350  0.45600  1.0000 0.1189412159
H   H2        1.0  0.20350  0.45600  0.63490  1.0000 0.1189412159
H   H3        1.0  0.45600  0.63490  0.20350  1.0000 0.1189412159
H   H4        1.0  0.79650  0.36510  0.54400  1.0000 0.1189412159
H   H5        1.0  0.54400  0.79650  0.36510  1.0000 0.1189412159
H   H6        1.0  0.36510  0.54400  0.79650  1.0000 0.1189412159
H   H7        1.0  0.36510  0.79650  0.54400  1.0000 0.1189412159
H   H8        1.0  0.79650  0.54400  0.36510  1.0000 0.1189412159
H   H9        1.0  0.54400  0.36510  0.79650  1.0000 0.1189412159
H   H10       1.0  0.20350  0.63490  0.45600  1.0000 0.1189412159
H   H11       1.0  0.45600  0.20350  0.63490  1.0000 0.1189412159
H   H12       1.0  0.63490  0.45600  0.20350  1.0000 0.1189412159
H   H13       1.0  0.63670  0.22680  0.35980  1.0000 0.1280148931
H   H14       1.0  0.22680  0.35980  0.63670  1.0000 0.1280148931
H   H15       1.0  0.35980  0.63670  0.22680  1.0000 0.1280148931
H   H16       1.0  0.77320  0.36330  0.64020  1.0000 0.1280148931
H   H17       1.0  0.64020  0.77320  0.36330  1.0000 0.1280148931
H   H18       1.0  0.36330  0.64020  0.77320  1.0000 0.1280148931
H   H19       1.0  0.36330  0.77320  0.64020  1.0000 0.1280148931
H   H20       1.0  0.77320  0.64020  0.36330  1.0000 0.1280148931
H   H21       1.0  0.64020  0.36330  0.77320  1.0000 0.1280148931
H   H22       1.0  0.22680  0.63670  0.35980  1.0000 0.1280148931
H   H23       1.0  0.35980  0.22680  0.63670  1.0000 0.1280148931
H   H24       1.0  0.63670  0.35980  0.22680  1.0000 0.1280148931
H   H25       1.0  0.38790  0.95620  0.12860  1.0000 0.1189412159
H   H26       1.0  0.95620  0.12860  0.38790  1.0000 0.1189412159
H   H27       1.0  0.12860  0.38790  0.95620  1.0000 0.1189412159
H   H28       1.0  0.04380  0.61210  0.87140  1.0000 0.1189412159
H   H29       1.0  0.87140  0.04380  0.61210  1.0000 0.1189412159
H   H30       1.0  0.61210  0.87140  0.04380  1.0000 0.1189412159
H   H31       1.0  0.61210  0.04380  0.87140  1.0000 0.1189412159
H   H32       1.0  0.04380  0.87140  0.61210  1.0000 0.1189412159
H   H33       1.0  0.87140  0.61210  0.04380  1.0000 0.1189412159
H   H34       1.0  0.95620  0.38790  0.12860  1.0000 0.1189412159
H   H35       1.0  0.12860  0.95620  0.38790  1.0000 0.1189412159
H   H36       1.0  0.38790  0.12860  0.95620  1.0000 0.1189412159
H   H37       1.0  0.38660  0.93310  0.22560  1.0000 0.1280148931
H   H38       1.0  0.93310  0.22560  0.38660  1.0000 0.1280148931
H   H39       1.0  0.22560  0.38660  0.93310  1.0000 0.1280148931
H   H40       1.0  0.06690  0.61340  0.77440  1.0000 0.1280148931
H   H41       1.0  0.77440  0.06690  0.61340  1.0000 0.1280148931
H   H42       1.0  0.61340  0.77440  0.06690  1.0000 0.1280148931
H   H43       1.0  0.61340  0.06690  0.77440  1.0000 0.1280148931
H   H44       1.0  0.06690  0.77440  0.61340  1.0000 0.1280148931
H   H45       1.0  0.77440  0.61340  0.06690  1.0000 0.1280148931
H   H46       1.0  0.93310  0.38660  0.22560  1.0000 0.1280148931
H   H47       1.0  0.22560  0.93310  0.38660  1.0000 0.1280148931
H   H48       1.0  0.38660  0.22560  0.93310  1.0000 0.1280148931
H   H49       1.0  0.50580  0.99140  0.10390  1.0000 0.1106316865
H   H50       1.0  0.99140  0.10390  0.50580  1.0000 0.1106316865
H   H51       1.0  0.10390  0.50580  0.99140  1.0000 0.1106316865
H   H52       1.0  0.00860  0.49420  0.89610  1.0000 0.1106316865
H   H53       1.0  0.89610  0.00860  0.49420  1.0000 0.1106316865
H   H54       1.0  0.49420  0.89610  0.00860  1.0000 0.1106316865
H   H55       1.0  0.49420  0.00860  0.89610  1.0000 0.1106316865
H   H56       1.0  0.00860  0.89610  0.49420  1.0000 0.1106316865
H   H57       1.0  0.89610  0.49420  0.00860  1.0000 0.1106316865
H   H58       1.0  0.99140  0.50580  0.10390  1.0000 0.1106316865
H   H59       1.0  0.10390  0.99140  0.50580  1.0000 0.1106316865
H   H60       1.0  0.50580  0.10390  0.99140  1.0000 0.1106316865
H   H61       1.0  0.44460  0.24340  0.24340  1.0000 0.1106316865
H   H62       1.0  0.24340  0.24340  0.44460  1.0000 0.1106316865
H   H63       1.0  0.24340  0.44460  0.24340  1.0000 0.1106316865
H   H64       1.0  0.75660  0.55540  0.75660  1.0000 0.1106316865
H   H65       1.0  0.75660  0.75660  0.55540  1.0000 0.1106316865
H   H66       1.0  0.55540  0.75660  0.75660  1.0000 0.1106316865
H   H67       1.0  0.40080  0.18170  0.13710  1.0000 0.0969303345
H   H68       1.0  0.18170  0.13710  0.40080  1.0000 0.0969303345
H   H69       1.0  0.13710  0.40080  0.18170  1.0000 0.0969303345
H   H70       1.0  0.81830  0.59920  0.86290  1.0000 0.0969303345
H   H71       1.0  0.86290  0.81830  0.59920  1.0000 0.0969303345
H   H72       1.0  0.59920  0.86290  0.81830  1.0000 0.0969303345
H   H73       1.0  0.59920  0.81830  0.86290  1.0000 0.0969303345
H   H74       1.0  0.81830  0.86290  0.59920  1.0000 0.0969303345
H   H75       1.0  0.86290  0.59920  0.81830  1.0000 0.0969303345
H   H76       1.0  0.18170  0.40080  0.13710  1.0000 0.0969303345
H   H77       1.0  0.13710  0.18170  0.40080  1.0000 0.0969303345
H   H78       1.0  0.40080  0.13710  0.18170  1.0000 0.0969303345
C   C1        1.0  0.51142  0.04668  0.41170  1.0000 0.5783914298
C   C2        1.0  0.04668  0.41170  0.51142  1.0000 0.5783914298
C   C3        1.0  0.41170  0.51142  0.04668  1.0000 0.5783914298
C   C4        1.0  0.95332  0.48858  0.58830  1.0000 0.5783914298
C   C5        1.0  0.58830  0.95332  0.48858  1.0000 0.5783914298
C   C6        1.0  0.48858  0.58830  0.95332  1.0000 0.5783914298
C   C7        1.0  0.48858  0.95332  0.58830  1.0000 0.5783914298
C   C8        1.0  0.95332  0.58830  0.48858  1.0000 0.5783914298
C   C9        1.0  0.58830  0.48858  0.95332  1.0000 0.5783914298
C   C10       1.0  0.04668  0.51142  0.41170  1.0000 0.5783914298
C   C11       1.0  0.41170  0.04668  0.51142  1.0000 0.5783914298
C   C12       1.0  0.51142  0.41170  0.04668  1.0000 0.5783914298
C   C13       1.0  0.51255  0.06497  0.35058  1.0000 -0.0139252544
C   C14       1.0  0.06497  0.35058  0.51255  1.0000 -0.0139252544
C   C15       1.0  0.35058  0.51255  0.06497  1.0000 -0.0139252544
C   C16       1.0  0.93503  0.48745  0.64942  1.0000 -0.0139252544
C   C17       1.0  0.64942  0.93503  0.48745  1.0000 -0.0139252544
C   C18       1.0  0.48745  0.64942  0.93503  1.0000 -0.0139252544
C   C19       1.0  0.48745  0.93503  0.64942  1.0000 -0.0139252544
C   C20       1.0  0.93503  0.64942  0.48745  1.0000 -0.0139252544
C   C21       1.0  0.64942  0.48745  0.93503  1.0000 -0.0139252544
C   C22       1.0  0.06497  0.51255  0.35058  1.0000 -0.0139252544
C   C23       1.0  0.35058  0.06497  0.51255  1.0000 -0.0139252544
C   C24       1.0  0.51255  0.35058  0.06497  1.0000 -0.0139252544
C   C25       1.0  0.58458  0.15162  0.38870  1.0000 -0.0958484776
C   C26       1.0  0.15162  0.38870  0.58458  1.0000 -0.0958484776
C   C27       1.0  0.38870  0.58458  0.15162  1.0000 -0.0958484776
C   C28       1.0  0.84838  0.41542  0.61130  1.0000 -0.0958484776
C   C29       1.0  0.61130  0.84838  0.41542  1.0000 -0.0958484776
C   C30       1.0  0.41542  0.61130  0.84838  1.0000 -0.0958484776
C   C31       1.0  0.41542  0.84838  0.61130  1.0000 -0.0958484776
C   C32       1.0  0.84838  0.61130  0.41542  1.0000 -0.0958484776
C   C33       1.0  0.61130  0.41542  0.84838  1.0000 -0.0958484776
C   C34       1.0  0.15162  0.58458  0.38870  1.0000 -0.0958484776
C   C35       1.0  0.38870  0.15162  0.58458  1.0000 -0.0958484776
C   C36       1.0  0.58458  0.38870  0.15162  1.0000 -0.0958484776
C   C37       1.0  0.58575  0.16542  0.33113  1.0000 -0.1495264571
C   C38       1.0  0.16542  0.33113  0.58575  1.0000 -0.1495264571
C   C39       1.0  0.33113  0.58575  0.16542  1.0000 -0.1495264571
C   C40       1.0  0.83458  0.41425  0.66887  1.0000 -0.1495264571
C   C41       1.0  0.66887  0.83458  0.41425  1.0000 -0.1495264571
C   C42       1.0  0.41425  0.66887  0.83458  1.0000 -0.1495264571
C   C43       1.0  0.41425  0.83458  0.66887  1.0000 -0.1495264571
C   C44       1.0  0.83458  0.66887  0.41425  1.0000 -0.1495264571
C   C45       1.0  0.66887  0.41425  0.83458  1.0000 -0.1495264571
C   C46       1.0  0.16542  0.58575  0.33113  1.0000 -0.1495264571
C   C47       1.0  0.33113  0.16542  0.58575  1.0000 -0.1495264571
C   C48       1.0  0.58575  0.33113  0.16542  1.0000 -0.1495264571
C   C49       1.0  0.51524  0.09280  0.23396  1.0000 0.0861558971
C   C50       1.0  0.09280  0.23396  0.51524  1.0000 0.0861558971
C   C51       1.0  0.23396  0.51524  0.09280  1.0000 0.0861558971
C   C52       1.0  0.90720  0.48476  0.76604  1.0000 0.0861558971
C   C53       1.0  0.76604  0.90720  0.48476  1.0000 0.0861558971
C   C54       1.0  0.48476  0.76604  0.90720  1.0000 0.0861558971
C   C55       1.0  0.48476  0.90720  0.76604  1.0000 0.0861558971
C   C56       1.0  0.90720  0.76604  0.48476  1.0000 0.0861558971
C   C57       1.0  0.76604  0.48476  0.90720  1.0000 0.0861558971
C   C58       1.0  0.09280  0.51524  0.23396  1.0000 0.0861558971
C   C59       1.0  0.23396  0.09280  0.51524  1.0000 0.0861558971
C   C60       1.0  0.51524  0.23396  0.09280  1.0000 0.0861558971
C   C61       1.0  0.44004  0.00695  0.19581  1.0000 -0.1598530157
C   C62       1.0  0.00695  0.19581  0.44004  1.0000 -0.1495264571
C   C63       1.0  0.19581  0.44004  0.00695  1.0000 -0.1495264571
C   C64       1.0  0.99305  0.55996  0.80419  1.0000 -0.1495264571
C   C65       1.0  0.80419  0.99305  0.55996  1.0000 -0.1495264571
C   C66       1.0  0.55996  0.80419  0.99305  1.0000 -0.1495264571
C   C67       1.0  0.55996  0.99305  0.80419  1.0000 -0.1495264571
C   C68       1.0  0.99305  0.80419  0.55996  1.0000 -0.1598530157
C   C69       1.0  0.80419  0.55996  0.99305  1.0000 -0.1495264571
C   C70       1.0  0.00695  0.44004  0.19581  1.0000 -0.1598530157
C   C71       1.0  0.19581  0.00695  0.44004  1.0000 -0.1598530157
C   C72       1.0  0.44004  0.19581  0.00695  1.0000 -0.1598530157
C   C73       1.0  0.43908  0.99324  0.25368  1.0000 -0.0932086015
C   C74       1.0  0.99324  0.25368  0.43908  1.0000 -0.0932086015
C   C75       1.0  0.25368  0.43908  0.99324  1.0000 -0.0932086015
C   C76       1.0  0.00676  0.56092  0.74632  1.0000 -0.0932086015
C   C77       1.0  0.74632  0.00676  0.56092  1.0000 -0.0932086015
C   C78       1.0  0.56092  0.74632  0.00676  1.0000 -0.0932086015
C   C79       1.0  0.56092  0.00676  0.74632  1.0000 -0.0932086015
C   C80       1.0  0.00676  0.74632  0.56092  1.0000 -0.0932086015
C   C81       1.0  0.74632  0.56092  0.00676  1.0000 -0.0932086015
C   C82       1.0  0.99324  0.43908  0.25368  1.0000 -0.0932086015
C   C83       1.0  0.25368  0.99324  0.43908  1.0000 -0.0932086015
C   C84       1.0  0.43908  0.25368  0.99324  1.0000 -0.0932086015
C   C85       1.0  0.51636  0.10065  0.16799  1.0000 -0.0286419651
C   C86       1.0  0.10065  0.16799  0.51636  1.0000 -0.0286419651
C   C87       1.0  0.16799  0.51636  0.10065  1.0000 -0.0286419651
C   C88       1.0  0.89935  0.48364  0.83201  1.0000 -0.0286419651
C   C89       1.0  0.83201  0.89935  0.48364  1.0000 -0.0286419651
C   C90       1.0  0.48364  0.83201  0.89935  1.0000 -0.0286419651
C   C91       1.0  0.48364  0.89935  0.83201  1.0000 -0.0286419651
C   C92       1.0  0.89935  0.83201  0.48364  1.0000 -0.0286419651
C   C93       1.0  0.83201  0.48364  0.89935  1.0000 -0.0286419651
C   C94       1.0  0.10065  0.51636  0.16799  1.0000 -0.0286419651
C   C95       1.0  0.16799  0.10065  0.51636  1.0000 -0.0286419651
C   C96       1.0  0.51636  0.16799  0.10065  1.0000 -0.0286419651
C   C97       1.0  0.50839  0.03631  0.10260  1.0000 -0.1946135863
C   C98       1.0  0.03631  0.10260  0.50839  1.0000 -0.1946135863
C   C99       1.0  0.10260  0.50839  0.03631  1.0000 -0.1946135863
C   C100      1.0  0.96369  0.49161  0.89740  1.0000 -0.1946135863
C   C101      1.0  0.89740  0.96369  0.49161  1.0000 -0.1946135863
C   C102      1.0  0.49161  0.89740  0.96369  1.0000 -0.1946135863
C   C103      1.0  0.49161  0.96369  0.89740  1.0000 -0.1946135863
C   C104      1.0  0.96369  0.89740  0.49161  1.0000 -0.1946135863
C   C105      1.0  0.89740  0.49161  0.96369  1.0000 -0.1946135863
C   C106      1.0  0.03631  0.50839  0.10260  1.0000 -0.1946135863
C   C107      1.0  0.10260  0.03631  0.50839  1.0000 -0.1946135863
C   C108      1.0  0.50839  0.10260  0.03631  1.0000 -0.1946135863
C   C109      1.0  0.50410  0.03440  0.03440  1.0000 0.0717150788
C   C110      1.0  0.03440  0.03440  0.50410  1.0000 0.0717150788
C   C111      1.0  0.03440  0.50410  0.03440  1.0000 0.0717150788
C   C112      1.0  0.96560  0.49590  0.96560  1.0000 0.0717150788
C   C113      1.0  0.96560  0.96560  0.49590  1.0000 0.0717150788
C   C114      1.0  0.49590  0.96560  0.96560  1.0000 0.0717150788
C   C115      1.0  0.52340  0.16935  0.16935  1.0000 0.161963887
C   C116      1.0  0.16935  0.16935  0.52340  1.0000 0.161963887
C   C117      1.0  0.16935  0.52340  0.16935  1.0000 0.161963887
C   C118      1.0  0.83065  0.47660  0.83065  1.0000 0.161963887
C   C119      1.0  0.83065  0.83065  0.47660  1.0000 0.161963887
C   C120      1.0  0.47660  0.83065  0.83065  1.0000 0.161963887
C   C121      1.0  0.43630  0.19565  0.19565  1.0000 -0.2376524637
C   C122      1.0  0.19565  0.19565  0.43630  1.0000 -0.2376524637
C   C123      1.0  0.19565  0.43630  0.19565  1.0000 -0.2376524637
C   C124      1.0  0.80435  0.56370  0.80435  1.0000 -0.2376524637
C   C125      1.0  0.80435  0.80435  0.56370  1.0000 -0.2376524637
C   C126      1.0  0.56370  0.80435  0.80435  1.0000 -0.2376524637
O   O1        1.0  0.44293  0.96145  0.36589  1.0000 -0.5266863535
O   O2        1.0  0.96145  0.36589  0.44293  1.0000 -0.5266863535
O   O3        1.0  0.36589  0.44293  0.96145  1.0000 -0.5266863535
O   O4        1.0  0.03855  0.55707  0.63411  1.0000 -0.5266863535
O   O5        1.0  0.63411  0.03855  0.55707  1.0000 -0.5266863535
O   O6        1.0  0.55707  0.63411  0.03855  1.0000 -0.5266863535
O   O7        1.0  0.55707  0.03855  0.63411  1.0000 -0.5266863535
O   O8        1.0  0.03855  0.63411  0.55707  1.0000 -0.5266863535
O   O9        1.0  0.63411  0.55707  0.03855  1.0000 -0.5266863535
O   O10       1.0  0.96145  0.44293  0.36589  1.0000 -0.5266863535
O   O11       1.0  0.36589  0.96145  0.44293  1.0000 -0.5266863535
O   O12       1.0  0.44293  0.36589  0.96145  1.0000 -0.5266863535
O   O13       1.0  0.57713  0.11519  0.49984  1.0000 -0.5029760927
O   O14       1.0  0.11519  0.49984  0.57713  1.0000 -0.5029760927
O   O15       1.0  0.49984  0.57713  0.11519  1.0000 -0.5029760927
O   O16       1.0  0.88481  0.42287  0.50016  1.0000 -0.5029760927
O   O17       1.0  0.50016  0.88481  0.42287  1.0000 -0.5029760927
O   O18       1.0  0.42287  0.50016  0.88481  1.0000 -0.5029760927
O   O19       1.0  0.42287  0.88481  0.50016  1.0000 -0.5029760927
O   O20       1.0  0.88481  0.50016  0.42287  1.0000 -0.5029760927
O   O21       1.0  0.50016  0.42287  0.88481  1.0000 -0.5029760927
O   O22       1.0  0.11519  0.57713  0.49984  1.0000 -0.5029760927
O   O23       1.0  0.49984  0.11519  0.57713  1.0000 -0.5029760927
O   O24       1.0  0.57713  0.49984  0.11519  1.0000 -0.5029760927
O   O25       1.0  0.52934  0.23238  0.23238  1.0000 -0.1598530157
O   O26       1.0  0.23238  0.23238  0.52934  1.0000 -0.1598530157
O   O27       1.0  0.23238  0.52934  0.23238  1.0000 -0.1598530157
O   O28       1.0  0.76762  0.47066  0.76762  1.0000 -0.1598530157
O   O29       1.0  0.76762  0.76762  0.47066  1.0000 -0.1598530157
O   O30       1.0  0.47066  0.76762  0.76762  1.0000 -0.1598530157
