# DDEC6 charges by PACMAN v1.1 (https://github.com/mtap-research/PACMAN-charge/)
data_2016[Zn][crb]3[ASR]2
_chemical_formula_sum              "Zn8 H56 C68 N60 O16"
_cell_length_a       9.887
_cell_length_b       17.281
_cell_length_c       20.818
_cell_angle_alpha    90
_cell_angle_beta     90
_cell_angle_gamma    90

_symmetry_space_group_name_H-M    "P 1"
_symmetry_Int_Tables_number       1

loop_
  _symmetry_equiv_pos_as_xyz
  'x, y, z'

loop_
  _atom_site_type_symbol
  _atom_site_label
  _atom_site_symmetry_multiplicity
  _atom_site_fract_x
  _atom_site_fract_y
  _atom_site_fract_z
  _atom_site_occupancy
  _atom_site_charge
Zn  Zn1       1.0  0.68973  0.82282  0.18383  1.0000 0.7322463172
Zn  Zn2       1.0  0.31027  0.82282  0.81617  1.0000 0.7322463172
Zn  Zn3       1.0  0.18973  0.67718  0.31617  1.0000 0.7322463172
Zn  Zn4       1.0  0.81027  0.67718  0.68383  1.0000 0.7322463172
Zn  Zn5       1.0  0.31027  0.17718  0.81617  1.0000 0.7322463172
Zn  Zn6       1.0  0.68973  0.17718  0.18383  1.0000 0.7322463172
Zn  Zn7       1.0  0.81027  0.32282  0.68383  1.0000 0.7322463172
Zn  Zn8       1.0  0.18973  0.32282  0.31617  1.0000 0.7322463172
H   H1        1.0  0.90190  0.61270  0.24130  1.0000 0.3142749856
H   H2        1.0  0.09810  0.61270  0.75870  1.0000 0.3142749856
H   H3        1.0  0.40190  0.88730  0.25870  1.0000 0.3142749856
H   H4        1.0  0.59810  0.88730  0.74130  1.0000 0.3142749856
H   H5        1.0  0.09810  0.38730  0.75870  1.0000 0.3142749856
H   H6        1.0  0.90190  0.38730  0.24130  1.0000 0.3142749856
H   H7        1.0  0.59810  0.11270  0.74130  1.0000 0.3142749856
H   H8        1.0  0.40190  0.11270  0.25870  1.0000 0.3142749856
H   H9        1.0  0.78060  0.65250  0.21470  1.0000 0.3239791939
H   H10       1.0  0.21940  0.65250  0.78530  1.0000 0.3239791939
H   H11       1.0  0.28060  0.84750  0.28530  1.0000 0.3239791939
H   H12       1.0  0.71940  0.84750  0.71470  1.0000 0.3253299075
H   H13       1.0  0.21940  0.34750  0.78530  1.0000 0.3239791939
H   H14       1.0  0.78060  0.34750  0.21470  1.0000 0.3239791939
H   H15       1.0  0.71940  0.15250  0.71470  1.0000 0.3239791939
H   H16       1.0  0.28060  0.15250  0.28530  1.0000 0.3239791939
H   H17       1.0  0.87160  0.95490  0.12140  1.0000 0.3368702161
H   H18       1.0  0.12840  0.95490  0.87860  1.0000 0.3368702161
H   H19       1.0  0.37160  0.54510  0.37860  1.0000 0.3368702161
H   H20       1.0  0.62840  0.54510  0.62140  1.0000 0.3368702161
H   H21       1.0  0.12840  0.04510  0.87860  1.0000 0.3368702161
H   H22       1.0  0.87160  0.04510  0.12140  1.0000 0.3368702161
H   H23       1.0  0.62840  0.45490  0.62140  1.0000 0.3368702161
H   H24       1.0  0.37160  0.45490  0.37860  1.0000 0.3368702161
H   H25       1.0  0.84100  0.66400  0.84050  1.0000 0.1112985446
H   H26       1.0  0.15900  0.66400  0.15950  1.0000 0.1112985446
H   H27       1.0  0.34100  0.83600  0.65950  1.0000 0.1112985446
H   H28       1.0  0.65900  0.83600  0.34050  1.0000 0.1112985446
H   H29       1.0  0.15900  0.33600  0.15950  1.0000 0.1112985446
H   H30       1.0  0.84100  0.33600  0.84050  1.0000 0.1112985446
H   H31       1.0  0.65900  0.16400  0.34050  1.0000 0.1112985446
H   H32       1.0  0.34100  0.16400  0.65950  1.0000 0.1112985446
H   H33       1.0  0.61250  0.75990  0.97770  1.0000 0.129044289
H   H34       1.0  0.38750  0.75990  0.02230  1.0000 0.129044289
H   H35       1.0  0.11250  0.74010  0.52230  1.0000 0.129044289
H   H36       1.0  0.88750  0.74010  0.47770  1.0000 0.129044289
H   H37       1.0  0.38750  0.24010  0.02230  1.0000 0.129044289
H   H38       1.0  0.61250  0.24010  0.97770  1.0000 0.129044289
H   H39       1.0  0.88750  0.25990  0.47770  1.0000 0.129044289
H   H40       1.0  0.11250  0.25990  0.52230  1.0000 0.129044289
H   H41       1.0  0.63130  0.70490  0.87650  1.0000 0.1164054613
H   H42       1.0  0.36870  0.70490  0.12350  1.0000 0.1164054613
H   H43       1.0  0.13130  0.79510  0.62350  1.0000 0.1164054613
H   H44       1.0  0.86870  0.79510  0.37650  1.0000 0.1164054613
H   H45       1.0  0.36870  0.29510  0.12350  1.0000 0.1164054613
H   H46       1.0  0.63130  0.29510  0.87650  1.0000 0.1164054613
H   H47       1.0  0.86870  0.20490  0.37650  1.0000 0.1164054613
H   H48       1.0  0.13130  0.20490  0.62350  1.0000 0.1164054613
H   H49       1.0  0.03010  0.68220  0.90250  1.0000 0.1164054613
H   H50       1.0  0.96990  0.68220  0.09750  1.0000 0.1164054613
H   H51       1.0  0.53010  0.81780  0.59750  1.0000 0.1164054613
H   H52       1.0  0.46990  0.81780  0.40250  1.0000 0.1164054613
H   H53       1.0  0.96990  0.31780  0.09750  1.0000 0.1164054613
H   H54       1.0  0.03010  0.31780  0.90250  1.0000 0.1164054613
H   H55       1.0  0.46990  0.18220  0.40250  1.0000 0.1164054613
H   H56       1.0  0.53010  0.18220  0.59750  1.0000 0.1164054613
C   C1        1.0  0.81170  0.75530  0.00160  1.0000 -0.048020886
C   C2        1.0  0.18830  0.75530  0.99840  1.0000 -0.048020886
C   C3        1.0  0.31170  0.74470  0.49840  1.0000 -0.048020886
C   C4        1.0  0.68830  0.74470  0.50160  1.0000 -0.048020886
C   C5        1.0  0.18830  0.24470  0.99840  1.0000 -0.048020886
C   C6        1.0  0.81170  0.24470  0.00160  1.0000 -0.048020886
C   C7        1.0  0.68830  0.25530  0.50160  1.0000 -0.048020886
C   C8        1.0  0.31170  0.25530  0.49840  1.0000 -0.048020886
C   C9        1.0  0.79330  0.79680  0.06490  1.0000 0.570498057
C   C10       1.0  0.20670  0.79680  0.93510  1.0000 0.570498057
C   C11       1.0  0.29330  0.70320  0.43510  1.0000 0.570498057
C   C12       1.0  0.70670  0.70320  0.56490  1.0000 0.570498057
C   C13       1.0  0.20670  0.20320  0.93510  1.0000 0.570498057
C   C14       1.0  0.79330  0.20320  0.06490  1.0000 0.570498057
C   C15       1.0  0.70670  0.29680  0.56490  1.0000 0.570498057
C   C16       1.0  0.29330  0.29680  0.43510  1.0000 0.570498057
C   C17       1.0  0.72470  0.00000  0.17310  1.0000 0.4828037623
C   C18       1.0  0.27530  0.00000  0.82690  1.0000 0.4828037623
C   C19       1.0  0.22470  0.50000  0.32690  1.0000 0.4828037623
C   C20       1.0  0.77530  0.50000  0.67310  1.0000 0.4828037623
C   C21       1.0  0.91490  0.72390  0.24550  1.0000 0.4856627363
C   C22       1.0  0.08510  0.72390  0.75450  1.0000 0.4856627363
C   C23       1.0  0.41490  0.77610  0.25450  1.0000 0.4856627363
C   C24       1.0  0.58510  0.77610  0.74550  1.0000 0.4856627363
C   C25       1.0  0.08510  0.27610  0.75450  1.0000 0.4856627363
C   C26       1.0  0.91490  0.27610  0.24550  1.0000 0.4856627363
C   C27       1.0  0.58510  0.22390  0.74550  1.0000 0.4856627363
C   C28       1.0  0.41490  0.22390  0.25450  1.0000 0.4856627363
C   C29       1.0  0.83300  0.68760  0.88050  1.0000 -0.0808217914
C   C30       1.0  0.16700  0.68760  0.11950  1.0000 -0.0808217914
C   C31       1.0  0.33300  0.81240  0.61950  1.0000 -0.0808217914
C   C32       1.0  0.66700  0.81240  0.38050  1.0000 -0.0808217914
C   C33       1.0  0.16700  0.31240  0.11950  1.0000 -0.0808217914
C   C34       1.0  0.83300  0.31240  0.88050  1.0000 -0.0808217914
C   C35       1.0  0.66700  0.18760  0.38050  1.0000 -0.0808217914
C   C36       1.0  0.33300  0.18760  0.61950  1.0000 -0.0808217914
C   C37       1.0  0.93860  0.73090  0.97930  1.0000 0.0701386978
C   C38       1.0  0.06140  0.73090  0.02070  1.0000 0.0701386978
C   C39       1.0  0.43860  0.76910  0.52070  1.0000 0.0701386978
C   C40       1.0  0.56140  0.76910  0.47930  1.0000 0.0701386978
C   C41       1.0  0.06140  0.26910  0.02070  1.0000 0.0701386978
C   C42       1.0  0.93860  0.26910  0.97930  1.0000 0.0701386978
C   C43       1.0  0.56140  0.23090  0.47930  1.0000 0.0701386978
C   C44       1.0  0.43860  0.23090  0.52070  1.0000 0.0701386978
C   C45       1.0  0.69670  0.74410  0.96260  1.0000 -0.0920755581
C   C46       1.0  0.30330  0.74410  0.03740  1.0000 -0.0920755581
C   C47       1.0  0.19670  0.75590  0.53740  1.0000 -0.0920755581
C   C48       1.0  0.80330  0.75590  0.46260  1.0000 -0.0920755581
C   C49       1.0  0.30330  0.25590  0.03740  1.0000 -0.0920755581
C   C50       1.0  0.69670  0.25590  0.96260  1.0000 -0.0920755581
C   C51       1.0  0.80330  0.24410  0.46260  1.0000 -0.0920755581
C   C52       1.0  0.19670  0.24410  0.53740  1.0000 -0.0920755581
C   C53       1.0  0.70750  0.71090  0.90230  1.0000 -0.0808217914
C   C54       1.0  0.29250  0.71090  0.09770  1.0000 -0.0808217914
C   C55       1.0  0.20750  0.78910  0.59770  1.0000 -0.0808217914
C   C56       1.0  0.79250  0.78910  0.40230  1.0000 -0.0808217914
C   C57       1.0  0.29250  0.28910  0.09770  1.0000 -0.0808217914
C   C58       1.0  0.70750  0.28910  0.90230  1.0000 -0.0808217914
C   C59       1.0  0.79250  0.21090  0.40230  1.0000 -0.0808217914
C   C60       1.0  0.20750  0.21090  0.59770  1.0000 -0.0808217914
C   C61       1.0  0.94640  0.69790  0.91820  1.0000 -0.1265269292
C   C62       1.0  0.05360  0.69790  0.08180  1.0000 -0.1265269292
C   C63       1.0  0.44640  0.80210  0.58180  1.0000 -0.1265269292
C   C64       1.0  0.55360  0.80210  0.41820  1.0000 -0.1265269292
C   C65       1.0  0.05360  0.30210  0.08180  1.0000 -0.1265269292
C   C66       1.0  0.94640  0.30210  0.91820  1.0000 -0.1265269292
C   C67       1.0  0.55360  0.19790  0.41820  1.0000 -0.1265269292
C   C68       1.0  0.44640  0.19790  0.58180  1.0000 -0.1265269292
N   N1        1.0  0.66200  0.93650  0.19300  1.0000 -0.3101833087
N   N2        1.0  0.33800  0.93650  0.80700  1.0000 -0.3101833087
N   N3        1.0  0.16200  0.56350  0.30700  1.0000 -0.3101833087
N   N4        1.0  0.83800  0.56350  0.69300  1.0000 -0.3101833087
N   N5        1.0  0.33800  0.06350  0.80700  1.0000 -0.3101833087
N   N6        1.0  0.66200  0.06350  0.19300  1.0000 -0.3101833087
N   N7        1.0  0.83800  0.43650  0.69300  1.0000 -0.3101833087
N   N8        1.0  0.16200  0.43650  0.30700  1.0000 -0.3101833087
N   N9        1.0  0.94950  0.84720  0.24900  1.0000 -0.0631165714
N   N10       1.0  0.05050  0.84720  0.75100  1.0000 -0.0631165714
N   N11       1.0  0.44950  0.65280  0.25100  1.0000 -0.0631165714
N   N12       1.0  0.55050  0.65280  0.74900  1.0000 -0.0631165714
N   N13       1.0  0.05050  0.15280  0.75100  1.0000 -0.0631165714
N   N14       1.0  0.94950  0.15280  0.24900  1.0000 -0.0631165714
N   N15       1.0  0.55050  0.34720  0.74900  1.0000 -0.0631165714
N   N16       1.0  0.44950  0.34720  0.25100  1.0000 -0.0631165714
N   N17       1.0  0.85940  0.65470  0.23210  1.0000 -0.5821138543
N   N18       1.0  0.14060  0.65470  0.76790  1.0000 -0.5821138543
N   N19       1.0  0.35940  0.84530  0.26790  1.0000 -0.5821138543
N   N20       1.0  0.64060  0.84530  0.73210  1.0000 -0.5821138543
N   N21       1.0  0.14060  0.34530  0.76790  1.0000 -0.5821138543
N   N22       1.0  0.85940  0.34530  0.23210  1.0000 -0.5821138543
N   N23       1.0  0.64060  0.15470  0.73210  1.0000 -0.5821138543
N   N24       1.0  0.35940  0.15470  0.26790  1.0000 -0.5821138543
N   N25       1.0  0.83560  0.00000  0.13470  1.0000 -0.5875132752
N   N26       1.0  0.16440  0.00000  0.86530  1.0000 -0.5875132752
N   N27       1.0  0.33560  0.50000  0.36530  1.0000 -0.5875132752
N   N28       1.0  0.66440  0.50000  0.63470  1.0000 -0.5875132752
N   N29       1.0  0.56040  0.96290  0.23010  1.0000 -0.0695421758
N   N30       1.0  0.43960  0.96290  0.76990  1.0000 -0.0695421758
N   N31       1.0  0.06040  0.53710  0.26990  1.0000 -0.0695421758
N   N32       1.0  0.93960  0.53710  0.73010  1.0000 -0.0695421758
N   N33       1.0  0.43960  0.03710  0.76990  1.0000 -0.0695421758
N   N34       1.0  0.56040  0.03710  0.23010  1.0000 -0.0695421758
N   N35       1.0  0.93960  0.46290  0.73010  1.0000 -0.0695421758
N   N36       1.0  0.06040  0.46290  0.26990  1.0000 -0.0695421758
N   N37       1.0  0.05480  0.81360  0.27360  1.0000 -0.0631165714
N   N38       1.0  0.94520  0.81360  0.72640  1.0000 -0.0631165714
N   N39       1.0  0.55480  0.68640  0.22640  1.0000 -0.0631165714
N   N40       1.0  0.44520  0.68640  0.77360  1.0000 -0.0631165714
N   N41       1.0  0.94520  0.18640  0.72640  1.0000 -0.0631165714
N   N42       1.0  0.05480  0.18640  0.27360  1.0000 -0.0631165714
N   N43       1.0  0.44520  0.31360  0.77360  1.0000 -0.0631165714
N   N44       1.0  0.55480  0.31360  0.22640  1.0000 -0.0631165714
N   N45       1.0  0.03740  0.73560  0.27270  1.0000 -0.3364716766
N   N46       1.0  0.96260  0.73560  0.72730  1.0000 -0.3364716766
N   N47       1.0  0.53740  0.76440  0.22730  1.0000 -0.3364716766
N   N48       1.0  0.46260  0.76440  0.77270  1.0000 -0.3364716766
N   N49       1.0  0.96260  0.26440  0.72730  1.0000 -0.3364716766
N   N50       1.0  0.03740  0.26440  0.27270  1.0000 -0.3364716766
N   N51       1.0  0.46260  0.23560  0.77270  1.0000 -0.3364716766
N   N52       1.0  0.53740  0.23560  0.22730  1.0000 -0.3364716766
N   N53       1.0  0.85900  0.79190  0.23060  1.0000 -0.331499282
N   N54       1.0  0.14100  0.79190  0.76940  1.0000 -0.331499282
N   N55       1.0  0.35900  0.70810  0.26940  1.0000 -0.331499282
N   N56       1.0  0.64100  0.70810  0.73060  1.0000 -0.331499282
N   N57       1.0  0.14100  0.20810  0.76940  1.0000 -0.331499282
N   N58       1.0  0.85900  0.20810  0.23060  1.0000 -0.331499282
N   N59       1.0  0.64100  0.29190  0.73060  1.0000 -0.331499282
N   N60       1.0  0.35900  0.29190  0.26940  1.0000 -0.331499282
O   O1        1.0  0.69090  0.77490  0.09799  1.0000 -0.5398147476
O   O2        1.0  0.30910  0.77490  0.90201  1.0000 -0.5398147476
O   O3        1.0  0.19090  0.72510  0.40201  1.0000 -0.5398147476
O   O4        1.0  0.80910  0.72510  0.59799  1.0000 -0.5398147476
O   O5        1.0  0.30910  0.22510  0.90201  1.0000 -0.5398147476
O   O6        1.0  0.69090  0.22510  0.09799  1.0000 -0.5398147476
O   O7        1.0  0.80910  0.27490  0.59799  1.0000 -0.5398147476
O   O8        1.0  0.19090  0.27490  0.40201  1.0000 -0.5398147476
O   O9        1.0  0.87180  0.85010  0.08000  1.0000 -0.5305128989
O   O10       1.0  0.12820  0.85010  0.92000  1.0000 -0.5305128989
O   O11       1.0  0.37180  0.64990  0.42000  1.0000 -0.5305128989
O   O12       1.0  0.62820  0.64990  0.58000  1.0000 -0.5305128989
O   O13       1.0  0.12820  0.14990  0.92000  1.0000 -0.5305128989
O   O14       1.0  0.87180  0.14990  0.08000  1.0000 -0.5305128989
O   O15       1.0  0.62820  0.35010  0.58000  1.0000 -0.5305128989
O   O16       1.0  0.37180  0.35010  0.42000  1.0000 -0.5305128989
