# DDEC6 charges by PACMAN v1.1 (https://github.com/mtap-research/PACMAN-charge/)
data_2016[Tb][nan]3[ASR]3
_chemical_formula_sum              "Tb4 H60 C108 O24"
_cell_length_a       22.2518
_cell_length_b       22.2518
_cell_length_c       13.771
_cell_angle_alpha    78.9442
_cell_angle_beta     101.056
_cell_angle_gamma    142.525

_symmetry_space_group_name_H-M    "P 1"
_symmetry_Int_Tables_number       1

loop_
  _symmetry_equiv_pos_as_xyz
  'x, y, z'

loop_
  _atom_site_type_symbol
  _atom_site_label
  _atom_site_symmetry_multiplicity
  _atom_site_fract_x
  _atom_site_fract_y
  _atom_site_fract_z
  _atom_site_occupancy
  _atom_site_charge
Tb  Tb1       1.0  0.58733  0.99529  0.04544  1.0000 2.0582418282
Tb  Tb2       1.0  0.99529  0.58733  0.45456  1.0000 2.0582418282
Tb  Tb3       1.0  0.41267  0.00471  0.95456  1.0000 2.0582418282
Tb  Tb4       1.0  0.00471  0.41267  0.54544  1.0000 2.0582418282
H   H1        1.0  0.64710  0.27430  0.91040  1.0000 0.1283515197
H   H2        1.0  0.27430  0.64710  0.58960  1.0000 0.1283515197
H   H3        1.0  0.35290  0.72570  0.08960  1.0000 0.1283515197
H   H4        1.0  0.72570  0.35290  0.41040  1.0000 0.1283515197
H   H5        1.0  0.84320  0.49000  0.70950  1.0000 0.1191773078
H   H6        1.0  0.49000  0.84320  0.79050  1.0000 0.1191773078
H   H7        1.0  0.15680  0.51000  0.29050  1.0000 0.1191773078
H   H8        1.0  0.51000  0.15680  0.20950  1.0000 0.1191773078
H   H9        1.0  0.80120  0.27760  0.79330  1.0000 0.1361542409
H   H10       1.0  0.27760  0.80120  0.70670  1.0000 0.1361542409
H   H11       1.0  0.19880  0.72240  0.20670  1.0000 0.1361542409
H   H12       1.0  0.72240  0.19880  0.29330  1.0000 0.1361542409
H   H13       1.0  0.58140  0.32200  0.85310  1.0000 0.1191773078
H   H14       1.0  0.32200  0.58140  0.64690  1.0000 0.1191773078
H   H15       1.0  0.41860  0.67800  0.14690  1.0000 0.1191773078
H   H16       1.0  0.67800  0.41860  0.35310  1.0000 0.1191773078
H   H17       1.0  0.55640  0.40040  0.87120  1.0000 0.1088710715
H   H18       1.0  0.40040  0.55640  0.62880  1.0000 0.1088710715
H   H19       1.0  0.44360  0.59960  0.12880  1.0000 0.1088710715
H   H20       1.0  0.59960  0.44360  0.37120  1.0000 0.1088710715
H   H21       1.0  0.84010  0.66190  0.82560  1.0000 0.1088710715
H   H22       1.0  0.66190  0.84010  0.67440  1.0000 0.1088710715
H   H23       1.0  0.15990  0.33810  0.17440  1.0000 0.1088710715
H   H24       1.0  0.33810  0.15990  0.32560  1.0000 0.1088710715
H   H25       1.0  0.86250  0.58210  0.79820  1.0000 0.1088710715
H   H26       1.0  0.58210  0.86250  0.70180  1.0000 0.1088710715
H   H27       1.0  0.13750  0.41790  0.20180  1.0000 0.1088710715
H   H28       1.0  0.41790  0.13750  0.29820  1.0000 0.1088710715
H   H29       1.0  0.53340  0.47280  0.87260  1.0000 0.1088710715
H   H30       1.0  0.47280  0.53340  0.62740  1.0000 0.1088710715
H   H31       1.0  0.46660  0.52720  0.12740  1.0000 0.1088710715
H   H32       1.0  0.52720  0.46660  0.37260  1.0000 0.1088710715
H   H33       1.0  0.51130  0.55370  0.90100  1.0000 0.1088710715
H   H34       1.0  0.55370  0.51130  0.59900  1.0000 0.1088710715
H   H35       1.0  0.48870  0.44630  0.09900  1.0000 0.1088710715
H   H36       1.0  0.44630  0.48870  0.40100  1.0000 0.1088710715
H   H37       1.0  0.80470  0.81310  0.89620  1.0000 0.1088710715
H   H38       1.0  0.81310  0.80470  0.60380  1.0000 0.1088710715
H   H39       1.0  0.19530  0.18690  0.10380  1.0000 0.1088710715
H   H40       1.0  0.18690  0.19530  0.39620  1.0000 0.1088710715
H   H41       1.0  0.82680  0.73220  0.86780  1.0000 0.1088710715
H   H42       1.0  0.73220  0.82680  0.63220  1.0000 0.1088710715
H   H43       1.0  0.17320  0.26780  0.13220  1.0000 0.1088710715
H   H44       1.0  0.26780  0.17320  0.36780  1.0000 0.1088710715
H   H45       1.0  0.49020  0.62660  0.91330  1.0000 0.1088710715
H   H46       1.0  0.62660  0.49020  0.58670  1.0000 0.1088710715
H   H47       1.0  0.50980  0.37340  0.08670  1.0000 0.1088710715
H   H48       1.0  0.37340  0.50980  0.41330  1.0000 0.1088710715
H   H49       1.0  0.47140  0.70540  0.95640  1.0000 0.1191773078
H   H50       1.0  0.70540  0.47140  0.54360  1.0000 0.1191773078
H   H51       1.0  0.52860  0.29460  0.04360  1.0000 0.1191773078
H   H52       1.0  0.29460  0.52860  0.45640  1.0000 0.1191773078
H   H53       1.0  0.76360  0.95900  0.96170  1.0000 0.1191773078
H   H54       1.0  0.95900  0.76360  0.53830  1.0000 0.1191773078
H   H55       1.0  0.23640  0.04100  0.03830  1.0000 0.1191773078
H   H56       1.0  0.04100  0.23640  0.46170  1.0000 0.1191773078
H   H57       1.0  0.78460  0.87800  0.93280  1.0000 0.1088710715
H   H58       1.0  0.87800  0.78460  0.56720  1.0000 0.1088710715
H   H59       1.0  0.21540  0.12200  0.06720  1.0000 0.1088710715
H   H60       1.0  0.12200  0.21540  0.43280  1.0000 0.1088710715
C   C1        1.0  0.66195  0.16665  0.92010  1.0000 0.6322803636
C   C2        1.0  0.16665  0.66195  0.57990  1.0000 0.6322803636
C   C3        1.0  0.33805  0.83335  0.07990  1.0000 0.6322803636
C   C4        1.0  0.83335  0.33805  0.42010  1.0000 0.6322803636
C   C5        1.0  0.71461  0.26099  0.85860  1.0000 -0.0170563281
C   C6        1.0  0.26099  0.71461  0.64140  1.0000 -0.0170563281
C   C7        1.0  0.28539  0.73901  0.14140  1.0000 -0.0170563281
C   C8        1.0  0.73901  0.28539  0.35860  1.0000 -0.0170563281
C   C9        1.0  0.69390  0.30410  0.86740  1.0000 -0.1497378908
C   C10       1.0  0.30410  0.69390  0.63260  1.0000 -0.1497378908
C   C11       1.0  0.30610  0.69590  0.13260  1.0000 -0.1497378908
C   C12       1.0  0.69590  0.30610  0.36740  1.0000 -0.1415697734
C   C13       1.0  0.74230  0.39170  0.81240  1.0000 0.0631529054
C   C14       1.0  0.39170  0.74230  0.68760  1.0000 0.0631529054
C   C15       1.0  0.25770  0.60830  0.18760  1.0000 0.0631529054
C   C16       1.0  0.60830  0.25770  0.31240  1.0000 0.0631529054
C   C17       1.0  0.81038  0.43202  0.74750  1.0000 -0.1415697734
C   C18       1.0  0.43202  0.81038  0.75250  1.0000 -0.1415697734
C   C19       1.0  0.18962  0.56798  0.25250  1.0000 -0.1415697734
C   C20       1.0  0.56798  0.18962  0.24750  1.0000 -0.1415697734
C   C21       1.0  0.83093  0.38907  0.73760  1.0000 -0.0170563281
C   C22       1.0  0.38907  0.83093  0.76240  1.0000 -0.0170563281
C   C23       1.0  0.16907  0.61093  0.26240  1.0000 -0.0170563281
C   C24       1.0  0.61093  0.16907  0.23760  1.0000 -0.0170563281
C   C25       1.0  0.78494  0.30486  0.79600  1.0000 -0.092928785
C   C26       1.0  0.30486  0.78494  0.70400  1.0000 -0.092928785
C   C27       1.0  0.21506  0.69514  0.20400  1.0000 -0.092928785
C   C28       1.0  0.69514  0.21506  0.29600  1.0000 -0.092928785
C   C29       1.0  0.90426  0.43594  0.66340  1.0000 0.6529807885
C   C30       1.0  0.43594  0.90426  0.83660  1.0000 0.6529807885
C   C31       1.0  0.09574  0.56406  0.33660  1.0000 0.6529807885
C   C32       1.0  0.56406  0.09574  0.16340  1.0000 0.6529807885
C   C33       1.0  0.72454  0.44126  0.82400  1.0000 0.0680515886
C   C34       1.0  0.44126  0.72454  0.67600  1.0000 0.0680515886
C   C35       1.0  0.27546  0.55874  0.17600  1.0000 0.0680515886
C   C36       1.0  0.55874  0.27546  0.32400  1.0000 0.0680515886
C   C37       1.0  0.63417  0.39083  0.84630  1.0000 -0.1335194084
C   C38       1.0  0.39083  0.63417  0.65370  1.0000 -0.1335194084
C   C39       1.0  0.36583  0.60917  0.15370  1.0000 -0.1335194084
C   C40       1.0  0.60917  0.36583  0.34630  1.0000 -0.1335194084
C   C41       1.0  0.61912  0.43788  0.85870  1.0000 -0.1497378908
C   C42       1.0  0.43788  0.61912  0.64130  1.0000 -0.1497378908
C   C43       1.0  0.38088  0.56212  0.14130  1.0000 -0.1497378908
C   C44       1.0  0.56212  0.38088  0.35870  1.0000 -0.1497378908
C   C45       1.0  0.69553  0.53967  0.85310  1.0000 0.0680515886
C   C46       1.0  0.53967  0.69553  0.64690  1.0000 0.0680515886
C   C47       1.0  0.30447  0.46033  0.14690  1.0000 0.0680515886
C   C48       1.0  0.46033  0.30447  0.35310  1.0000 0.0680515886
C   C49       1.0  0.78728  0.59312  0.83040  1.0000 -0.1497378908
C   C50       1.0  0.59312  0.78728  0.66960  1.0000 -0.1497378908
C   C51       1.0  0.21272  0.40688  0.16960  1.0000 -0.1497378908
C   C52       1.0  0.40688  0.21272  0.33040  1.0000 -0.1497378908
C   C53       1.0  0.80085  0.54475  0.81500  1.0000 -0.1497378908
C   C54       1.0  0.54475  0.80085  0.68500  1.0000 -0.1497378908
C   C55       1.0  0.19915  0.45525  0.18500  1.0000 -0.1497378908
C   C56       1.0  0.45525  0.19915  0.31500  1.0000 -0.1497378908
C   C57       1.0  0.68229  0.59451  0.86740  1.0000 0.0680515886
C   C58       1.0  0.59451  0.68229  0.63260  1.0000 0.0680515886
C   C59       1.0  0.31771  0.40549  0.13260  1.0000 0.0680515886
C   C60       1.0  0.40549  0.31771  0.36740  1.0000 0.0680515886
C   C61       1.0  0.58778  0.54102  0.87730  1.0000 -0.1497378908
C   C62       1.0  0.54102  0.58778  0.62270  1.0000 -0.1497378908
C   C63       1.0  0.41222  0.45898  0.12270  1.0000 -0.1497378908
C   C64       1.0  0.45898  0.41222  0.37730  1.0000 -0.1497378908
C   C65       1.0  0.57453  0.58947  0.89440  1.0000 -0.1497378908
C   C66       1.0  0.58947  0.57453  0.60560  1.0000 -0.1497378908
C   C67       1.0  0.42547  0.41053  0.10560  1.0000 -0.1497378908
C   C68       1.0  0.41053  0.42547  0.39440  1.0000 -0.1497378908
C   C69       1.0  0.65579  0.69141  0.90140  1.0000 0.0631529054
C   C70       1.0  0.69141  0.65579  0.59860  1.0000 0.0631529054
C   C71       1.0  0.34421  0.30859  0.09860  1.0000 0.0631529054
C   C72       1.0  0.30859  0.34421  0.40140  1.0000 0.0631529054
C   C73       1.0  0.75030  0.74490  0.89150  1.0000 -0.1497378908
C   C74       1.0  0.74490  0.75030  0.60850  1.0000 -0.1497378908
C   C75       1.0  0.24970  0.25510  0.10850  1.0000 -0.1497378908
C   C76       1.0  0.25510  0.24970  0.39150  1.0000 -0.1497378908
C   C77       1.0  0.76355  0.69645  0.87450  1.0000 -0.1497378908
C   C78       1.0  0.69645  0.76355  0.62550  1.0000 -0.1497378908
C   C79       1.0  0.23645  0.30355  0.12550  1.0000 -0.1497378908
C   C80       1.0  0.30355  0.23645  0.37450  1.0000 -0.1497378908
C   C81       1.0  0.63915  0.74225  0.92220  1.0000 0.0680515886
C   C82       1.0  0.74225  0.63915  0.57780  1.0000 0.0680515886
C   C83       1.0  0.36085  0.25775  0.07780  1.0000 0.0680515886
C   C84       1.0  0.25775  0.36085  0.42220  1.0000 0.0680515886
C   C85       1.0  0.54601  0.69299  0.92680  1.0000 -0.1609898704
C   C86       1.0  0.69299  0.54601  0.57320  1.0000 -0.1609898704
C   C87       1.0  0.45399  0.30701  0.07320  1.0000 -0.1609898704
C   C88       1.0  0.30701  0.45399  0.42680  1.0000 -0.1609898704
C   C89       1.0  0.53472  0.74088  0.95110  1.0000 -0.098600519
C   C90       1.0  0.74088  0.53472  0.54890  1.0000 -0.098600519
C   C91       1.0  0.46528  0.25912  0.04890  1.0000 -0.098600519
C   C92       1.0  0.25912  0.46528  0.45110  1.0000 -0.098600519
C   C93       1.0  0.61515  0.83965  0.96760  1.0000 -0.0280614468
C   C94       1.0  0.83965  0.61515  0.53240  1.0000 -0.0280614468
C   C95       1.0  0.38485  0.16035  0.03240  1.0000 -0.0280614468
C   C96       1.0  0.16035  0.38485  0.46760  1.0000 -0.0280614468
C   C97       1.0  0.70848  0.89092  0.95610  1.0000 -0.092928785
C   C98       1.0  0.89092  0.70848  0.54390  1.0000 -0.092928785
C   C99       1.0  0.29152  0.10908  0.04390  1.0000 -0.092928785
C   C100      1.0  0.10908  0.29152  0.45610  1.0000 -0.092928785
C   C101      1.0  0.72122  0.84298  0.93650  1.0000 -0.1609898704
C   C102      1.0  0.84298  0.72122  0.56350  1.0000 -0.1609898704
C   C103      1.0  0.27878  0.15702  0.06350  1.0000 -0.1609898704
C   C104      1.0  0.15702  0.27878  0.43650  1.0000 -0.1609898704
C   C105      1.0  0.60248  0.89032  0.99680  1.0000 0.5627167066
C   C106      1.0  0.89032  0.60248  0.50320  1.0000 0.5627167066
C   C107      1.0  0.39752  0.10968  0.00320  1.0000 0.5627167066
C   C108      1.0  0.10968  0.39752  0.49680  1.0000 0.5627167066
O   O1        1.0  0.70392  0.14868  0.94370  1.0000 -0.5973430584
O   O2        1.0  0.14868  0.70392  0.55630  1.0000 -0.5973430584
O   O3        1.0  0.29608  0.85132  0.05630  1.0000 -0.5973430584
O   O4        1.0  0.85132  0.29608  0.44370  1.0000 -0.5973430584
O   O5        1.0  0.57785  0.10875  0.94830  1.0000 -0.7354973118
O   O6        1.0  0.10875  0.57785  0.55170  1.0000 -0.7354973118
O   O7        1.0  0.42215  0.89125  0.05170  1.0000 -0.7354973118
O   O8        1.0  0.89125  0.42215  0.44830  1.0000 -0.7354973118
O   O9        1.0  0.91766  0.39214  0.65430  1.0000 -0.6735104482
O   O10       1.0  0.39214  0.91766  0.84570  1.0000 -0.6735104482
O   O11       1.0  0.08234  0.60786  0.34570  1.0000 -0.6735104482
O   O12       1.0  0.60786  0.08234  0.15430  1.0000 -0.6735104482
O   O13       1.0  0.94626  0.51494  0.61680  1.0000 -0.6411822151
O   O14       1.0  0.51494  0.94626  0.88320  1.0000 -0.6411822151
O   O15       1.0  0.05374  0.48506  0.38320  1.0000 -0.6411822151
O   O16       1.0  0.48506  0.05374  0.11680  1.0000 -0.6411822151
O   O17       1.0  0.67416  0.98344  0.98980  1.0000 -0.6290321509
O   O18       1.0  0.98344  0.67416  0.51020  1.0000 -0.6290321509
O   O19       1.0  0.32584  0.01656  0.01020  1.0000 -0.6290321509
O   O20       1.0  0.01656  0.32584  0.48980  1.0000 -0.6290321509
O   O21       1.0  0.52329  0.84191  0.02690  1.0000 -0.6096590916
O   O22       1.0  0.84191  0.52329  0.47310  1.0000 -0.6096590916
O   O23       1.0  0.47671  0.15809  0.97310  1.0000 -0.6096590916
O   O24       1.0  0.15809  0.47671  0.52690  1.0000 -0.6096590916
