# DDEC6 charges by PACMAN v1.1 (https://github.com/mtap-research/PACMAN-charge/)
data_2016[Cu][nbo]3[ASR]37
_chemical_formula_sum              "Cu6 H90 C132 O30"
_cell_length_a       21.4956
_cell_length_b       21.4956
_cell_length_c       21.4956
_cell_angle_alpha    110.578
_cell_angle_beta     110.578
_cell_angle_gamma    110.578

_symmetry_space_group_name_H-M    "P 1"
_symmetry_Int_Tables_number       1

loop_
  _symmetry_equiv_pos_as_xyz
  'x, y, z'

loop_
  _atom_site_type_symbol
  _atom_site_label
  _atom_site_symmetry_multiplicity
  _atom_site_fract_x
  _atom_site_fract_y
  _atom_site_fract_z
  _atom_site_occupancy
  _atom_site_charge
Cu  Cu1       1.0  0.44725  0.44725  0.92465  1.0000 0.8659626423
Cu  Cu2       1.0  0.44725  0.92465  0.44725  1.0000 0.8659626423
Cu  Cu3       1.0  0.92465  0.44725  0.44725  1.0000 0.8659626423
Cu  Cu4       1.0  0.55275  0.55275  0.07535  1.0000 0.8659626423
Cu  Cu5       1.0  0.07535  0.55275  0.55275  1.0000 0.8659626423
Cu  Cu6       1.0  0.55275  0.07535  0.55275  1.0000 0.8659626423
H   H1        1.0  0.56930  0.40000  0.15980  1.0000 0.1271583479
H   H2        1.0  0.40000  0.15980  0.56930  1.0000 0.1271583479
H   H3        1.0  0.15980  0.56930  0.40000  1.0000 0.1271583479
H   H4        1.0  0.60000  0.43070  0.84020  1.0000 0.1271583479
H   H5        1.0  0.84020  0.60000  0.43070  1.0000 0.1271583479
H   H6        1.0  0.43070  0.84020  0.60000  1.0000 0.1271583479
H   H7        1.0  0.43070  0.60000  0.84020  1.0000 0.1271583479
H   H8        1.0  0.60000  0.84020  0.43070  1.0000 0.1271583479
H   H9        1.0  0.84020  0.43070  0.60000  1.0000 0.1271583479
H   H10       1.0  0.40000  0.56930  0.15980  1.0000 0.1271583479
H   H11       1.0  0.15980  0.40000  0.56930  1.0000 0.1271583479
H   H12       1.0  0.56930  0.15980  0.40000  1.0000 0.1271583479
H   H13       1.0  0.56210  0.29650  0.17810  1.0000 0.1271583479
H   H14       1.0  0.29650  0.17810  0.56210  1.0000 0.1271583479
H   H15       1.0  0.17810  0.56210  0.29650  1.0000 0.1271583479
H   H16       1.0  0.70350  0.43790  0.82190  1.0000 0.1271583479
H   H17       1.0  0.82190  0.70350  0.43790  1.0000 0.1271583479
H   H18       1.0  0.43790  0.82190  0.70350  1.0000 0.1271583479
H   H19       1.0  0.43790  0.70350  0.82190  1.0000 0.1271583479
H   H20       1.0  0.70350  0.82190  0.43790  1.0000 0.1271583479
H   H21       1.0  0.82190  0.43790  0.70350  1.0000 0.1271583479
H   H22       1.0  0.29650  0.56210  0.17810  1.0000 0.1271583479
H   H23       1.0  0.17810  0.29650  0.56210  1.0000 0.1271583479
H   H24       1.0  0.56210  0.17810  0.29650  1.0000 0.1271583479
H   H25       1.0  0.40110  0.13390  0.94130  1.0000 0.1197389231
H   H26       1.0  0.13390  0.94130  0.40110  1.0000 0.1197389231
H   H27       1.0  0.94130  0.40110  0.13390  1.0000 0.1197389231
H   H28       1.0  0.86610  0.59890  0.05870  1.0000 0.1197389231
H   H29       1.0  0.05870  0.86610  0.59890  1.0000 0.1197389231
H   H30       1.0  0.59890  0.05870  0.86610  1.0000 0.1197389231
H   H31       1.0  0.59890  0.86610  0.05870  1.0000 0.1197389231
H   H32       1.0  0.86610  0.05870  0.59890  1.0000 0.1197389231
H   H33       1.0  0.05870  0.59890  0.86610  1.0000 0.1197389231
H   H34       1.0  0.13390  0.40110  0.94130  1.0000 0.1197389231
H   H35       1.0  0.94130  0.13390  0.40110  1.0000 0.1197389231
H   H36       1.0  0.40110  0.94130  0.13390  1.0000 0.1197389231
H   H37       1.0  0.40840  0.23780  0.92460  1.0000 0.1271583479
H   H38       1.0  0.23780  0.92460  0.40840  1.0000 0.1271583479
H   H39       1.0  0.92460  0.40840  0.23780  1.0000 0.1271583479
H   H40       1.0  0.76220  0.59160  0.07540  1.0000 0.1271583479
H   H41       1.0  0.07540  0.76220  0.59160  1.0000 0.1271583479
H   H42       1.0  0.59160  0.07540  0.76220  1.0000 0.1271583479
H   H43       1.0  0.59160  0.76220  0.07540  1.0000 0.1271583479
H   H44       1.0  0.76220  0.07540  0.59160  1.0000 0.1271583479
H   H45       1.0  0.07540  0.59160  0.76220  1.0000 0.1271583479
H   H46       1.0  0.23780  0.40840  0.92460  1.0000 0.1271583479
H   H47       1.0  0.92460  0.23780  0.40840  1.0000 0.1271583479
H   H48       1.0  0.40840  0.92460  0.23780  1.0000 0.1271583479
H   H49       1.0  0.49100  0.09200  0.97850  1.0000 0.1145654704
H   H50       1.0  0.09200  0.97850  0.49100  1.0000 0.1145654704
H   H51       1.0  0.97850  0.49100  0.09200  1.0000 0.1145654704
H   H52       1.0  0.90800  0.50900  0.02150  1.0000 0.1197389231
H   H53       1.0  0.02150  0.90800  0.50900  1.0000 0.1145654704
H   H54       1.0  0.50900  0.02150  0.90800  1.0000 0.1145654704
H   H55       1.0  0.50900  0.90800  0.02150  1.0000 0.1197389231
H   H56       1.0  0.90800  0.02150  0.50900  1.0000 0.1197389231
H   H57       1.0  0.02150  0.50900  0.90800  1.0000 0.1145654704
H   H58       1.0  0.09200  0.49100  0.97850  1.0000 0.1145654704
H   H59       1.0  0.97850  0.09200  0.49100  1.0000 0.1197389231
H   H60       1.0  0.49100  0.97850  0.09200  1.0000 0.1145654704
H   H61       1.0  0.36260  0.15740  0.11170  1.0000 0.07063128
H   H62       1.0  0.15740  0.11170  0.36260  1.0000 0.07063128
H   H63       1.0  0.11170  0.36260  0.15740  1.0000 0.07063128
H   H64       1.0  0.84260  0.63740  0.88830  1.0000 0.07063128
H   H65       1.0  0.88830  0.84260  0.63740  1.0000 0.07063128
H   H66       1.0  0.63740  0.88830  0.84260  1.0000 0.07063128
H   H67       1.0  0.63740  0.84260  0.88830  1.0000 0.07063128
H   H68       1.0  0.84260  0.88830  0.63740  1.0000 0.07063128
H   H69       1.0  0.88830  0.63740  0.84260  1.0000 0.07063128
H   H70       1.0  0.15740  0.36260  0.11170  1.0000 0.07063128
H   H71       1.0  0.11170  0.15740  0.36260  1.0000 0.07063128
H   H72       1.0  0.36260  0.11170  0.15740  1.0000 0.07063128
H   H73       1.0  0.35410  0.22610  0.22610  1.0000 0.1145654704
H   H74       1.0  0.22610  0.22610  0.35410  1.0000 0.1145654704
H   H75       1.0  0.22610  0.35410  0.22610  1.0000 0.1145654704
H   H76       1.0  0.77390  0.64590  0.77390  1.0000 0.1145654704
H   H77       1.0  0.77390  0.77390  0.64590  1.0000 0.1197389231
H   H78       1.0  0.64590  0.77390  0.77390  1.0000 0.1145654704
H   H79       1.0  0.43530  0.23920  0.28450  1.0000 0.1197389231
H   H80       1.0  0.23920  0.28450  0.43530  1.0000 0.1197389231
H   H81       1.0  0.28450  0.43530  0.23920  1.0000 0.1197389231
H   H82       1.0  0.76080  0.56470  0.71550  1.0000 0.1197389231
H   H83       1.0  0.71550  0.76080  0.56470  1.0000 0.1197389231
H   H84       1.0  0.56470  0.71550  0.76080  1.0000 0.1197389231
H   H85       1.0  0.56470  0.76080  0.71550  1.0000 0.1197389231
H   H86       1.0  0.76080  0.71550  0.56470  1.0000 0.1197389231
H   H87       1.0  0.71550  0.56470  0.76080  1.0000 0.1197389231
H   H88       1.0  0.23920  0.43530  0.28450  1.0000 0.1197389231
H   H89       1.0  0.28450  0.23920  0.43530  1.0000 0.1197389231
H   H90       1.0  0.43530  0.28450  0.23920  1.0000 0.1197389231
C   C1        1.0  0.49444  0.39411  0.02569  1.0000 0.580436168
C   C2        1.0  0.39411  0.02569  0.49444  1.0000 0.580436168
C   C3        1.0  0.02569  0.49444  0.39411  1.0000 0.580436168
C   C4        1.0  0.60589  0.50556  0.97431  1.0000 0.580436168
C   C5        1.0  0.97431  0.60589  0.50556  1.0000 0.580436168
C   C6        1.0  0.50556  0.97431  0.60589  1.0000 0.580436168
C   C7        1.0  0.50556  0.60589  0.97431  1.0000 0.580436168
C   C8        1.0  0.60589  0.97431  0.50556  1.0000 0.580436168
C   C9        1.0  0.97431  0.50556  0.60589  1.0000 0.580436168
C   C10       1.0  0.39411  0.49444  0.02569  1.0000 0.580436168
C   C11       1.0  0.02569  0.39411  0.49444  1.0000 0.580436168
C   C12       1.0  0.49444  0.02569  0.39411  1.0000 0.580436168
C   C13       1.0  0.48825  0.32704  0.03820  1.0000 -0.0210078967
C   C14       1.0  0.32704  0.03820  0.48825  1.0000 -0.0210078967
C   C15       1.0  0.03820  0.48825  0.32704  1.0000 -0.0210078967
C   C16       1.0  0.67296  0.51175  0.96180  1.0000 -0.0210078967
C   C17       1.0  0.96180  0.67296  0.51175  1.0000 -0.0210078967
C   C18       1.0  0.51175  0.96180  0.67296  1.0000 -0.0210078967
C   C19       1.0  0.51175  0.67296  0.96180  1.0000 -0.0210078967
C   C20       1.0  0.67296  0.96180  0.51175  1.0000 -0.0252067679
C   C21       1.0  0.96180  0.51175  0.67296  1.0000 -0.0210078967
C   C22       1.0  0.32704  0.48825  0.03820  1.0000 -0.0210078967
C   C23       1.0  0.03820  0.32704  0.48825  1.0000 -0.0252067679
C   C24       1.0  0.48825  0.03820  0.32704  1.0000 -0.0210078967
C   C25       1.0  0.53576  0.34666  0.11615  1.0000 -0.0872469486
C   C26       1.0  0.34666  0.11615  0.53576  1.0000 -0.0872469486
C   C27       1.0  0.11615  0.53576  0.34666  1.0000 -0.0872469486
C   C28       1.0  0.65334  0.46424  0.88385  1.0000 -0.0872469486
C   C29       1.0  0.88385  0.65334  0.46424  1.0000 -0.0872469486
C   C30       1.0  0.46424  0.88385  0.65334  1.0000 -0.0872469486
C   C31       1.0  0.46424  0.65334  0.88385  1.0000 -0.0872469486
C   C32       1.0  0.65334  0.88385  0.46424  1.0000 -0.0872469486
C   C33       1.0  0.88385  0.46424  0.65334  1.0000 -0.0872469486
C   C34       1.0  0.34666  0.53576  0.11615  1.0000 -0.0872469486
C   C35       1.0  0.11615  0.34666  0.53576  1.0000 -0.0872469486
C   C36       1.0  0.53576  0.11615  0.34666  1.0000 -0.0872469486
C   C37       1.0  0.53151  0.28478  0.12651  1.0000 -0.1529323256
C   C38       1.0  0.28478  0.12651  0.53151  1.0000 -0.1529323256
C   C39       1.0  0.12651  0.53151  0.28478  1.0000 -0.1529323256
C   C40       1.0  0.71522  0.46849  0.87349  1.0000 -0.1529323256
C   C41       1.0  0.87349  0.71522  0.46849  1.0000 -0.1529323256
C   C42       1.0  0.46849  0.87349  0.71522  1.0000 -0.1529323256
C   C43       1.0  0.46849  0.71522  0.87349  1.0000 -0.1529323256
C   C44       1.0  0.71522  0.87349  0.46849  1.0000 -0.1529323256
C   C45       1.0  0.87349  0.46849  0.71522  1.0000 -0.1529323256
C   C46       1.0  0.28478  0.53151  0.12651  1.0000 -0.1529323256
C   C47       1.0  0.12651  0.28478  0.53151  1.0000 -0.1529323256
C   C48       1.0  0.53151  0.12651  0.28478  1.0000 -0.1529323256
C   C49       1.0  0.48349  0.20654  0.06287  1.0000 0.0942402563
C   C50       1.0  0.20654  0.06287  0.48349  1.0000 0.0960953599
C   C51       1.0  0.06287  0.48349  0.20654  1.0000 0.0942402563
C   C52       1.0  0.79346  0.51651  0.93713  1.0000 0.0942402563
C   C53       1.0  0.93713  0.79346  0.51651  1.0000 0.0942402563
C   C54       1.0  0.51651  0.93713  0.79346  1.0000 0.0942402563
C   C55       1.0  0.51651  0.79346  0.93713  1.0000 0.0942402563
C   C56       1.0  0.79346  0.93713  0.51651  1.0000 0.0942402563
C   C57       1.0  0.93713  0.51651  0.79346  1.0000 0.0942402563
C   C58       1.0  0.20654  0.48349  0.06287  1.0000 0.0942402563
C   C59       1.0  0.06287  0.20654  0.48349  1.0000 0.0942402563
C   C60       1.0  0.48349  0.06287  0.20654  1.0000 0.0960953599
C   C61       1.0  0.43520  0.18717  0.98515  1.0000 -0.1756010996
C   C62       1.0  0.18717  0.98515  0.43520  1.0000 -0.1756010996
C   C63       1.0  0.98515  0.43520  0.18717  1.0000 -0.1746744038
C   C64       1.0  0.81283  0.56480  0.01485  1.0000 -0.1746744038
C   C65       1.0  0.01485  0.81283  0.56480  1.0000 -0.1756010996
C   C66       1.0  0.56480  0.01485  0.81283  1.0000 -0.1746744038
C   C67       1.0  0.56480  0.81283  0.01485  1.0000 -0.1756010996
C   C68       1.0  0.81283  0.01485  0.56480  1.0000 -0.1756010996
C   C69       1.0  0.01485  0.56480  0.81283  1.0000 -0.1756010996
C   C70       1.0  0.18717  0.43520  0.98515  1.0000 -0.1756010996
C   C71       1.0  0.98515  0.18717  0.43520  1.0000 -0.1746744038
C   C72       1.0  0.43520  0.98515  0.18717  1.0000 -0.1756010996
C   C73       1.0  0.43996  0.24947  0.97599  1.0000 -0.0844667451
C   C74       1.0  0.24947  0.97599  0.43996  1.0000 -0.0844667451
C   C75       1.0  0.97599  0.43996  0.24947  1.0000 -0.0872469486
C   C76       1.0  0.75053  0.56004  0.02401  1.0000 -0.0872469486
C   C77       1.0  0.02401  0.75053  0.56004  1.0000 -0.0844667451
C   C78       1.0  0.56004  0.02401  0.75053  1.0000 -0.0844667451
C   C79       1.0  0.56004  0.75053  0.02401  1.0000 -0.0844667451
C   C80       1.0  0.75053  0.02401  0.56004  1.0000 -0.0872469486
C   C81       1.0  0.02401  0.56004  0.75053  1.0000 -0.0844667451
C   C82       1.0  0.24947  0.43996  0.97599  1.0000 -0.0844667451
C   C83       1.0  0.97599  0.24947  0.43996  1.0000 -0.0844667451
C   C84       1.0  0.43996  0.97599  0.24947  1.0000 -0.0844667451
C   C85       1.0  0.48590  0.14259  0.07371  1.0000 -0.0210078967
C   C86       1.0  0.14259  0.07371  0.48590  1.0000 -0.0210078967
C   C87       1.0  0.07371  0.48590  0.14259  1.0000 -0.0210078967
C   C88       1.0  0.85741  0.51410  0.92629  1.0000 -0.0210078967
C   C89       1.0  0.92629  0.85741  0.51410  1.0000 -0.0210078967
C   C90       1.0  0.51410  0.92629  0.85741  1.0000 -0.0210078967
C   C91       1.0  0.51410  0.85741  0.92629  1.0000 -0.0210078967
C   C92       1.0  0.85741  0.92629  0.51410  1.0000 -0.0210078967
C   C93       1.0  0.92629  0.51410  0.85741  1.0000 -0.0210078967
C   C94       1.0  0.14259  0.48590  0.07371  1.0000 -0.0210078967
C   C95       1.0  0.07371  0.14259  0.48590  1.0000 -0.0210078967
C   C96       1.0  0.48590  0.07371  0.14259  1.0000 -0.0210078967
C   C97       1.0  0.49043  0.08761  0.02075  1.0000 -0.189917949
C   C98       1.0  0.08761  0.02075  0.49043  1.0000 -0.189917949
C   C99       1.0  0.02075  0.49043  0.08761  1.0000 -0.189917949
C   C100      1.0  0.91239  0.50957  0.97925  1.0000 -0.189917949
C   C101      1.0  0.97925  0.91239  0.50957  1.0000 -0.189917949
C   C102      1.0  0.50957  0.97925  0.91239  1.0000 -0.189917949
C   C103      1.0  0.50957  0.91239  0.97925  1.0000 -0.189917949
C   C104      1.0  0.91239  0.97925  0.50957  1.0000 -0.189917949
C   C105      1.0  0.97925  0.50957  0.91239  1.0000 -0.189917949
C   C106      1.0  0.08761  0.49043  0.02075  1.0000 -0.189917949
C   C107      1.0  0.02075  0.08761  0.49043  1.0000 -0.189917949
C   C108      1.0  0.49043  0.02075  0.08761  1.0000 -0.189917949
C   C109      1.0  0.49404  0.02623  0.02623  1.0000 0.07063128
C   C110      1.0  0.02623  0.02623  0.49404  1.0000 0.07063128
C   C111      1.0  0.02623  0.49404  0.02623  1.0000 0.07063128
C   C112      1.0  0.97377  0.50596  0.97377  1.0000 0.07063128
C   C113      1.0  0.97377  0.97377  0.50596  1.0000 0.07063128
C   C114      1.0  0.50596  0.97377  0.97377  1.0000 0.07063128
C   C115      1.0  0.48258  0.13456  0.13456  1.0000 0.1654532903
C   C116      1.0  0.13456  0.13456  0.48258  1.0000 0.1654532903
C   C117      1.0  0.13456  0.48258  0.13456  1.0000 0.1654532903
C   C118      1.0  0.86544  0.51742  0.86544  1.0000 0.1654532903
C   C119      1.0  0.86544  0.86544  0.51742  1.0000 0.1654532903
C   C120      1.0  0.51742  0.86544  0.86544  1.0000 0.1654532903
C   C121      1.0  0.39148  0.16241  0.16241  1.0000 0.0164882305
C   C122      1.0  0.16241  0.16241  0.39148  1.0000 0.0164882305
C   C123      1.0  0.16241  0.39148  0.16241  1.0000 0.0164882305
C   C124      1.0  0.83759  0.60852  0.83759  1.0000 0.0164882305
C   C125      1.0  0.83759  0.83759  0.60852  1.0000 0.0164882305
C   C126      1.0  0.60852  0.83759  0.83759  1.0000 0.0164882305
C   C127      1.0  0.40542  0.23524  0.23524  1.0000 -0.3856643012
C   C128      1.0  0.23524  0.23524  0.40542  1.0000 -0.3856643012
C   C129      1.0  0.23524  0.40542  0.23524  1.0000 -0.3856643012
C   C130      1.0  0.76476  0.59458  0.76476  1.0000 -0.3856643012
C   C131      1.0  0.76476  0.76476  0.59458  1.0000 -0.3856643012
C   C132      1.0  0.59458  0.76476  0.76476  1.0000 -0.3856643012
O   O1        1.0  0.44946  0.37191  0.95397  1.0000 -0.5312412849
O   O2        1.0  0.37191  0.95397  0.44946  1.0000 -0.5312412849
O   O3        1.0  0.95397  0.44946  0.37191  1.0000 -0.5312412849
O   O4        1.0  0.62809  0.55054  0.04603  1.0000 -0.5312412849
O   O5        1.0  0.04603  0.62809  0.55054  1.0000 -0.5312412849
O   O6        1.0  0.55054  0.04603  0.62809  1.0000 -0.5312412849
O   O7        1.0  0.55054  0.62809  0.04603  1.0000 -0.5312412849
O   O8        1.0  0.62809  0.04603  0.55054  1.0000 -0.5312412849
O   O9        1.0  0.04603  0.55054  0.62809  1.0000 -0.5312412849
O   O10       1.0  0.37191  0.44946  0.95397  1.0000 -0.5312412849
O   O11       1.0  0.95397  0.37191  0.44946  1.0000 -0.5312412849
O   O12       1.0  0.44946  0.95397  0.37191  1.0000 -0.5312412849
O   O13       1.0  0.54209  0.46424  0.08623  1.0000 -0.5170268736
O   O14       1.0  0.46424  0.08623  0.54209  1.0000 -0.5170268736
O   O15       1.0  0.08623  0.54209  0.46424  1.0000 -0.5170268736
O   O16       1.0  0.53576  0.45791  0.91377  1.0000 -0.5170268736
O   O17       1.0  0.91377  0.53576  0.45791  1.0000 -0.5170268736
O   O18       1.0  0.45791  0.91377  0.53576  1.0000 -0.5170268736
O   O19       1.0  0.45791  0.53576  0.91377  1.0000 -0.5170268736
O   O20       1.0  0.53576  0.91377  0.45791  1.0000 -0.5170268736
O   O21       1.0  0.91377  0.45791  0.53576  1.0000 -0.5170268736
O   O22       1.0  0.46424  0.54209  0.08623  1.0000 -0.5170268736
O   O23       1.0  0.08623  0.46424  0.54209  1.0000 -0.5170268736
O   O24       1.0  0.54209  0.08623  0.46424  1.0000 -0.5170268736
O   O25       1.0  0.47516  0.18792  0.18792  1.0000 -0.2509483518
O   O26       1.0  0.18792  0.18792  0.47516  1.0000 -0.2509483518
O   O27       1.0  0.18792  0.47516  0.18792  1.0000 -0.2509483518
O   O28       1.0  0.81208  0.52484  0.81208  1.0000 -0.2509483518
O   O29       1.0  0.81208  0.81208  0.52484  1.0000 -0.2509483518
O   O30       1.0  0.52484  0.81208  0.81208  1.0000 -0.2509483518
