# DDEC6 charges by PACMAN v1.1 (https://github.com/mtap-research/PACMAN-charge/)
data_2016[In][nan]3[ASR]9
_chemical_formula_sum              "In4 H16 C32 O20"
_cell_length_a       12.5255
_cell_length_b       12.5255
_cell_length_c       12.5255
_cell_angle_alpha    103.915
_cell_angle_beta     103.915
_cell_angle_gamma    121.267

_symmetry_space_group_name_H-M    "P 1"
_symmetry_Int_Tables_number       1

loop_
  _symmetry_equiv_pos_as_xyz
  'x, y, z'

loop_
  _atom_site_type_symbol
  _atom_site_label
  _atom_site_symmetry_multiplicity
  _atom_site_fract_x
  _atom_site_fract_y
  _atom_site_fract_z
  _atom_site_occupancy
  _atom_site_charge
In  In1       1.0  0.18370  0.81630  0.00000  1.0000 1.552264044
In  In2       1.0  0.43370  0.93370  0.86740  1.0000 1.552264044
In  In3       1.0  0.81630  0.18370  0.00000  1.0000 1.552264044
In  In4       1.0  0.06630  0.56630  0.13260  1.0000 1.552264044
H   H1        1.0  0.44130  0.87500  0.06630  1.0000 0.396605322
H   H2        1.0  0.62500  0.19130  0.06630  1.0000 0.396605322
H   H3        1.0  0.80870  0.37500  0.93370  1.0000 0.396605322
H   H4        1.0  0.12500  0.55870  0.93370  1.0000 0.396605322
H   H5        1.0  0.12490  0.12490  0.00000  1.0000 0.13353152
H   H6        1.0  0.37490  0.87490  0.50000  1.0000 0.13353152
H   H7        1.0  0.12510  0.62510  0.50000  1.0000 0.13353152
H   H8        1.0  0.87510  0.87510  0.00000  1.0000 0.13353152
H   H9        1.0  0.48930  0.30310  0.94460  1.0000 0.1120346346
H   H10       1.0  0.79470  0.23930  0.68620  1.0000 0.1120346346
H   H11       1.0  0.35850  0.54470  0.05540  1.0000 0.1120346346
H   H12       1.0  0.55310  0.10850  0.31380  1.0000 0.1120346346
H   H13       1.0  0.89150  0.44690  0.68620  1.0000 0.1120346346
H   H14       1.0  0.45530  0.64150  0.94460  1.0000 0.1120346346
H   H15       1.0  0.76070  0.20530  0.31380  1.0000 0.1120346346
H   H16       1.0  0.69690  0.51070  0.05540  1.0000 0.1120346346
C   C1        1.0  0.29180  0.07220  0.94700  1.0000 0.5972127112
C   C2        1.0  0.59480  0.04180  0.71960  1.0000 0.5972127112
C   C3        1.0  0.12520  0.34480  0.05300  1.0000 0.5972127112
C   C4        1.0  0.32220  0.87520  0.28040  1.0000 0.5972127112
C   C5        1.0  0.12480  0.67780  0.71960  1.0000 0.5972127112
C   C6        1.0  0.65520  0.87480  0.94700  1.0000 0.5972127112
C   C7        1.0  0.95820  0.40520  0.28040  1.0000 0.5972127112
C   C8        1.0  0.92780  0.70820  0.05300  1.0000 0.5972127112
C   C9        1.0  0.30464  0.19826  0.96830  1.0000 -0.0517092926
C   C10       1.0  0.58634  0.05464  0.60638  1.0000 -0.0517092926
C   C11       1.0  0.22996  0.33634  0.03170  1.0000 -0.0517092926
C   C12       1.0  0.44826  0.97996  0.39362  1.0000 -0.0517092926
C   C13       1.0  0.02004  0.55174  0.60638  1.0000 -0.0517092926
C   C14       1.0  0.66366  0.77004  0.96830  1.0000 -0.0517092926
C   C15       1.0  0.94536  0.41366  0.39362  1.0000 -0.0517092926
C   C16       1.0  0.80174  0.69536  0.03170  1.0000 -0.0517092926
C   C17       1.0  0.21040  0.21040  0.00000  1.0000 -0.0919290819
C   C18       1.0  0.46040  0.96040  0.50000  1.0000 -0.0919290819
C   C19       1.0  0.03960  0.53960  0.50000  1.0000 -0.0919290819
C   C20       1.0  0.78960  0.78960  0.00000  1.0000 -0.0919290819
C   C21       1.0  0.41854  0.31216  0.96830  1.0000 -0.1302851197
C   C22       1.0  0.70024  0.16854  0.60638  1.0000 -0.1302851197
C   C23       1.0  0.34386  0.45024  0.03170  1.0000 -0.1302851197
C   C24       1.0  0.56216  0.09386  0.39362  1.0000 -0.1302851197
C   C25       1.0  0.90614  0.43784  0.60638  1.0000 -0.1302851197
C   C26       1.0  0.54976  0.65614  0.96830  1.0000 -0.1302851197
C   C27       1.0  0.83146  0.29976  0.39362  1.0000 -0.1302851197
C   C28       1.0  0.68784  0.58146  0.03170  1.0000 -0.1302851197
C   C29       1.0  0.43810  0.43810  0.00000  1.0000 0.0768788978
C   C30       1.0  0.68810  0.18810  0.50000  1.0000 0.0768788978
C   C31       1.0  0.81190  0.31190  0.50000  1.0000 0.0768788978
C   C32       1.0  0.56190  0.56190  0.00000  1.0000 0.0768788978
O   O1        1.0  0.38300  0.87500  0.00800  1.0000 -0.9339560327
O   O2        1.0  0.62500  0.13300  0.00800  1.0000 -0.9339560327
O   O3        1.0  0.86700  0.37500  0.99200  1.0000 -0.9339560327
O   O4        1.0  0.12500  0.61700  0.99200  1.0000 -0.9339560327
O   O5        1.0  0.23130  0.99790  0.99460  1.0000 -0.5400616286
O   O6        1.0  0.48670  0.98130  0.73340  1.0000 -0.5400616286
O   O7        1.0  0.00330  0.23670  0.00540  1.0000 -0.5400616286
O   O8        1.0  0.24790  0.75330  0.26660  1.0000 -0.5400616286
O   O9        1.0  0.24670  0.75210  0.73340  1.0000 -0.5400616286
O   O10       1.0  0.76330  0.99670  0.99460  1.0000 -0.5400616286
O   O11       1.0  0.01870  0.51330  0.26660  1.0000 -0.5400616286
O   O12       1.0  0.00210  0.76870  0.00540  1.0000 -0.5400616286
O   O13       1.0  0.34180  0.04170  0.88190  1.0000 -0.5538886395
O   O14       1.0  0.70990  0.09180  0.80010  1.0000 -0.5538886395
O   O15       1.0  0.15980  0.45990  0.11810  1.0000 -0.5538886395
O   O16       1.0  0.29170  0.90980  0.19990  1.0000 -0.5538886395
O   O17       1.0  0.09020  0.70830  0.80010  1.0000 -0.5538886395
O   O18       1.0  0.54010  0.84020  0.88190  1.0000 -0.5538886395
O   O19       1.0  0.90820  0.29010  0.19990  1.0000 -0.5538886395
O   O20       1.0  0.95830  0.65820  0.11810  1.0000 -0.5538886395
