# DDEC6 charges by PACMAN v1.1 (https://github.com/mtap-research/PACMAN-charge/)
data_2016[Zn][ths]3[ASR]1
_chemical_formula_sum              "Zn12 H96 C144 I24 N48"
_cell_length_a       18.9238
_cell_length_b       18.9238
_cell_length_c       31.393
_cell_angle_alpha    79.4162
_cell_angle_beta     100.584
_cell_angle_gamma    134.437

_symmetry_space_group_name_H-M    "P 1"
_symmetry_Int_Tables_number       1

loop_
  _symmetry_equiv_pos_as_xyz
  'x, y, z'

loop_
  _atom_site_type_symbol
  _atom_site_label
  _atom_site_symmetry_multiplicity
  _atom_site_fract_x
  _atom_site_fract_y
  _atom_site_fract_z
  _atom_site_occupancy
  _atom_site_charge
Zn  Zn1       1.0  0.03049  0.69681  0.76845  1.0000 0.4434323495
Zn  Zn2       1.0  0.30319  0.96951  0.26845  1.0000 0.4434323495
Zn  Zn3       1.0  0.71627  0.54869  0.59200  1.0000 0.4614423027
Zn  Zn4       1.0  0.45131  0.28373  0.09200  1.0000 0.4614423027
Zn  Zn5       1.0  0.97496  0.22584  0.93974  1.0000 0.4725207722
Zn  Zn6       1.0  0.77416  0.02504  0.43974  1.0000 0.4725207722
Zn  Zn7       1.0  0.69681  0.03049  0.73155  1.0000 0.4434323495
Zn  Zn8       1.0  0.96951  0.30319  0.23155  1.0000 0.4434323495
Zn  Zn9       1.0  0.54869  0.71627  0.90800  1.0000 0.4614423027
Zn  Zn10      1.0  0.28373  0.45131  0.40800  1.0000 0.4614423027
Zn  Zn11      1.0  0.22584  0.97496  0.56026  1.0000 0.4725207722
Zn  Zn12      1.0  0.02504  0.77416  0.06026  1.0000 0.4725207722
H   H1        1.0  0.33710  0.04930  0.73890  1.0000 0.1393383752
H   H2        1.0  0.95070  0.66290  0.23890  1.0000 0.1393383752
H   H3        1.0  0.17280  0.90680  0.73560  1.0000 0.1076847789
H   H4        1.0  0.09320  0.82720  0.23560  1.0000 0.1076847789
H   H5        1.0  0.22410  0.76010  0.81540  1.0000 0.1076847789
H   H6        1.0  0.23990  0.77590  0.31540  1.0000 0.1076847789
H   H7        1.0  0.39080  0.90100  0.82190  1.0000 0.1393383752
H   H8        1.0  0.09900  0.60920  0.32190  1.0000 0.1393383752
H   H9        1.0  0.84790  0.30290  0.80300  1.0000 0.1207816934
H   H10       1.0  0.69710  0.15210  0.30300  1.0000 0.1207816934
H   H11       1.0  0.96360  0.32260  0.85320  1.0000 0.1076847789
H   H12       1.0  0.67740  0.03640  0.35320  1.0000 0.1076847789
H   H13       1.0  0.75800  0.09060  0.92510  1.0000 0.1076847789
H   H14       1.0  0.90940  0.24200  0.42510  1.0000 0.1076847789
H   H15       1.0  0.63490  0.06290  0.87660  1.0000 0.1393383752
H   H16       1.0  0.93710  0.36510  0.37660  1.0000 0.1393383752
H   H17       1.0  0.50250  0.22550  0.67820  1.0000 0.1320930345
H   H18       1.0  0.77450  0.49750  0.17820  1.0000 0.1320930345
H   H19       1.0  0.54770  0.34310  0.62340  1.0000 0.1033049904
H   H20       1.0  0.65690  0.45230  0.12340  1.0000 0.1033049904
H   H21       1.0  0.82660  0.51360  0.66210  1.0000 0.1076847789
H   H22       1.0  0.48640  0.17340  0.16210  1.0000 0.1076847789
H   H23       1.0  0.79070  0.40310  0.72080  1.0000 0.1320930345
H   H24       1.0  0.59690  0.20930  0.22080  1.0000 0.1320930345
H   H25       1.0  0.86070  0.89930  0.00790  1.0000 0.1393383752
H   H26       1.0  0.10070  0.13930  0.50790  1.0000 0.1393383752
H   H27       1.0  0.90050  0.04790  0.00410  1.0000 0.1033049904
H   H28       1.0  0.95210  0.09950  0.50410  1.0000 0.1033049904
H   H29       1.0  0.94380  0.10040  0.88170  1.0000 0.1076847789
H   H30       1.0  0.89960  0.05620  0.38170  1.0000 0.1076847789
H   H31       1.0  0.90760  0.95740  0.88150  1.0000 0.1393383752
H   H32       1.0  0.04260  0.09240  0.38150  1.0000 0.1393383752
H   H33       1.0  0.79410  0.57170  0.87450  1.0000 0.1393383752
H   H34       1.0  0.42830  0.20590  0.37450  1.0000 0.1393383752
H   H35       1.0  0.85990  0.56730  0.82350  1.0000 0.1207816934
H   H36       1.0  0.43270  0.14010  0.32350  1.0000 0.1207816934
H   H37       1.0  0.09170  0.85110  0.82370  1.0000 0.1076847789
H   H38       1.0  0.14890  0.90830  0.32370  1.0000 0.1076847789
H   H39       1.0  0.03080  0.86480  0.87440  1.0000 0.1393383752
H   H40       1.0  0.13520  0.96920  0.37440  1.0000 0.1393383752
H   H41       1.0  0.65050  0.63030  0.02080  1.0000 0.1393383752
H   H42       1.0  0.36970  0.34950  0.52080  1.0000 0.1393383752
H   H43       1.0  0.53550  0.49170  0.06510  1.0000 0.1076847789
H   H44       1.0  0.50830  0.46450  0.56510  1.0000 0.1076847789
H   H45       1.0  0.56800  0.33920  0.01900  1.0000 0.1076847789
H   H46       1.0  0.66080  0.43200  0.51900  1.0000 0.1076847789
H   H47       1.0  0.68600  0.47320  0.97500  1.0000 0.1393383752
H   H48       1.0  0.52680  0.31400  0.47500  1.0000 0.1393383752
H   H49       1.0  0.04930  0.33710  0.76110  1.0000 0.1393383752
H   H50       1.0  0.66290  0.95070  0.26110  1.0000 0.1393383752
H   H51       1.0  0.90680  0.17280  0.76440  1.0000 0.1076847789
H   H52       1.0  0.82720  0.09320  0.26440  1.0000 0.1076847789
H   H53       1.0  0.76010  0.22410  0.68460  1.0000 0.1076847789
H   H54       1.0  0.77590  0.23990  0.18460  1.0000 0.1076847789
H   H55       1.0  0.90100  0.39080  0.67810  1.0000 0.1393383752
H   H56       1.0  0.60920  0.09900  0.17810  1.0000 0.1393383752
H   H57       1.0  0.30290  0.84790  0.69700  1.0000 0.1207816934
H   H58       1.0  0.15210  0.69710  0.19700  1.0000 0.1207816934
H   H59       1.0  0.32260  0.96360  0.64680  1.0000 0.1076847789
H   H60       1.0  0.03640  0.67740  0.14680  1.0000 0.1076847789
H   H61       1.0  0.09060  0.75800  0.57490  1.0000 0.1076847789
H   H62       1.0  0.24200  0.90940  0.07490  1.0000 0.1076847789
H   H63       1.0  0.06290  0.63490  0.62340  1.0000 0.1393383752
H   H64       1.0  0.36510  0.93710  0.12340  1.0000 0.1393383752
H   H65       1.0  0.22550  0.50250  0.82180  1.0000 0.1320930345
H   H66       1.0  0.49750  0.77450  0.32180  1.0000 0.1320930345
H   H67       1.0  0.34310  0.54770  0.87660  1.0000 0.1033049904
H   H68       1.0  0.45230  0.65690  0.37660  1.0000 0.1033049904
H   H69       1.0  0.51360  0.82660  0.83790  1.0000 0.1076847789
H   H70       1.0  0.17340  0.48640  0.33790  1.0000 0.1076847789
H   H71       1.0  0.40310  0.79070  0.77920  1.0000 0.1320930345
H   H72       1.0  0.20930  0.59690  0.27920  1.0000 0.1320930345
H   H73       1.0  0.89930  0.86070  0.49210  1.0000 0.1393383752
H   H74       1.0  0.13930  0.10070  0.99210  1.0000 0.1393383752
H   H75       1.0  0.04790  0.90050  0.49590  1.0000 0.1033049904
H   H76       1.0  0.09950  0.95210  0.99590  1.0000 0.1033049904
H   H77       1.0  0.10040  0.94380  0.61830  1.0000 0.1076847789
H   H78       1.0  0.05620  0.89960  0.11830  1.0000 0.1076847789
H   H79       1.0  0.95740  0.90760  0.61850  1.0000 0.1393383752
H   H80       1.0  0.09240  0.04260  0.11850  1.0000 0.1393383752
H   H81       1.0  0.57170  0.79410  0.62550  1.0000 0.1393383752
H   H82       1.0  0.20590  0.42830  0.12550  1.0000 0.1393383752
H   H83       1.0  0.56730  0.85990  0.67650  1.0000 0.1207816934
H   H84       1.0  0.14010  0.43270  0.17650  1.0000 0.1207816934
H   H85       1.0  0.85110  0.09170  0.67630  1.0000 0.1076847789
H   H86       1.0  0.90830  0.14890  0.17630  1.0000 0.1076847789
H   H87       1.0  0.86480  0.03080  0.62560  1.0000 0.1393383752
H   H88       1.0  0.96920  0.13520  0.12560  1.0000 0.1393383752
H   H89       1.0  0.63030  0.65050  0.47920  1.0000 0.1393383752
H   H90       1.0  0.34950  0.36970  0.97920  1.0000 0.1393383752
H   H91       1.0  0.49170  0.53550  0.43490  1.0000 0.1076847789
H   H92       1.0  0.46450  0.50830  0.93490  1.0000 0.1076847789
H   H93       1.0  0.33920  0.56800  0.48100  1.0000 0.1076847789
H   H94       1.0  0.43200  0.66080  0.98100  1.0000 0.1076847789
H   H95       1.0  0.47320  0.68600  0.52500  1.0000 0.1393383752
H   H96       1.0  0.31400  0.52680  0.02500  1.0000 0.1393383752
C   C1        1.0  0.65180  0.16820  0.80260  1.0000 0.3649569561
C   C2        1.0  0.83180  0.34820  0.30260  1.0000 0.3649569561
C   C3        1.0  0.61420  0.22600  0.74370  1.0000 0.3649569561
C   C4        1.0  0.77400  0.38580  0.24370  1.0000 0.3649569561
C   C5        1.0  0.49200  0.08140  0.77910  1.0000 0.3692553054
C   C6        1.0  0.91860  0.50800  0.27910  1.0000 0.3692553054
C   C7        1.0  0.38450  0.99090  0.78000  1.0000 0.0706046557
C   C8        1.0  0.00910  0.61550  0.28000  1.0000 0.0706046557
C   C9        1.0  0.31600  0.99140  0.75460  1.0000 -0.1594210422
C   C10       1.0  0.00860  0.68400  0.25460  1.0000 -0.1594210422
C   C11       1.0  0.21750  0.90570  0.75300  1.0000 0.0775889773
C   C12       1.0  0.09430  0.78250  0.25300  1.0000 0.0775889773
C   C13       1.0  0.24750  0.81930  0.80020  1.0000 0.0706046557
C   C14       1.0  0.18070  0.75250  0.30020  1.0000 0.0706046557
C   C15       1.0  0.34780  0.90340  0.80360  1.0000 -0.1498724803
C   C16       1.0  0.09660  0.65220  0.30360  1.0000 -0.1498724803
C   C17       1.0  0.72740  0.18040  0.83450  1.0000 0.0603769703
C   C18       1.0  0.81960  0.27260  0.33450  1.0000 0.0603769703
C   C19       1.0  0.82800  0.25900  0.82760  1.0000 -0.1498724803
C   C20       1.0  0.74100  0.17200  0.32760  1.0000 -0.1498724803
C   C21       1.0  0.89660  0.27000  0.85780  1.0000 0.0775889773
C   C22       1.0  0.73000  0.10340  0.35780  1.0000 0.0775889773
C   C23       1.0  0.77550  0.13330  0.90020  1.0000 0.0905287146
C   C24       1.0  0.86670  0.22450  0.40020  1.0000 0.0905287146
C   C25       1.0  0.70130  0.11650  0.87130  1.0000 -0.1391960803
C   C26       1.0  0.88350  0.29870  0.37130  1.0000 -0.1391960803
C   C27       1.0  0.64250  0.30030  0.70680  1.0000 0.0603769703
C   C28       1.0  0.69970  0.35750  0.20680  1.0000 0.0603769703
C   C29       1.0  0.56900  0.28380  0.67610  1.0000 -0.1498724803
C   C30       1.0  0.71620  0.43100  0.17610  1.0000 -0.1498724803
C   C31       1.0  0.59710  0.35470  0.64340  1.0000 0.0775889773
C   C32       1.0  0.64530  0.40290  0.14340  1.0000 0.0775889773
C   C33       1.0  0.76070  0.45550  0.66600  1.0000 0.0905287146
C   C34       1.0  0.54450  0.23930  0.16600  1.0000 0.0905287146
C   C35       1.0  0.73960  0.38860  0.70110  1.0000 -0.1594210422
C   C36       1.0  0.61140  0.26040  0.20110  1.0000 -0.1594210422
C   C37       1.0  0.85450  0.81870  0.94430  1.0000 0.3780094912
C   C38       1.0  0.18130  0.14550  0.44430  1.0000 0.3780094912
C   C39       1.0  0.76100  0.65680  0.96650  1.0000 0.3780094912
C   C40       1.0  0.34320  0.23900  0.46650  1.0000 0.3780094912
C   C41       1.0  0.86220  0.72640  0.91290  1.0000 0.3780094912
C   C42       1.0  0.27360  0.13780  0.41290  1.0000 0.3692553054
C   C43       1.0  0.88150  0.91310  0.94490  1.0000 0.0603769703
C   C44       1.0  0.08690  0.11850  0.44490  1.0000 0.0603769703
C   C45       1.0  0.87830  0.93950  0.98200  1.0000 -0.1498724803
C   C46       1.0  0.06050  0.12170  0.48200  1.0000 -0.1498724803
C   C47       1.0  0.90290  0.02950  0.97930  1.0000 0.0905287146
C   C48       1.0  0.97050  0.09710  0.47930  1.0000 0.0905287146
C   C49       1.0  0.92840  0.06040  0.90750  1.0000 0.0775889773
C   C50       1.0  0.93960  0.07160  0.40750  1.0000 0.0775889773
C   C51       1.0  0.90620  0.97460  0.90700  1.0000 -0.1336720662
C   C52       1.0  0.02540  0.09380  0.40700  1.0000 -0.1336720662
C   C53       1.0  0.90470  0.72010  0.88040  1.0000 0.0775889773
C   C54       1.0  0.27990  0.09530  0.38040  1.0000 0.0775889773
C   C55       1.0  0.85450  0.62990  0.86430  1.0000 -0.1391960803
C   C56       1.0  0.37010  0.14550  0.36430  1.0000 -0.1391960803
C   C57       1.0  0.89440  0.62800  0.83400  1.0000 0.0603769703
C   C58       1.0  0.37200  0.10560  0.33400  1.0000 0.0603769703
C   C59       1.0  0.03040  0.79460  0.83380  1.0000 0.0775889773
C   C60       1.0  0.20540  0.96960  0.33380  1.0000 0.0775889773
C   C61       1.0  0.99460  0.80320  0.86440  1.0000 -0.1391960803
C   C62       1.0  0.19680  0.00540  0.36440  1.0000 -0.1391960803
C   C63       1.0  0.68330  0.56790  0.99330  1.0000 0.0603769703
C   C64       1.0  0.43210  0.31670  0.49330  1.0000 0.0603769703
C   C65       1.0  0.63590  0.57210  0.02040  1.0000 -0.1498724803
C   C66       1.0  0.42790  0.36410  0.52040  1.0000 -0.1498724803
C   C67       1.0  0.56660  0.48840  0.04690  1.0000 0.0775889773
C   C68       1.0  0.51160  0.43340  0.54690  1.0000 0.0775889773
C   C69       1.0  0.58640  0.39920  0.01990  1.0000 0.0775889773
C   C70       1.0  0.60080  0.41360  0.51990  1.0000 0.0775889773
C   C71       1.0  0.65680  0.47920  0.99310  1.0000 -0.1391960803
C   C72       1.0  0.52080  0.34320  0.49310  1.0000 -0.1391960803
C   C73       1.0  0.16820  0.65180  0.69740  1.0000 0.3649569561
C   C74       1.0  0.34820  0.83180  0.19740  1.0000 0.3649569561
C   C75       1.0  0.22600  0.61420  0.75630  1.0000 0.3649569561
C   C76       1.0  0.38580  0.77400  0.25630  1.0000 0.3649569561
C   C77       1.0  0.08140  0.49200  0.72090  1.0000 0.3692553054
C   C78       1.0  0.50800  0.91860  0.22090  1.0000 0.3692553054
C   C79       1.0  0.99090  0.38450  0.72000  1.0000 0.0706046557
C   C80       1.0  0.61550  0.00910  0.22000  1.0000 0.0706046557
C   C81       1.0  0.99140  0.31600  0.74540  1.0000 -0.1594210422
C   C82       1.0  0.68400  0.00860  0.24540  1.0000 -0.1594210422
C   C83       1.0  0.90570  0.21750  0.74700  1.0000 0.0775889773
C   C84       1.0  0.78250  0.09430  0.24700  1.0000 0.0775889773
C   C85       1.0  0.81930  0.24750  0.69980  1.0000 0.0706046557
C   C86       1.0  0.75250  0.18070  0.19980  1.0000 0.0706046557
C   C87       1.0  0.90340  0.34780  0.69640  1.0000 -0.1498724803
C   C88       1.0  0.65220  0.09660  0.19640  1.0000 -0.1498724803
C   C89       1.0  0.18040  0.72740  0.66550  1.0000 0.0603769703
C   C90       1.0  0.27260  0.81960  0.16550  1.0000 0.0603769703
C   C91       1.0  0.25900  0.82800  0.67240  1.0000 -0.1498724803
C   C92       1.0  0.17200  0.74100  0.17240  1.0000 -0.1594210422
C   C93       1.0  0.27000  0.89660  0.64220  1.0000 0.0775889773
C   C94       1.0  0.10340  0.73000  0.14220  1.0000 0.0775889773
C   C95       1.0  0.13330  0.77550  0.59980  1.0000 0.0905287146
C   C96       1.0  0.22450  0.86670  0.09980  1.0000 0.0905287146
C   C97       1.0  0.11650  0.70130  0.62870  1.0000 -0.1391960803
C   C98       1.0  0.29870  0.88350  0.12870  1.0000 -0.1391960803
C   C99       1.0  0.30030  0.64250  0.79320  1.0000 0.0603769703
C   C100      1.0  0.35750  0.69970  0.29320  1.0000 0.0603769703
C   C101      1.0  0.28380  0.56900  0.82390  1.0000 -0.1498724803
C   C102      1.0  0.43100  0.71620  0.32390  1.0000 -0.1498724803
C   C103      1.0  0.35470  0.59710  0.85660  1.0000 0.0775889773
C   C104      1.0  0.40290  0.64530  0.35660  1.0000 0.0775889773
C   C105      1.0  0.45550  0.76070  0.83400  1.0000 0.0905287146
C   C106      1.0  0.23930  0.54450  0.33400  1.0000 0.0905287146
C   C107      1.0  0.38860  0.73960  0.79890  1.0000 -0.1594210422
C   C108      1.0  0.26040  0.61140  0.29890  1.0000 -0.1594210422
C   C109      1.0  0.81870  0.85450  0.55570  1.0000 0.3780094912
C   C110      1.0  0.14550  0.18130  0.05570  1.0000 0.3780094912
C   C111      1.0  0.65680  0.76100  0.53350  1.0000 0.3780094912
C   C112      1.0  0.23900  0.34320  0.03350  1.0000 0.3780094912
C   C113      1.0  0.72640  0.86220  0.58710  1.0000 0.3780094912
C   C114      1.0  0.13780  0.27360  0.08710  1.0000 0.3692553054
C   C115      1.0  0.91310  0.88150  0.55510  1.0000 0.0603769703
C   C116      1.0  0.11850  0.08690  0.05510  1.0000 0.0603769703
C   C117      1.0  0.93950  0.87830  0.51800  1.0000 -0.1498724803
C   C118      1.0  0.12170  0.06050  0.01800  1.0000 -0.1498724803
C   C119      1.0  0.02950  0.90290  0.52070  1.0000 0.0905287146
C   C120      1.0  0.09710  0.97050  0.02070  1.0000 0.0905287146
C   C121      1.0  0.06040  0.92840  0.59250  1.0000 0.0775889773
C   C122      1.0  0.07160  0.93960  0.09250  1.0000 0.0775889773
C   C123      1.0  0.97460  0.90620  0.59300  1.0000 -0.1336720662
C   C124      1.0  0.09380  0.02540  0.09300  1.0000 -0.1336720662
C   C125      1.0  0.72010  0.90470  0.61960  1.0000 0.0775889773
C   C126      1.0  0.09530  0.27990  0.11960  1.0000 0.0706046557
C   C127      1.0  0.62990  0.85450  0.63570  1.0000 -0.1391960803
C   C128      1.0  0.14550  0.37010  0.13570  1.0000 -0.1391960803
C   C129      1.0  0.62800  0.89440  0.66600  1.0000 0.0603769703
C   C130      1.0  0.10560  0.37200  0.16600  1.0000 0.0603769703
C   C131      1.0  0.79460  0.03040  0.66620  1.0000 0.0775889773
C   C132      1.0  0.96960  0.20540  0.16620  1.0000 0.0775889773
C   C133      1.0  0.80320  0.99460  0.63560  1.0000 -0.1391960803
C   C134      1.0  0.00540  0.19680  0.13560  1.0000 -0.1391960803
C   C135      1.0  0.56790  0.68330  0.50670  1.0000 0.0603769703
C   C136      1.0  0.31670  0.43210  0.00670  1.0000 0.0603769703
C   C137      1.0  0.57210  0.63590  0.47960  1.0000 -0.1498724803
C   C138      1.0  0.36410  0.42790  0.97960  1.0000 -0.1498724803
C   C139      1.0  0.48840  0.56660  0.45310  1.0000 0.0775889773
C   C140      1.0  0.43340  0.51160  0.95310  1.0000 0.0775889773
C   C141      1.0  0.39920  0.58640  0.48010  1.0000 0.0775889773
C   C142      1.0  0.41360  0.60080  0.98010  1.0000 0.0775889773
C   C143      1.0  0.47920  0.65680  0.50690  1.0000 -0.1391960803
C   C144      1.0  0.34320  0.52080  0.00690  1.0000 -0.1391960803
I   I1        1.0  0.96849  0.72805  0.69573  1.0000 -0.431026865
I   I2        1.0  0.27195  0.03151  0.19573  1.0000 -0.431026865
I   I3        1.0  0.99182  0.53708  0.79022  1.0000 -0.431026865
I   I4        1.0  0.46292  0.00818  0.29022  1.0000 -0.431026865
I   I5        1.0  0.67880  0.62624  0.62988  1.0000 -0.431026865
I   I6        1.0  0.37376  0.32120  0.12988  1.0000 -0.431026865
I   I7        1.0  0.86888  0.62986  0.55567  1.0000 -0.4384752179
I   I8        1.0  0.37014  0.13112  0.05567  1.0000 -0.4384752179
I   I9        1.0  0.94755  0.24375  0.01126  1.0000 -0.4459697271
I   I10       1.0  0.75625  0.05245  0.51126  1.0000 -0.4459697271
I   I11       1.0  0.13720  0.34020  0.90293  1.0000 -0.464496691
I   I12       1.0  0.65980  0.86280  0.40293  1.0000 -0.464496691
I   I13       1.0  0.72805  0.96849  0.80427  1.0000 -0.431026865
I   I14       1.0  0.03151  0.27195  0.30427  1.0000 -0.4248458335
I   I15       1.0  0.53708  0.99182  0.70978  1.0000 -0.431026865
I   I16       1.0  0.00818  0.46292  0.20978  1.0000 -0.431026865
I   I17       1.0  0.62624  0.67880  0.87012  1.0000 -0.431026865
I   I18       1.0  0.32120  0.37376  0.37012  1.0000 -0.431026865
I   I19       1.0  0.62986  0.86888  0.94433  1.0000 -0.4384752179
I   I20       1.0  0.13112  0.37014  0.44433  1.0000 -0.4384752179
I   I21       1.0  0.24375  0.94755  0.48874  1.0000 -0.4459697271
I   I22       1.0  0.05245  0.75625  0.98874  1.0000 -0.4459697271
I   I23       1.0  0.34020  0.13720  0.59707  1.0000 -0.464496691
I   I24       1.0  0.86280  0.65980  0.09707  1.0000 -0.464496691
N   N1        1.0  0.68360  0.23740  0.76980  1.0000 -0.376042057
N   N2        1.0  0.76260  0.31640  0.26980  1.0000 -0.376042057
N   N3        1.0  0.51610  0.14930  0.74690  1.0000 -0.3983540549
N   N4        1.0  0.85070  0.48390  0.24690  1.0000 -0.3983540549
N   N5        1.0  0.55500  0.08720  0.80870  1.0000 -0.3983540549
N   N6        1.0  0.91280  0.44500  0.30870  1.0000 -0.3983540549
N   N7        1.0  0.87220  0.20920  0.89350  1.0000 -0.1901398684
N   N8        1.0  0.79080  0.12780  0.39350  1.0000 -0.1901398684
N   N9        1.0  0.69040  0.43980  0.63790  1.0000 -0.1814037303
N   N10       1.0  0.56020  0.30960  0.13790  1.0000 -0.1814037303
N   N11       1.0  0.18250  0.82110  0.77510  1.0000 -0.1814037303
N   N12       1.0  0.17890  0.81750  0.27510  1.0000 -0.1814037303
N   N13       1.0  0.89520  0.81580  0.91490  1.0000 -0.3983540549
N   N14       1.0  0.18420  0.10480  0.41490  1.0000 -0.3983540549
N   N15       1.0  0.79240  0.64400  0.93680  1.0000 -0.3929929251
N   N16       1.0  0.35600  0.20760  0.43680  1.0000 -0.3929929251
N   N17       1.0  0.79070  0.74290  0.97220  1.0000 -0.3929929251
N   N18       1.0  0.25710  0.20930  0.47220  1.0000 -0.3929929251
N   N19       1.0  0.92900  0.08960  0.94340  1.0000 -0.1901398684
N   N20       1.0  0.91040  0.07100  0.44340  1.0000 -0.1901398684
N   N21       1.0  0.98170  0.70910  0.81790  1.0000 -0.1814037303
N   N22       1.0  0.29090  0.01830  0.31790  1.0000 -0.1814037303
N   N23       1.0  0.54320  0.40340  0.04730  1.0000 -0.1901398684
N   N24       1.0  0.59660  0.45680  0.54730  1.0000 -0.1901398684
N   N25       1.0  0.23740  0.68360  0.73020  1.0000 -0.376042057
N   N26       1.0  0.31640  0.76260  0.23020  1.0000 -0.376042057
N   N27       1.0  0.14930  0.51610  0.75310  1.0000 -0.3983540549
N   N28       1.0  0.48390  0.85070  0.25310  1.0000 -0.3983540549
N   N29       1.0  0.08720  0.55500  0.69130  1.0000 -0.3983540549
N   N30       1.0  0.44500  0.91280  0.19130  1.0000 -0.3983540549
N   N31       1.0  0.20920  0.87220  0.60650  1.0000 -0.1901398684
N   N32       1.0  0.12780  0.79080  0.10650  1.0000 -0.1901398684
N   N33       1.0  0.43980  0.69040  0.86210  1.0000 -0.1814037303
N   N34       1.0  0.30960  0.56020  0.36210  1.0000 -0.1814037303
N   N35       1.0  0.82110  0.18250  0.72490  1.0000 -0.1814037303
N   N36       1.0  0.81750  0.17890  0.22490  1.0000 -0.1901398684
N   N37       1.0  0.81580  0.89520  0.58510  1.0000 -0.3983540549
N   N38       1.0  0.10480  0.18420  0.08510  1.0000 -0.3983540549
N   N39       1.0  0.64400  0.79240  0.56320  1.0000 -0.3929929251
N   N40       1.0  0.20760  0.35600  0.06320  1.0000 -0.3929929251
N   N41       1.0  0.74290  0.79070  0.52780  1.0000 -0.3929929251
N   N42       1.0  0.20930  0.25710  0.02780  1.0000 -0.3929929251
N   N43       1.0  0.08960  0.92900  0.55660  1.0000 -0.1901398684
N   N44       1.0  0.07100  0.91040  0.05660  1.0000 -0.1901398684
N   N45       1.0  0.70910  0.98170  0.68210  1.0000 -0.1814037303
N   N46       1.0  0.01830  0.29090  0.18210  1.0000 -0.1814037303
N   N47       1.0  0.40340  0.54320  0.45270  1.0000 -0.1901398684
N   N48       1.0  0.45680  0.59660  0.95270  1.0000 -0.1901398684
