# DDEC6 charges by PACMAN v1.1 (https://github.com/mtap-research/PACMAN-charge/)
data_2016[La][nan]3[ASR]4
_chemical_formula_sum              "La2 H18 C42 O12"
_cell_length_a       11.5106
_cell_length_b       11.5106
_cell_length_c       8.116
_cell_angle_alpha    88.1427
_cell_angle_beta     91.8573
_cell_angle_gamma    106.446

_symmetry_space_group_name_H-M    "P 1"
_symmetry_Int_Tables_number       1

loop_
  _symmetry_equiv_pos_as_xyz
  'x, y, z'

loop_
  _atom_site_type_symbol
  _atom_site_label
  _atom_site_symmetry_multiplicity
  _atom_site_fract_x
  _atom_site_fract_y
  _atom_site_fract_z
  _atom_site_occupancy
  _atom_site_charge
La  La1       1.0  0.98166  0.98416  0.74467  1.0000 1.8378539715
La  La2       1.0  0.01584  0.01834  0.24467  1.0000 1.8378539715
H   H1        1.0  0.85170  0.28610  0.37020  1.0000 0.127552982
H   H2        1.0  0.71390  0.14830  0.87020  1.0000 0.127552982
H   H3        1.0  0.90260  0.46460  0.30280  1.0000 0.1183260675
H   H4        1.0  0.53540  0.09740  0.80280  1.0000 0.1183260675
H   H5        1.0  0.97670  0.65830  0.20020  1.0000 0.127552982
H   H6        1.0  0.34170  0.02330  0.70020  1.0000 0.127552982
H   H7        1.0  0.66290  0.61990  0.94650  1.0000 0.1183260675
H   H8        1.0  0.38010  0.33710  0.44650  1.0000 0.1183260675
H   H9        1.0  0.48410  0.52530  0.91130  1.0000 0.1183260675
H   H10       1.0  0.47470  0.51590  0.41130  1.0000 0.1183260675
H   H11       1.0  0.29460  0.41080  0.84180  1.0000 0.127552982
H   H12       1.0  0.58920  0.70540  0.34180  1.0000 0.127552982
H   H13       1.0  0.34560  0.13160  0.11240  1.0000 0.1183260675
H   H14       1.0  0.86840  0.65440  0.61240  1.0000 0.1183260675
H   H15       1.0  0.45170  0.06530  0.27400  1.0000 0.1098758462
H   H16       1.0  0.93470  0.54830  0.77400  1.0000 0.1098758462
H   H17       1.0  0.57990  0.98190  0.43260  1.0000 0.127552982
H   H18       1.0  0.01810  0.42010  0.93260  1.0000 0.127552982
C   C1        1.0  0.81290  0.07290  0.51760  1.0000 0.5767779979
C   C2        1.0  0.92710  0.18710  0.01760  1.0000 0.5767779979
C   C3        1.0  0.72910  0.12610  0.41370  1.0000 -0.0121546867
C   C4        1.0  0.87390  0.27090  0.91370  1.0000 -0.0121546867
C   C5        1.0  0.77140  0.24260  0.34980  1.0000 -0.15048115
C   C6        1.0  0.75740  0.22860  0.84980  1.0000 -0.15048115
C   C7        1.0  0.69530  0.29710  0.25420  1.0000 0.029766176
C   C8        1.0  0.70290  0.30470  0.75420  1.0000 0.029766176
C   C9        1.0  0.73860  0.42100  0.19170  1.0000 0.029766176
C   C10       1.0  0.57900  0.26140  0.69170  1.0000 0.029766176
C   C11       1.0  0.85360  0.49560  0.23070  1.0000 -0.130067226
C   C12       1.0  0.50440  0.14640  0.73070  1.0000 -0.130067226
C   C13       1.0  0.89950  0.61150  0.16980  1.0000 -0.1089820233
C   C14       1.0  0.38850  0.10050  0.66980  1.0000 -0.1089820233
C   C15       1.0  0.82480  0.65740  0.05900  1.0000 -0.0289735426
C   C16       1.0  0.34260  0.17520  0.55900  1.0000 -0.0289735426
C   C17       1.0  0.87350  0.77910  0.97920  1.0000 0.5923424694
C   C18       1.0  0.22090  0.12650  0.47920  1.0000 0.5923424694
C   C19       1.0  0.71070  0.58830  0.01980  1.0000 -0.1398548301
C   C20       1.0  0.41170  0.28930  0.51980  1.0000 -0.1398548301
C   C21       1.0  0.66270  0.47050  0.08690  1.0000 0.029766176
C   C22       1.0  0.52950  0.33730  0.58690  1.0000 0.029766176
C   C23       1.0  0.53720  0.39980  0.05080  1.0000 0.029766176
C   C24       1.0  0.60020  0.46280  0.55080  1.0000 0.029766176
C   C25       1.0  0.45800  0.44560  0.95050  1.0000 -0.15048115
C   C26       1.0  0.55440  0.54200  0.45050  1.0000 -0.15048115
C   C27       1.0  0.34450  0.37750  0.90890  1.0000 -0.0907856417
C   C28       1.0  0.62250  0.65550  0.40890  1.0000 -0.0907856417
C   C29       1.0  0.30240  0.25700  0.96670  1.0000 -0.0121546867
C   C30       1.0  0.74300  0.69760  0.46670  1.0000 -0.0121546867
C   C31       1.0  0.18360  0.17560  0.90860  1.0000 0.5727654132
C   C32       1.0  0.82440  0.81640  0.40860  1.0000 0.5727654132
C   C33       1.0  0.37480  0.21020  0.07010  1.0000 -0.130067226
C   C34       1.0  0.78980  0.62520  0.57010  1.0000 -0.130067226
C   C35       1.0  0.49380  0.28020  0.11350  1.0000 0.029766176
C   C36       1.0  0.71980  0.50620  0.61350  1.0000 0.029766176
C   C37       1.0  0.57110  0.22570  0.21880  1.0000 0.029766176
C   C38       1.0  0.77430  0.42890  0.71880  1.0000 0.029766176
C   C39       1.0  0.53190  0.11030  0.29060  1.0000 -0.1398548301
C   C40       1.0  0.88970  0.46810  0.79060  1.0000 -0.1398548301
C   C41       1.0  0.60880  0.05960  0.38690  1.0000 -0.0955462981
C   C42       1.0  0.94040  0.39120  0.88690  1.0000 -0.0955462981
O   O1        1.0  0.92700  0.10720  0.48630  1.0000 -0.6591317918
O   O2        1.0  0.89280  0.07300  0.98630  1.0000 -0.6591317918
O   O3        1.0  0.77300  0.00020  0.63290  1.0000 -0.5379176107
O   O4        1.0  0.99980  0.22700  0.13290  1.0000 -0.5379176107
O   O5        1.0  0.96780  0.85320  0.03760  1.0000 -0.6591317918
O   O6        1.0  0.14680  0.03220  0.53760  1.0000 -0.6591317918
O   O7        1.0  0.81990  0.80470  0.85010  1.0000 -0.5661731925
O   O8        1.0  0.19530  0.18010  0.35010  1.0000 -0.5661731925
O   O9        1.0  0.12470  0.20850  0.79200  1.0000 -0.5539379087
O   O10       1.0  0.79150  0.87530  0.29200  1.0000 -0.5539379087
O   O11       1.0  0.14400  0.07000  0.97940  1.0000 -0.6860333648
O   O12       1.0  0.93000  0.85600  0.47940  1.0000 -0.6860333648
