# DDEC6 charges by PACMAN v1.1 (https://github.com/mtap-research/PACMAN-charge/)
data_2016[Co][nan]3[ASR]5
_chemical_formula_sum              "Co6 H16 C28 N12 O12"
_cell_length_a       10.9502
_cell_length_b       10.9502
_cell_length_c       11.2254
_cell_angle_alpha    85.7957
_cell_angle_beta     94.2043
_cell_angle_gamma    108.587

_symmetry_space_group_name_H-M    "P 1"
_symmetry_Int_Tables_number       1

loop_
  _symmetry_equiv_pos_as_xyz
  'x, y, z'

loop_
  _atom_site_type_symbol
  _atom_site_label
  _atom_site_symmetry_multiplicity
  _atom_site_fract_x
  _atom_site_fract_y
  _atom_site_fract_z
  _atom_site_occupancy
  _atom_site_charge
Co  Co1       1.0  0.90536  0.90536  0.75000  1.0000 0.9289692372
Co  Co2       1.0  0.09464  0.09464  0.25000  1.0000 0.9289692372
Co  Co3       1.0  0.02098  0.86270  0.50014  1.0000 0.856313023
Co  Co4       1.0  0.86270  0.02098  0.99986  1.0000 0.856313023
Co  Co5       1.0  0.97902  0.13730  0.49986  1.0000 0.856313023
Co  Co6       1.0  0.13730  0.97902  0.00014  1.0000 0.856313023
H   H1        1.0  0.34990  0.87550  0.52020  1.0000 0.1379059583
H   H2        1.0  0.87550  0.34990  0.97980  1.0000 0.1379059583
H   H3        1.0  0.65010  0.12450  0.47980  1.0000 0.1379059583
H   H4        1.0  0.12450  0.65010  0.02020  1.0000 0.1379059583
H   H5        1.0  0.54540  0.87800  0.61070  1.0000 0.1199512195
H   H6        1.0  0.87800  0.54540  0.88930  1.0000 0.1199512195
H   H7        1.0  0.45460  0.12200  0.38930  1.0000 0.1199512195
H   H8        1.0  0.12200  0.45460  0.11070  1.0000 0.1199512195
H   H9        1.0  0.43740  0.93820  0.93310  1.0000 0.1379059583
H   H10       1.0  0.93820  0.43740  0.56690  1.0000 0.1379059583
H   H11       1.0  0.56260  0.06180  0.06690  1.0000 0.1379059583
H   H12       1.0  0.06180  0.56260  0.43310  1.0000 0.1379059583
H   H13       1.0  0.81500  0.90700  0.53500  1.0000 0.3935029537
H   H14       1.0  0.90700  0.81500  0.96500  1.0000 0.3935029537
H   H15       1.0  0.18500  0.09300  0.46500  1.0000 0.3935029537
H   H16       1.0  0.09300  0.18500  0.03500  1.0000 0.3935029537
C   C1        1.0  0.30100  0.92500  0.79540  1.0000 0.1315091357
C   C2        1.0  0.92500  0.30100  0.70460  1.0000 0.1315091357
C   C3        1.0  0.69900  0.07500  0.20460  1.0000 0.1315091357
C   C4        1.0  0.07500  0.69900  0.29540  1.0000 0.1315091357
C   C5        1.0  0.27540  0.90480  0.67260  1.0000 0.1199512195
C   C6        1.0  0.90480  0.27540  0.82740  1.0000 0.1199512195
C   C7        1.0  0.72460  0.09520  0.32740  1.0000 0.1199512195
C   C8        1.0  0.09520  0.72460  0.17260  1.0000 0.1199512195
C   C9        1.0  0.36710  0.88770  0.60160  1.0000 -0.1694789704
C   C10       1.0  0.88770  0.36710  0.89840  1.0000 -0.1694789704
C   C11       1.0  0.63290  0.11230  0.39840  1.0000 -0.1694789704
C   C12       1.0  0.11230  0.63290  0.10160  1.0000 -0.1694789704
C   C13       1.0  0.48270  0.88970  0.65610  1.0000 -0.1187758807
C   C14       1.0  0.88970  0.48270  0.84390  1.0000 -0.1187758807
C   C15       1.0  0.51730  0.11030  0.34390  1.0000 -0.1187758807
C   C16       1.0  0.11030  0.51730  0.15610  1.0000 -0.1187758807
C   C17       1.0  0.51070  0.90890  0.78050  1.0000 -0.0148336801
C   C18       1.0  0.90890  0.51070  0.71950  1.0000 -0.0148336801
C   C19       1.0  0.48930  0.09110  0.21950  1.0000 -0.0155274894
C   C20       1.0  0.09110  0.48930  0.28050  1.0000 -0.0148336801
C   C21       1.0  0.42010  0.92630  0.85170  1.0000 -0.1694789704
C   C22       1.0  0.92630  0.42010  0.64830  1.0000 -0.1694789704
C   C23       1.0  0.57990  0.07370  0.14830  1.0000 -0.1694789704
C   C24       1.0  0.07370  0.57990  0.35170  1.0000 -0.1694789704
C   C25       1.0  0.64240  0.91020  0.83130  1.0000 0.5865156382
C   C26       1.0  0.91020  0.64240  0.66870  1.0000 0.5865156382
C   C27       1.0  0.35760  0.08980  0.16870  1.0000 0.5865156382
C   C28       1.0  0.08980  0.35760  0.33130  1.0000 0.5865156382
N   N1        1.0  0.19180  0.93820  0.83830  1.0000 -0.2515562221
N   N2        1.0  0.93820  0.19180  0.66170  1.0000 -0.2515562221
N   N3        1.0  0.80820  0.06180  0.16170  1.0000 -0.2515562221
N   N4        1.0  0.06180  0.80820  0.33830  1.0000 -0.2515562221
N   N5        1.0  0.10640  0.92740  0.74440  1.0000 -0.0336836891
N   N6        1.0  0.92740  0.10640  0.75560  1.0000 -0.0336836891
N   N7        1.0  0.89360  0.07260  0.25560  1.0000 -0.0336836891
N   N8        1.0  0.07260  0.89360  0.24440  1.0000 -0.0336836891
N   N9        1.0  0.15310  0.90670  0.64520  1.0000 -0.2399617403
N   N10       1.0  0.90670  0.15310  0.85480  1.0000 -0.2399617403
N   N11       1.0  0.84690  0.09330  0.35480  1.0000 -0.2399617403
N   N12       1.0  0.09330  0.84690  0.14520  1.0000 -0.2399617403
O   O1        1.0  0.89999  0.94021  0.56780  1.0000 -0.8401236206
O   O2        1.0  0.94021  0.89999  0.93220  1.0000 -0.8401236206
O   O3        1.0  0.10001  0.05979  0.43220  1.0000 -0.8401236206
O   O4        1.0  0.05979  0.10001  0.06780  1.0000 -0.8401236206
O   O5        1.0  0.67549  0.94931  0.93610  1.0000 -0.5605276048
O   O6        1.0  0.94931  0.67549  0.56390  1.0000 -0.5605276048
O   O7        1.0  0.32451  0.05069  0.06390  1.0000 -0.5605276048
O   O8        1.0  0.05069  0.32451  0.43610  1.0000 -0.5605276048
O   O9        1.0  0.70872  0.87188  0.76540  1.0000 -0.5494458943
O   O10       1.0  0.87188  0.70872  0.73460  1.0000 -0.5494458943
O   O11       1.0  0.29128  0.12812  0.23460  1.0000 -0.5494458943
O   O12       1.0  0.12812  0.29128  0.26540  1.0000 -0.5494458943
