# DDEC6 charges by PACMAN v1.1 (https://github.com/mtap-research/PACMAN-charge/)
data_2016[Cd][dia]3[ASR]4
_chemical_formula_sum              "Cd4 H48 C64 N8 O16"
_cell_length_a       12.243
_cell_length_b       13.209
_cell_length_c       13.926
_cell_angle_alpha    90
_cell_angle_beta     90
_cell_angle_gamma    90

_symmetry_space_group_name_H-M    "P 1"
_symmetry_Int_Tables_number       1

loop_
  _symmetry_equiv_pos_as_xyz
  'x, y, z'

loop_
  _atom_site_type_symbol
  _atom_site_label
  _atom_site_symmetry_multiplicity
  _atom_site_fract_x
  _atom_site_fract_y
  _atom_site_fract_z
  _atom_site_occupancy
  _atom_site_charge
Cd  Cd1       1.0  0.22082  0.25000  0.50000  1.0000 0.7861601029
Cd  Cd2       1.0  0.72082  0.75000  0.00000  1.0000 0.7861601029
Cd  Cd3       1.0  0.27918  0.25000  0.00000  1.0000 0.7861601029
Cd  Cd4       1.0  0.77918  0.75000  0.50000  1.0000 0.7861601029
H   H1        1.0  0.45900  0.51630  0.41010  1.0000 0.1366705958
H   H2        1.0  0.45900  0.98370  0.58990  1.0000 0.1366705958
H   H3        1.0  0.95900  0.48370  0.91010  1.0000 0.1366705958
H   H4        1.0  0.95900  0.01630  0.08990  1.0000 0.1366705958
H   H5        1.0  0.34970  0.45200  0.25050  1.0000 0.1209544454
H   H6        1.0  0.34970  0.04800  0.74950  1.0000 0.1209544454
H   H7        1.0  0.84970  0.54800  0.75050  1.0000 0.1209544454
H   H8        1.0  0.84970  0.95200  0.24950  1.0000 0.1209544454
H   H9        1.0  0.56010  0.62740  0.32430  1.0000 0.1453959708
H   H10       1.0  0.56010  0.87260  0.67570  1.0000 0.1453959708
H   H11       1.0  0.06010  0.37260  0.82430  1.0000 0.1453959708
H   H12       1.0  0.06010  0.12740  0.17570  1.0000 0.1453959708
H   H13       1.0  0.65930  0.72550  0.22120  1.0000 0.1090628867
H   H14       1.0  0.65930  0.77450  0.77880  1.0000 0.1090628867
H   H15       1.0  0.15930  0.27450  0.72120  1.0000 0.1090628867
H   H16       1.0  0.15930  0.22550  0.27880  1.0000 0.1090628867
H   H17       1.0  0.49820  0.62350  0.00120  1.0000 0.0982005493
H   H18       1.0  0.49820  0.87650  0.99880  1.0000 0.0982005493
H   H19       1.0  0.99820  0.37650  0.50120  1.0000 0.0982005493
H   H20       1.0  0.99820  0.12350  0.49880  1.0000 0.0982005493
H   H21       1.0  0.39340  0.52340  0.09770  1.0000 0.1338365291
H   H22       1.0  0.39340  0.97660  0.90230  1.0000 0.1338365291
H   H23       1.0  0.89340  0.47660  0.59770  1.0000 0.1338365291
H   H24       1.0  0.89340  0.02340  0.40230  1.0000 0.1338365291
H   H25       1.0  0.04100  0.51630  0.08990  1.0000 0.1366705958
H   H26       1.0  0.04100  0.98370  0.91010  1.0000 0.1366705958
H   H27       1.0  0.54100  0.48370  0.58990  1.0000 0.1366705958
H   H28       1.0  0.54100  0.01630  0.41010  1.0000 0.1366705958
H   H29       1.0  0.15030  0.45200  0.24950  1.0000 0.1209544454
H   H30       1.0  0.15030  0.04800  0.75050  1.0000 0.1209544454
H   H31       1.0  0.65030  0.54800  0.74950  1.0000 0.1209544454
H   H32       1.0  0.65030  0.95200  0.25050  1.0000 0.1209544454
H   H33       1.0  0.93990  0.62740  0.17570  1.0000 0.1453959708
H   H34       1.0  0.93990  0.87260  0.82430  1.0000 0.1453959708
H   H35       1.0  0.43990  0.37260  0.67570  1.0000 0.1453959708
H   H36       1.0  0.43990  0.12740  0.32430  1.0000 0.1453959708
H   H37       1.0  0.84070  0.72550  0.27880  1.0000 0.1090628867
H   H38       1.0  0.84070  0.77450  0.72120  1.0000 0.1090628867
H   H39       1.0  0.34070  0.27450  0.77880  1.0000 0.1090628867
H   H40       1.0  0.34070  0.22550  0.22120  1.0000 0.1090628867
H   H41       1.0  0.00180  0.62350  0.49880  1.0000 0.0982005493
H   H42       1.0  0.00180  0.87650  0.50120  1.0000 0.0982005493
H   H43       1.0  0.50180  0.37650  0.99880  1.0000 0.0982005493
H   H44       1.0  0.50180  0.12350  0.00120  1.0000 0.0982005493
H   H45       1.0  0.10660  0.52340  0.40230  1.0000 0.1338365291
H   H46       1.0  0.10660  0.97660  0.59770  1.0000 0.1338365291
H   H47       1.0  0.60660  0.47660  0.90230  1.0000 0.1338365291
H   H48       1.0  0.60660  0.02340  0.09770  1.0000 0.1338365291
C   C1        1.0  0.34270  0.40060  0.42660  1.0000 0.5876102362
C   C2        1.0  0.34270  0.09940  0.57340  1.0000 0.5876102362
C   C3        1.0  0.84270  0.59940  0.92660  1.0000 0.5876102362
C   C4        1.0  0.84270  0.90060  0.07340  1.0000 0.5876102362
C   C5        1.0  0.41000  0.47690  0.37530  1.0000 -0.2013898093
C   C6        1.0  0.41000  0.02310  0.62470  1.0000 -0.2013898093
C   C7        1.0  0.91000  0.52310  0.87530  1.0000 -0.2013898093
C   C8        1.0  0.91000  0.97690  0.12470  1.0000 -0.2013898093
C   C9        1.0  0.40220  0.49030  0.28220  1.0000 -0.1061244673
C   C10       1.0  0.40220  0.00970  0.71780  1.0000 -0.1061244673
C   C11       1.0  0.90220  0.50970  0.78220  1.0000 -0.1061244673
C   C12       1.0  0.90220  0.99030  0.21780  1.0000 -0.1061244673
C   C13       1.0  0.46740  0.55920  0.22300  1.0000 0.159957162
C   C14       1.0  0.46740  0.94080  0.77700  1.0000 0.159957162
C   C15       1.0  0.96740  0.44080  0.72300  1.0000 0.159957162
C   C16       1.0  0.96740  0.05920  0.27700  1.0000 0.159957162
C   C17       1.0  0.54710  0.62370  0.25860  1.0000 -0.1753709401
C   C18       1.0  0.54710  0.87630  0.74140  1.0000 -0.1753709401
C   C19       1.0  0.04710  0.37630  0.75860  1.0000 -0.1753709401
C   C20       1.0  0.04710  0.12370  0.24140  1.0000 -0.1753709401
C   C21       1.0  0.60680  0.68210  0.19590  1.0000 0.0837433551
C   C22       1.0  0.60680  0.81790  0.80410  1.0000 0.0837433551
C   C23       1.0  0.10680  0.31790  0.69590  1.0000 0.0837433551
C   C24       1.0  0.10680  0.18210  0.30410  1.0000 0.0837433551
C   C25       1.0  0.51230  0.62250  0.06680  1.0000 0.0615496029
C   C26       1.0  0.51230  0.87750  0.93320  1.0000 0.0615496029
C   C27       1.0  0.01230  0.37750  0.56680  1.0000 0.0615496029
C   C28       1.0  0.01230  0.12250  0.43320  1.0000 0.0615496029
C   C29       1.0  0.44890  0.56230  0.12450  1.0000 -0.2013898093
C   C30       1.0  0.44890  0.93770  0.87550  1.0000 -0.2013898093
C   C31       1.0  0.94890  0.43770  0.62450  1.0000 -0.2013898093
C   C32       1.0  0.94890  0.06230  0.37550  1.0000 -0.2013898093
C   C33       1.0  0.15730  0.40060  0.07340  1.0000 0.5876102362
C   C34       1.0  0.15730  0.09940  0.92660  1.0000 0.5876102362
C   C35       1.0  0.65730  0.59940  0.57340  1.0000 0.5876102362
C   C36       1.0  0.65730  0.90060  0.42660  1.0000 0.5876102362
C   C37       1.0  0.09000  0.47690  0.12470  1.0000 -0.2013898093
C   C38       1.0  0.09000  0.02310  0.87530  1.0000 -0.2013898093
C   C39       1.0  0.59000  0.52310  0.62470  1.0000 -0.2013898093
C   C40       1.0  0.59000  0.97690  0.37530  1.0000 -0.2013898093
C   C41       1.0  0.09780  0.49030  0.21780  1.0000 -0.1061244673
C   C42       1.0  0.09780  0.00970  0.78220  1.0000 -0.1061244673
C   C43       1.0  0.59780  0.50970  0.71780  1.0000 -0.1061244673
C   C44       1.0  0.59780  0.99030  0.28220  1.0000 -0.1061244673
C   C45       1.0  0.03260  0.55920  0.27700  1.0000 0.159957162
C   C46       1.0  0.03260  0.94080  0.72300  1.0000 0.159957162
C   C47       1.0  0.53260  0.44080  0.77700  1.0000 0.159957162
C   C48       1.0  0.53260  0.05920  0.22300  1.0000 0.159957162
C   C49       1.0  0.95290  0.62370  0.24140  1.0000 -0.1753709401
C   C50       1.0  0.95290  0.87630  0.75860  1.0000 -0.1753709401
C   C51       1.0  0.45290  0.37630  0.74140  1.0000 -0.1753709401
C   C52       1.0  0.45290  0.12370  0.25860  1.0000 -0.1753709401
C   C53       1.0  0.89320  0.68210  0.30410  1.0000 0.0837433551
C   C54       1.0  0.89320  0.81790  0.69590  1.0000 0.0837433551
C   C55       1.0  0.39320  0.31790  0.80410  1.0000 0.0837433551
C   C56       1.0  0.39320  0.18210  0.19590  1.0000 0.0837433551
C   C57       1.0  0.98770  0.62250  0.43320  1.0000 0.0615496029
C   C58       1.0  0.98770  0.87750  0.56680  1.0000 0.0615496029
C   C59       1.0  0.48770  0.37750  0.93320  1.0000 0.0615496029
C   C60       1.0  0.48770  0.12250  0.06680  1.0000 0.0615496029
C   C61       1.0  0.05110  0.56230  0.37550  1.0000 -0.2013898093
C   C62       1.0  0.05110  0.93770  0.62450  1.0000 -0.2013898093
C   C63       1.0  0.55110  0.43770  0.87550  1.0000 -0.2013898093
C   C64       1.0  0.55110  0.06230  0.12450  1.0000 -0.2013898093
N   N1        1.0  0.59340  0.68000  0.10082  1.0000 -0.2475201871
N   N2        1.0  0.59340  0.82000  0.89918  1.0000 -0.2475201871
N   N3        1.0  0.09340  0.32000  0.60082  1.0000 -0.2475201871
N   N4        1.0  0.09340  0.18000  0.39918  1.0000 -0.2475201871
N   N5        1.0  0.90660  0.68000  0.39918  1.0000 -0.2475201871
N   N6        1.0  0.90660  0.82000  0.60082  1.0000 -0.2475201871
N   N7        1.0  0.40660  0.32000  0.89918  1.0000 -0.2475201871
N   N8        1.0  0.40660  0.18000  0.10082  1.0000 -0.2475201871
O   O1        1.0  0.27000  0.35460  0.38019  1.0000 -0.5491330858
O   O2        1.0  0.27000  0.14540  0.61981  1.0000 -0.5491330858
O   O3        1.0  0.77000  0.64540  0.88019  1.0000 -0.5491330858
O   O4        1.0  0.77000  0.85460  0.11981  1.0000 -0.5491330858
O   O5        1.0  0.36090  0.38210  0.51245  1.0000 -0.5491330858
O   O6        1.0  0.36090  0.11790  0.48755  1.0000 -0.5491330858
O   O7        1.0  0.86090  0.61790  0.01245  1.0000 -0.5491330858
O   O8        1.0  0.86090  0.88210  0.98755  1.0000 -0.5491330858
O   O9        1.0  0.23000  0.35460  0.11981  1.0000 -0.5491330858
O   O10       1.0  0.23000  0.14540  0.88019  1.0000 -0.5491330858
O   O11       1.0  0.73000  0.64540  0.61981  1.0000 -0.5491330858
O   O12       1.0  0.73000  0.85460  0.38019  1.0000 -0.5491330858
O   O13       1.0  0.13910  0.38210  0.98755  1.0000 -0.5491330858
O   O14       1.0  0.13910  0.11790  0.01245  1.0000 -0.5491330858
O   O15       1.0  0.63910  0.61790  0.48755  1.0000 -0.5491330858
O   O16       1.0  0.63910  0.88210  0.51245  1.0000 -0.5491330858
