# DDEC6 charges by PACMAN v1.1 (https://github.com/mtap-research/PACMAN-charge/)
data_2016[CuV][pcu]3[ASR]1
_chemical_formula_sum              "V2 Cu2 H16 C16 N8 F12"
_cell_length_a       9.7325
_cell_length_b       9.7325
_cell_length_c       8.2154
_cell_angle_alpha    90
_cell_angle_beta     90
_cell_angle_gamma    90

_symmetry_space_group_name_H-M    "P 1"
_symmetry_Int_Tables_number       1

loop_
  _symmetry_equiv_pos_as_xyz
  'x, y, z'

loop_
  _atom_site_type_symbol
  _atom_site_label
  _atom_site_symmetry_multiplicity
  _atom_site_fract_x
  _atom_site_fract_y
  _atom_site_fract_z
  _atom_site_occupancy
  _atom_site_charge
V   V1        1.0  0.00000  0.00000  0.50000  1.0000 2.0320801341
V   V2        1.0  0.50000  0.50000  0.50000  1.0000 2.0320801341
Cu  Cu1       1.0  0.00000  0.00000  0.00000  1.0000 0.6939709389
Cu  Cu2       1.0  0.50000  0.50000  0.00000  1.0000 0.6939709389
H   H1        1.0  0.76890  0.89960  0.21340  1.0000 0.1500241176
H   H2        1.0  0.23110  0.10040  0.21340  1.0000 0.1500241176
H   H3        1.0  0.89960  0.23110  0.21340  1.0000 0.1500241176
H   H4        1.0  0.10040  0.76890  0.21340  1.0000 0.1500241176
H   H5        1.0  0.76890  0.10040  0.78660  1.0000 0.1500241176
H   H6        1.0  0.23110  0.89960  0.78660  1.0000 0.1500241176
H   H7        1.0  0.89960  0.76890  0.78660  1.0000 0.1500241176
H   H8        1.0  0.10040  0.23110  0.78660  1.0000 0.1500241176
H   H9        1.0  0.73110  0.60040  0.78660  1.0000 0.1500241176
H   H10       1.0  0.26890  0.39960  0.78660  1.0000 0.1500241176
H   H11       1.0  0.60040  0.26890  0.78660  1.0000 0.1500241176
H   H12       1.0  0.39960  0.73110  0.78660  1.0000 0.1500241176
H   H13       1.0  0.73110  0.39960  0.21340  1.0000 0.1500241176
H   H14       1.0  0.26890  0.60040  0.21340  1.0000 0.1500241176
H   H15       1.0  0.60040  0.73110  0.21340  1.0000 0.1500241176
H   H16       1.0  0.39960  0.26890  0.21340  1.0000 0.1500241176
C   C1        1.0  0.76257  0.83832  0.12365  1.0000 0.061512442
C   C2        1.0  0.23743  0.16168  0.12365  1.0000 0.061512442
C   C3        1.0  0.83832  0.23743  0.12365  1.0000 0.061512442
C   C4        1.0  0.16168  0.76257  0.12365  1.0000 0.061512442
C   C5        1.0  0.76257  0.16168  0.87635  1.0000 0.061512442
C   C6        1.0  0.23743  0.83832  0.87635  1.0000 0.061512442
C   C7        1.0  0.83832  0.76257  0.87635  1.0000 0.061512442
C   C8        1.0  0.16168  0.23743  0.87635  1.0000 0.061512442
C   C9        1.0  0.73743  0.66168  0.87635  1.0000 0.061512442
C   C10       1.0  0.26257  0.33832  0.87635  1.0000 0.061512442
C   C11       1.0  0.66168  0.26257  0.87635  1.0000 0.061512442
C   C12       1.0  0.33832  0.73743  0.87635  1.0000 0.061512442
C   C13       1.0  0.73743  0.33832  0.12365  1.0000 0.061512442
C   C14       1.0  0.26257  0.66168  0.12365  1.0000 0.061512442
C   C15       1.0  0.66168  0.73743  0.12365  1.0000 0.061512442
C   C16       1.0  0.33832  0.26257  0.12365  1.0000 0.061512442
N   N1        1.0  0.85103  0.85103  0.00000  1.0000 -0.1723974145
N   N2        1.0  0.14897  0.14897  0.00000  1.0000 -0.1723974145
N   N3        1.0  0.85103  0.14897  0.00000  1.0000 -0.1723974145
N   N4        1.0  0.14897  0.85103  0.00000  1.0000 -0.1723974145
N   N5        1.0  0.64897  0.64897  0.00000  1.0000 -0.1723974145
N   N6        1.0  0.35103  0.35103  0.00000  1.0000 -0.1723974145
N   N7        1.0  0.64897  0.35103  0.00000  1.0000 -0.1723974145
N   N8        1.0  0.35103  0.64897  0.00000  1.0000 -0.1723974145
F   F1        1.0  0.00000  0.00000  0.27240  1.0000 -0.6082945115
F   F2        1.0  0.00000  0.00000  0.72760  1.0000 -0.6082945115
F   F3        1.0  0.50000  0.50000  0.72760  1.0000 -0.6082945115
F   F4        1.0  0.50000  0.50000  0.27240  1.0000 -0.6082945115
F   F5        1.0  0.00000  0.19800  0.50000  1.0000 -0.6280412174
F   F6        1.0  0.00000  0.80200  0.50000  1.0000 -0.6280412174
F   F7        1.0  0.19800  0.00000  0.50000  1.0000 -0.6280412174
F   F8        1.0  0.80200  0.00000  0.50000  1.0000 -0.6280412174
F   F9        1.0  0.50000  0.30200  0.50000  1.0000 -0.6280412174
F   F10       1.0  0.50000  0.69800  0.50000  1.0000 -0.6280412174
F   F11       1.0  0.30200  0.50000  0.50000  1.0000 -0.6280412174
F   F12       1.0  0.69800  0.50000  0.50000  1.0000 -0.6280412174
