# DDEC6 charges by PACMAN v1.1 (https://github.com/mtap-research/PACMAN-charge/)
data_2016[Cu][nbo]3[ASR]38
_chemical_formula_sum              "Cu6 H90 C132 O30"
_cell_length_a       21.5406
_cell_length_b       21.5406
_cell_length_c       21.5406
_cell_angle_alpha    109.951
_cell_angle_beta     109.951
_cell_angle_gamma    109.951

_symmetry_space_group_name_H-M    "P 1"
_symmetry_Int_Tables_number       1

loop_
  _symmetry_equiv_pos_as_xyz
  'x, y, z'

loop_
  _atom_site_type_symbol
  _atom_site_label
  _atom_site_symmetry_multiplicity
  _atom_site_fract_x
  _atom_site_fract_y
  _atom_site_fract_z
  _atom_site_occupancy
  _atom_site_charge
Cu  Cu1       1.0  0.42654  0.94946  0.94946  1.0000 0.8619824477
Cu  Cu2       1.0  0.94946  0.94946  0.42654  1.0000 0.8619824477
Cu  Cu3       1.0  0.94946  0.42654  0.94946  1.0000 0.8619824477
Cu  Cu4       1.0  0.05054  0.57346  0.05054  1.0000 0.8619824477
Cu  Cu5       1.0  0.05054  0.05054  0.57346  1.0000 0.8619824477
Cu  Cu6       1.0  0.57346  0.05054  0.05054  1.0000 0.8619824477
H   H1        1.0  0.65630  0.06940  0.89640  1.0000 0.1279580397
H   H2        1.0  0.06940  0.89640  0.65630  1.0000 0.1279580397
H   H3        1.0  0.89640  0.65630  0.06940  1.0000 0.1279580397
H   H4        1.0  0.93060  0.34370  0.10360  1.0000 0.1279580397
H   H5        1.0  0.10360  0.93060  0.34370  1.0000 0.1279580397
H   H6        1.0  0.34370  0.10360  0.93060  1.0000 0.1279580397
H   H7        1.0  0.34370  0.93060  0.10360  1.0000 0.1279580397
H   H8        1.0  0.93060  0.10360  0.34370  1.0000 0.1279580397
H   H9        1.0  0.10360  0.34370  0.93060  1.0000 0.1279580397
H   H10       1.0  0.06940  0.65630  0.89640  1.0000 0.1279580397
H   H11       1.0  0.89640  0.06940  0.65630  1.0000 0.1279580397
H   H12       1.0  0.65630  0.89640  0.06940  1.0000 0.1279580397
H   H13       1.0  0.67600  0.06350  0.79440  1.0000 0.1279580397
H   H14       1.0  0.06350  0.79440  0.67600  1.0000 0.1279580397
H   H15       1.0  0.79440  0.67600  0.06350  1.0000 0.1279580397
H   H16       1.0  0.93650  0.32400  0.20560  1.0000 0.1279580397
H   H17       1.0  0.20560  0.93650  0.32400  1.0000 0.1279580397
H   H18       1.0  0.32400  0.20560  0.93650  1.0000 0.1279580397
H   H19       1.0  0.32400  0.93650  0.20560  1.0000 0.1279580397
H   H20       1.0  0.93650  0.20560  0.32400  1.0000 0.1279580397
H   H21       1.0  0.20560  0.32400  0.93650  1.0000 0.1279580397
H   H22       1.0  0.06350  0.67600  0.79440  1.0000 0.1279580397
H   H23       1.0  0.79440  0.06350  0.67600  1.0000 0.1279580397
H   H24       1.0  0.67600  0.79440  0.06350  1.0000 0.1279580397
H   H25       1.0  0.44920  0.91020  0.64200  1.0000 0.1150085705
H   H26       1.0  0.91020  0.64200  0.44920  1.0000 0.1150085705
H   H27       1.0  0.64200  0.44920  0.91020  1.0000 0.1150085705
H   H28       1.0  0.08980  0.55080  0.35800  1.0000 0.1150085705
H   H29       1.0  0.35800  0.08980  0.55080  1.0000 0.1150085705
H   H30       1.0  0.55080  0.35800  0.08980  1.0000 0.1150085705
H   H31       1.0  0.55080  0.08980  0.35800  1.0000 0.1150085705
H   H32       1.0  0.08980  0.35800  0.55080  1.0000 0.1150085705
H   H33       1.0  0.35800  0.55080  0.08980  1.0000 0.1150085705
H   H34       1.0  0.91020  0.44920  0.64200  1.0000 0.1150085705
H   H35       1.0  0.64200  0.91020  0.44920  1.0000 0.1150085705
H   H36       1.0  0.44920  0.64200  0.91020  1.0000 0.1150085705
H   H37       1.0  0.42920  0.91390  0.74290  1.0000 0.1279580397
H   H38       1.0  0.91390  0.74290  0.42920  1.0000 0.1279580397
H   H39       1.0  0.74290  0.42920  0.91390  1.0000 0.1279580397
H   H40       1.0  0.08610  0.57080  0.25710  1.0000 0.1279580397
H   H41       1.0  0.25710  0.08610  0.57080  1.0000 0.1279580397
H   H42       1.0  0.57080  0.25710  0.08610  1.0000 0.1279580397
H   H43       1.0  0.57080  0.08610  0.25710  1.0000 0.1279580397
H   H44       1.0  0.08610  0.25710  0.57080  1.0000 0.1279580397
H   H45       1.0  0.25710  0.57080  0.08610  1.0000 0.1279580397
H   H46       1.0  0.91390  0.42920  0.74290  1.0000 0.1279580397
H   H47       1.0  0.74290  0.91390  0.42920  1.0000 0.1279580397
H   H48       1.0  0.42920  0.74290  0.91390  1.0000 0.1279580397
H   H49       1.0  0.48020  0.99440  0.59430  1.0000 0.111120822
H   H50       1.0  0.99440  0.59430  0.48020  1.0000 0.111120822
H   H51       1.0  0.59430  0.48020  0.99440  1.0000 0.111120822
H   H52       1.0  0.00560  0.51980  0.40570  1.0000 0.111120822
H   H53       1.0  0.40570  0.00560  0.51980  1.0000 0.111120822
H   H54       1.0  0.51980  0.40570  0.00560  1.0000 0.111120822
H   H55       1.0  0.51980  0.00560  0.40570  1.0000 0.111120822
H   H56       1.0  0.00560  0.40570  0.51980  1.0000 0.111120822
H   H57       1.0  0.40570  0.51980  0.00560  1.0000 0.111120822
H   H58       1.0  0.99440  0.48020  0.59430  1.0000 0.111120822
H   H59       1.0  0.59430  0.99440  0.48020  1.0000 0.111120822
H   H60       1.0  0.48020  0.59430  0.99440  1.0000 0.111120822
H   H61       1.0  0.62290  0.87760  0.66830  1.0000 0.0779078351
H   H62       1.0  0.87760  0.66830  0.62290  1.0000 0.0779078351
H   H63       1.0  0.66830  0.62290  0.87760  1.0000 0.0779078351
H   H64       1.0  0.12240  0.37710  0.33170  1.0000 0.0779078351
H   H65       1.0  0.33170  0.12240  0.37710  1.0000 0.0779078351
H   H66       1.0  0.37710  0.33170  0.12240  1.0000 0.0779078351
H   H67       1.0  0.37710  0.12240  0.33170  1.0000 0.0779078351
H   H68       1.0  0.12240  0.33170  0.37710  1.0000 0.0779078351
H   H69       1.0  0.33170  0.37710  0.12240  1.0000 0.0779078351
H   H70       1.0  0.87760  0.62290  0.66830  1.0000 0.0779078351
H   H71       1.0  0.66830  0.87760  0.62290  1.0000 0.0779078351
H   H72       1.0  0.62290  0.66830  0.87760  1.0000 0.0779078351
H   H73       1.0  0.72465  0.85990  0.72465  1.0000 0.111120822
H   H74       1.0  0.85990  0.72465  0.72465  1.0000 0.111120822
H   H75       1.0  0.72465  0.72465  0.85990  1.0000 0.111120822
H   H76       1.0  0.14010  0.27535  0.27535  1.0000 0.111120822
H   H77       1.0  0.27535  0.14010  0.27535  1.0000 0.111120822
H   H78       1.0  0.27535  0.27535  0.14010  1.0000 0.111120822
H   H79       1.0  0.78490  0.93980  0.73960  1.0000 0.111120822
H   H80       1.0  0.93980  0.73960  0.78490  1.0000 0.111120822
H   H81       1.0  0.73960  0.78490  0.93980  1.0000 0.111120822
H   H82       1.0  0.06020  0.21510  0.26040  1.0000 0.111120822
H   H83       1.0  0.26040  0.06020  0.21510  1.0000 0.111120822
H   H84       1.0  0.21510  0.26040  0.06020  1.0000 0.111120822
H   H85       1.0  0.21510  0.06020  0.26040  1.0000 0.111120822
H   H86       1.0  0.06020  0.26040  0.21510  1.0000 0.111120822
H   H87       1.0  0.26040  0.21510  0.06020  1.0000 0.111120822
H   H88       1.0  0.93980  0.78490  0.73960  1.0000 0.111120822
H   H89       1.0  0.73960  0.93980  0.78490  1.0000 0.111120822
H   H90       1.0  0.78490  0.73960  0.93980  1.0000 0.111120822
C   C1        1.0  0.52704  0.99531  0.89446  1.0000 0.5821294167
C   C2        1.0  0.99531  0.89446  0.52704  1.0000 0.5821294167
C   C3        1.0  0.89446  0.52704  0.99531  1.0000 0.5821294167
C   C4        1.0  0.00469  0.47296  0.10554  1.0000 0.5821294167
C   C5        1.0  0.10554  0.00469  0.47296  1.0000 0.5821294167
C   C6        1.0  0.47296  0.10554  0.00469  1.0000 0.5821294167
C   C7        1.0  0.47296  0.00469  0.10554  1.0000 0.5821294167
C   C8        1.0  0.00469  0.10554  0.47296  1.0000 0.5821294167
C   C9        1.0  0.10554  0.47296  0.00469  1.0000 0.5821294167
C   C10       1.0  0.99531  0.52704  0.89446  1.0000 0.5821294167
C   C11       1.0  0.89446  0.99531  0.52704  1.0000 0.5821294167
C   C12       1.0  0.52704  0.89446  0.99531  1.0000 0.5821294167
C   C13       1.0  0.54012  0.99145  0.82860  1.0000 -0.0184752603
C   C14       1.0  0.99145  0.82860  0.54012  1.0000 -0.0184752603
C   C15       1.0  0.82860  0.54012  0.99145  1.0000 -0.0184752603
C   C16       1.0  0.00855  0.45988  0.17140  1.0000 -0.0184752603
C   C17       1.0  0.17140  0.00855  0.45988  1.0000 -0.0184752603
C   C18       1.0  0.45988  0.17140  0.00855  1.0000 -0.0184752603
C   C19       1.0  0.45988  0.00855  0.17140  1.0000 -0.0184752603
C   C20       1.0  0.00855  0.17140  0.45988  1.0000 -0.0184752603
C   C21       1.0  0.17140  0.45988  0.00855  1.0000 -0.0184752603
C   C22       1.0  0.99145  0.54012  0.82860  1.0000 -0.0184752603
C   C23       1.0  0.82860  0.99145  0.54012  1.0000 -0.0184752603
C   C24       1.0  0.54012  0.82860  0.99145  1.0000 -0.0184752603
C   C25       1.0  0.61411  0.03670  0.84466  1.0000 -0.0864757955
C   C26       1.0  0.03670  0.84466  0.61411  1.0000 -0.0864757955
C   C27       1.0  0.84466  0.61411  0.03670  1.0000 -0.0864757955
C   C28       1.0  0.96330  0.38589  0.15534  1.0000 -0.0864757955
C   C29       1.0  0.15534  0.96330  0.38589  1.0000 -0.0864757955
C   C30       1.0  0.38589  0.15534  0.96330  1.0000 -0.0864757955
C   C31       1.0  0.38589  0.96330  0.15534  1.0000 -0.0864757955
C   C32       1.0  0.96330  0.15534  0.38589  1.0000 -0.0864757955
C   C33       1.0  0.15534  0.38589  0.96330  1.0000 -0.0864757955
C   C34       1.0  0.03670  0.61411  0.84466  1.0000 -0.0864757955
C   C35       1.0  0.84466  0.03670  0.61411  1.0000 -0.0864757955
C   C36       1.0  0.61411  0.84466  0.03670  1.0000 -0.0864757955
C   C37       1.0  0.62546  0.03345  0.78370  1.0000 -0.1486651298
C   C38       1.0  0.03345  0.78370  0.62546  1.0000 -0.1486651298
C   C39       1.0  0.78370  0.62546  0.03345  1.0000 -0.1486651298
C   C40       1.0  0.96655  0.37454  0.21630  1.0000 -0.1486651298
C   C41       1.0  0.21630  0.96655  0.37454  1.0000 -0.1486651298
C   C42       1.0  0.37454  0.21630  0.96655  1.0000 -0.1486651298
C   C43       1.0  0.37454  0.96655  0.21630  1.0000 -0.1486651298
C   C44       1.0  0.96655  0.21630  0.37454  1.0000 -0.1486651298
C   C45       1.0  0.21630  0.37454  0.96655  1.0000 -0.1486651298
C   C46       1.0  0.03345  0.62546  0.78370  1.0000 -0.1486651298
C   C47       1.0  0.78370  0.03345  0.62546  1.0000 -0.1486651298
C   C48       1.0  0.62546  0.78370  0.03345  1.0000 -0.1486651298
C   C49       1.0  0.56492  0.98763  0.70886  1.0000 0.087850263
C   C50       1.0  0.98763  0.70886  0.56492  1.0000 0.087850263
C   C51       1.0  0.70886  0.56492  0.98763  1.0000 0.087850263
C   C52       1.0  0.01237  0.43508  0.29114  1.0000 0.087850263
C   C53       1.0  0.29114  0.01237  0.43508  1.0000 0.087850263
C   C54       1.0  0.43508  0.29114  0.01237  1.0000 0.087850263
C   C55       1.0  0.43508  0.01237  0.29114  1.0000 0.087850263
C   C56       1.0  0.01237  0.29114  0.43508  1.0000 0.087850263
C   C57       1.0  0.29114  0.43508  0.01237  1.0000 0.087850263
C   C58       1.0  0.98763  0.56492  0.70886  1.0000 0.087850263
C   C59       1.0  0.70886  0.98763  0.56492  1.0000 0.087850263
C   C60       1.0  0.56492  0.70886  0.98763  1.0000 0.087850263
C   C61       1.0  0.49148  0.94266  0.69371  1.0000 -0.1592940636
C   C62       1.0  0.94266  0.69371  0.49148  1.0000 -0.1592940636
C   C63       1.0  0.69371  0.49148  0.94266  1.0000 -0.1592940636
C   C64       1.0  0.05734  0.50852  0.30629  1.0000 -0.1592940636
C   C65       1.0  0.30629  0.05734  0.50852  1.0000 -0.1592940636
C   C66       1.0  0.50852  0.30629  0.05734  1.0000 -0.1592940636
C   C67       1.0  0.50852  0.05734  0.30629  1.0000 -0.1592940636
C   C68       1.0  0.05734  0.30629  0.50852  1.0000 -0.1592940636
C   C69       1.0  0.30629  0.50852  0.05734  1.0000 -0.1592940636
C   C70       1.0  0.94266  0.49148  0.69371  1.0000 -0.1592940636
C   C71       1.0  0.69371  0.94266  0.49148  1.0000 -0.1592940636
C   C72       1.0  0.49148  0.69371  0.94266  1.0000 -0.1592940636
C   C73       1.0  0.47956  0.94484  0.75379  1.0000 -0.0864757955
C   C74       1.0  0.94484  0.75379  0.47956  1.0000 -0.0864757955
C   C75       1.0  0.75379  0.47956  0.94484  1.0000 -0.0864757955
C   C76       1.0  0.05516  0.52044  0.24621  1.0000 -0.0864757955
C   C77       1.0  0.24621  0.05516  0.52044  1.0000 -0.0864757955
C   C78       1.0  0.52044  0.24621  0.05516  1.0000 -0.0864757955
C   C79       1.0  0.52044  0.05516  0.24621  1.0000 -0.0864757955
C   C80       1.0  0.05516  0.24621  0.52044  1.0000 -0.0864757955
C   C81       1.0  0.24621  0.52044  0.05516  1.0000 -0.0864757955
C   C82       1.0  0.94484  0.47956  0.75379  1.0000 -0.0864757955
C   C83       1.0  0.75379  0.94484  0.47956  1.0000 -0.0864757955
C   C84       1.0  0.47956  0.75379  0.94484  1.0000 -0.0864757955
C   C85       1.0  0.57442  0.98828  0.64333  1.0000 -0.0184752603
C   C86       1.0  0.98828  0.64333  0.57442  1.0000 -0.0143677655
C   C87       1.0  0.64333  0.57442  0.98828  1.0000 -0.0184752603
C   C88       1.0  0.01172  0.42558  0.35667  1.0000 -0.0184752603
C   C89       1.0  0.35667  0.01172  0.42558  1.0000 -0.0184752603
C   C90       1.0  0.42558  0.35667  0.01172  1.0000 -0.0143677655
C   C91       1.0  0.42558  0.01172  0.35667  1.0000 -0.0184752603
C   C92       1.0  0.01172  0.35667  0.42558  1.0000 -0.0184752603
C   C93       1.0  0.35667  0.42558  0.01172  1.0000 -0.0143677655
C   C94       1.0  0.98828  0.57442  0.64333  1.0000 -0.0143677655
C   C95       1.0  0.64333  0.98828  0.57442  1.0000 -0.0143677655
C   C96       1.0  0.57442  0.64333  0.98828  1.0000 -0.0184752603
C   C97       1.0  0.52179  0.99302  0.58898  1.0000 -0.1958695722
C   C98       1.0  0.99302  0.58898  0.52179  1.0000 -0.1958695722
C   C99       1.0  0.58898  0.52179  0.99302  1.0000 -0.1958695722
C   C100      1.0  0.00698  0.47821  0.41102  1.0000 -0.1958695722
C   C101      1.0  0.41102  0.00698  0.47821  1.0000 -0.1958695722
C   C102      1.0  0.47821  0.41102  0.00698  1.0000 -0.1958695722
C   C103      1.0  0.47821  0.00698  0.41102  1.0000 -0.1958695722
C   C104      1.0  0.00698  0.41102  0.47821  1.0000 -0.1958695722
C   C105      1.0  0.41102  0.47821  0.00698  1.0000 -0.1958695722
C   C106      1.0  0.99302  0.52179  0.58898  1.0000 -0.1958695722
C   C107      1.0  0.58898  0.99302  0.52179  1.0000 -0.1958695722
C   C108      1.0  0.52179  0.58898  0.99302  1.0000 -0.1958695722
C   C109      1.0  0.52636  0.99578  0.52636  1.0000 0.0681871365
C   C110      1.0  0.99578  0.52636  0.52636  1.0000 0.0681871365
C   C111      1.0  0.52636  0.52636  0.99578  1.0000 0.0681871365
C   C112      1.0  0.00422  0.47364  0.47364  1.0000 0.0681871365
C   C113      1.0  0.47364  0.00422  0.47364  1.0000 0.0681871365
C   C114      1.0  0.47364  0.47364  0.00422  1.0000 0.0681871365
C   C115      1.0  0.63504  0.98511  0.63504  1.0000 0.1570290752
C   C116      1.0  0.98511  0.63504  0.63504  1.0000 0.1570290752
C   C117      1.0  0.63504  0.63504  0.98511  1.0000 0.1570290752
C   C118      1.0  0.01489  0.36495  0.36495  1.0000 0.1570290752
C   C119      1.0  0.36495  0.01489  0.36495  1.0000 0.1570290752
C   C120      1.0  0.36495  0.36495  0.01489  1.0000 0.1570290752
C   C121      1.0  0.67263  0.90605  0.67263  1.0000 0.0119801003
C   C122      1.0  0.90605  0.67263  0.67263  1.0000 0.0119801003
C   C123      1.0  0.67263  0.67263  0.90605  1.0000 0.0119801003
C   C124      1.0  0.09395  0.32738  0.32738  1.0000 0.0119801003
C   C125      1.0  0.32738  0.09395  0.32738  1.0000 0.0119801003
C   C126      1.0  0.32738  0.32738  0.09395  1.0000 0.0119801003
C   C127      1.0  0.73585  0.91190  0.73585  1.0000 -0.3885676585
C   C128      1.0  0.91190  0.73585  0.73585  1.0000 -0.3885676585
C   C129      1.0  0.73585  0.73585  0.91190  1.0000 -0.3885676585
C   C130      1.0  0.08810  0.26415  0.26415  1.0000 -0.3885676585
C   C131      1.0  0.26415  0.08810  0.26415  1.0000 -0.3885676585
C   C132      1.0  0.26415  0.26415  0.08810  1.0000 -0.3885676585
O   O1        1.0  0.45782  0.95292  0.87473  1.0000 -0.5291841996
O   O2        1.0  0.95292  0.87473  0.45782  1.0000 -0.5291841996
O   O3        1.0  0.87473  0.45782  0.95292  1.0000 -0.5291841996
O   O4        1.0  0.04708  0.54218  0.12527  1.0000 -0.5291841996
O   O5        1.0  0.12527  0.04708  0.54218  1.0000 -0.5291841996
O   O6        1.0  0.54218  0.12527  0.04708  1.0000 -0.5291841996
O   O7        1.0  0.54218  0.04708  0.12527  1.0000 -0.5291841996
O   O8        1.0  0.04708  0.12527  0.54218  1.0000 -0.5291841996
O   O9        1.0  0.12527  0.54218  0.04708  1.0000 -0.5291841996
O   O10       1.0  0.95292  0.45782  0.87473  1.0000 -0.5291841996
O   O11       1.0  0.87473  0.95292  0.45782  1.0000 -0.5291841996
O   O12       1.0  0.45782  0.87473  0.95292  1.0000 -0.5291841996
O   O13       1.0  0.58466  0.04010  0.96206  1.0000 -0.5182502193
O   O14       1.0  0.04010  0.96206  0.58466  1.0000 -0.5182502193
O   O15       1.0  0.96206  0.58466  0.04010  1.0000 -0.5182502193
O   O16       1.0  0.95990  0.41534  0.03794  1.0000 -0.5182502193
O   O17       1.0  0.03794  0.95990  0.41534  1.0000 -0.5182502193
O   O18       1.0  0.41534  0.03794  0.95990  1.0000 -0.5182502193
O   O19       1.0  0.41534  0.95990  0.03794  1.0000 -0.5182502193
O   O20       1.0  0.95990  0.03794  0.41534  1.0000 -0.5182502193
O   O21       1.0  0.03794  0.41534  0.95990  1.0000 -0.5182502193
O   O22       1.0  0.04010  0.58466  0.96206  1.0000 -0.5182502193
O   O23       1.0  0.96206  0.04010  0.58466  1.0000 -0.5182502193
O   O24       1.0  0.58466  0.96206  0.04010  1.0000 -0.5182502193
O   O25       1.0  0.68981  0.98133  0.68981  1.0000 -0.24084794
O   O26       1.0  0.98133  0.68981  0.68981  1.0000 -0.24084794
O   O27       1.0  0.68981  0.68981  0.98133  1.0000 -0.24084794
O   O28       1.0  0.01867  0.31019  0.31019  1.0000 -0.24084794
O   O29       1.0  0.31019  0.01867  0.31019  1.0000 -0.24084794
O   O30       1.0  0.31019  0.31019  0.01867  1.0000 -0.24084794
