# DDEC6 charges by PACMAN v1.1 (https://github.com/mtap-research/PACMAN-charge/)
data_2016[Cu][nbo]3[ASR]44
_chemical_formula_sum              "Cu6 H78 C126 O30"
_cell_length_a       21.4856
_cell_length_b       21.4856
_cell_length_c       21.4856
_cell_angle_alpha    110.436
_cell_angle_beta     110.436
_cell_angle_gamma    110.436

_symmetry_space_group_name_H-M    "P 1"
_symmetry_Int_Tables_number       1

loop_
  _symmetry_equiv_pos_as_xyz
  'x, y, z'

loop_
  _atom_site_type_symbol
  _atom_site_label
  _atom_site_symmetry_multiplicity
  _atom_site_fract_x
  _atom_site_fract_y
  _atom_site_fract_z
  _atom_site_occupancy
  _atom_site_charge
Cu  Cu1       1.0  0.44717  0.92433  0.44716  1.0000 0.8670179238
Cu  Cu2       1.0  0.92433  0.44717  0.44716  1.0000 0.8670179238
Cu  Cu3       1.0  0.44717  0.44717  0.92433  1.0000 0.8670179238
Cu  Cu4       1.0  0.07567  0.55283  0.55283  1.0000 0.8670179238
Cu  Cu5       1.0  0.55283  0.07567  0.55283  1.0000 0.8670179238
Cu  Cu6       1.0  0.55283  0.55283  0.07567  1.0000 0.8670179238
H   H1        1.0  0.57090  0.15620  0.39900  1.0000 0.1288095902
H   H2        1.0  0.15620  0.39900  0.57090  1.0000 0.1288095902
H   H3        1.0  0.39900  0.57090  0.15620  1.0000 0.1288095902
H   H4        1.0  0.84380  0.42910  0.60100  1.0000 0.1288095902
H   H5        1.0  0.60100  0.84380  0.42910  1.0000 0.1288095902
H   H6        1.0  0.42910  0.60100  0.84380  1.0000 0.1288095902
H   H7        1.0  0.42910  0.84380  0.60100  1.0000 0.1288095902
H   H8        1.0  0.84380  0.60100  0.42910  1.0000 0.1288095902
H   H9        1.0  0.60100  0.42910  0.84380  1.0000 0.1288095902
H   H10       1.0  0.15620  0.57090  0.39900  1.0000 0.1288095902
H   H11       1.0  0.39900  0.15620  0.57090  1.0000 0.1288095902
H   H12       1.0  0.57090  0.39900  0.15620  1.0000 0.1288095902
H   H13       1.0  0.56560  0.17730  0.29770  1.0000 0.1192410008
H   H14       1.0  0.17730  0.29770  0.56560  1.0000 0.1192410008
H   H15       1.0  0.29770  0.56560  0.17730  1.0000 0.1192410008
H   H16       1.0  0.82270  0.43440  0.70230  1.0000 0.1192410008
H   H17       1.0  0.70230  0.82270  0.43440  1.0000 0.1192410008
H   H18       1.0  0.43440  0.70230  0.82270  1.0000 0.1192410008
H   H19       1.0  0.43440  0.82270  0.70230  1.0000 0.1192410008
H   H20       1.0  0.82270  0.70230  0.43440  1.0000 0.1192410008
H   H21       1.0  0.70230  0.43440  0.82270  1.0000 0.1192410008
H   H22       1.0  0.17730  0.56560  0.29770  1.0000 0.1192410008
H   H23       1.0  0.29770  0.17730  0.56560  1.0000 0.1192410008
H   H24       1.0  0.56560  0.29770  0.17730  1.0000 0.1192410008
H   H25       1.0  0.40040  0.94590  0.13630  1.0000 0.1192410008
H   H26       1.0  0.94590  0.13630  0.40040  1.0000 0.1192410008
H   H27       1.0  0.13630  0.40040  0.94590  1.0000 0.1192410008
H   H28       1.0  0.05410  0.59960  0.86370  1.0000 0.1192410008
H   H29       1.0  0.86370  0.05410  0.59960  1.0000 0.1192410008
H   H30       1.0  0.59960  0.86370  0.05410  1.0000 0.1192410008
H   H31       1.0  0.59960  0.05410  0.86370  1.0000 0.1192410008
H   H32       1.0  0.05410  0.86370  0.59960  1.0000 0.1192410008
H   H33       1.0  0.86370  0.59960  0.05410  1.0000 0.1192410008
H   H34       1.0  0.94590  0.40040  0.13630  1.0000 0.1192410008
H   H35       1.0  0.13630  0.94590  0.40040  1.0000 0.1192410008
H   H36       1.0  0.40040  0.13630  0.94590  1.0000 0.1192410008
H   H37       1.0  0.40640  0.92480  0.23690  1.0000 0.1288095902
H   H38       1.0  0.92480  0.23690  0.40640  1.0000 0.1288095902
H   H39       1.0  0.23690  0.40640  0.92480  1.0000 0.1288095902
H   H40       1.0  0.07520  0.59360  0.76310  1.0000 0.1288095902
H   H41       1.0  0.76310  0.07520  0.59360  1.0000 0.1288095902
H   H42       1.0  0.59360  0.76310  0.07520  1.0000 0.1288095902
H   H43       1.0  0.59360  0.07520  0.76310  1.0000 0.1288095902
H   H44       1.0  0.07520  0.76310  0.59360  1.0000 0.1288095902
H   H45       1.0  0.76310  0.59360  0.07520  1.0000 0.1288095902
H   H46       1.0  0.92480  0.40640  0.23690  1.0000 0.1288095902
H   H47       1.0  0.23690  0.92480  0.40640  1.0000 0.1288095902
H   H48       1.0  0.40640  0.23690  0.92480  1.0000 0.1288095902
H   H49       1.0  0.49310  0.98000  0.09440  1.0000 0.1099527155
H   H50       1.0  0.98000  0.09440  0.49310  1.0000 0.1099527155
H   H51       1.0  0.09440  0.49310  0.98000  1.0000 0.1099527155
H   H52       1.0  0.02000  0.50690  0.90560  1.0000 0.1099527155
H   H53       1.0  0.90560  0.02000  0.50690  1.0000 0.1099527155
H   H54       1.0  0.50690  0.90560  0.02000  1.0000 0.1099527155
H   H55       1.0  0.50690  0.02000  0.90560  1.0000 0.1099527155
H   H56       1.0  0.02000  0.90560  0.50690  1.0000 0.1099527155
H   H57       1.0  0.90560  0.50690  0.02000  1.0000 0.1099527155
H   H58       1.0  0.98000  0.49310  0.09440  1.0000 0.1099527155
H   H59       1.0  0.09440  0.98000  0.49310  1.0000 0.1099527155
H   H60       1.0  0.49310  0.09440  0.98000  1.0000 0.1099527155
H   H61       1.0  0.39990  0.20650  0.20650  1.0000 0.1192410008
H   H62       1.0  0.20650  0.20650  0.39990  1.0000 0.1192410008
H   H63       1.0  0.20650  0.39990  0.20650  1.0000 0.1192410008
H   H64       1.0  0.79350  0.60010  0.79350  1.0000 0.1192410008
H   H65       1.0  0.79350  0.79350  0.60010  1.0000 0.1192410008
H   H66       1.0  0.60010  0.79350  0.79350  1.0000 0.1192410008
H   H67       1.0  0.37250  0.16130  0.11590  1.0000 0.1099527155
H   H68       1.0  0.16130  0.11590  0.37250  1.0000 0.1040437162
H   H69       1.0  0.11590  0.37250  0.16130  1.0000 0.1099527155
H   H70       1.0  0.83870  0.62750  0.88410  1.0000 0.1099527155
H   H71       1.0  0.88410  0.83870  0.62750  1.0000 0.1099527155
H   H72       1.0  0.62750  0.88410  0.83870  1.0000 0.1099527155
H   H73       1.0  0.62750  0.83870  0.88410  1.0000 0.1099527155
H   H74       1.0  0.83870  0.88410  0.62750  1.0000 0.1099527155
H   H75       1.0  0.88410  0.62750  0.83870  1.0000 0.1099527155
H   H76       1.0  0.16130  0.37250  0.11590  1.0000 0.1099527155
H   H77       1.0  0.11590  0.16130  0.37250  1.0000 0.1040437162
H   H78       1.0  0.37250  0.11590  0.16130  1.0000 0.1099527155
C   C1        1.0  0.49252  0.02368  0.39159  1.0000 0.5816962362
C   C2        1.0  0.02368  0.39159  0.49252  1.0000 0.5816962362
C   C3        1.0  0.39159  0.49252  0.02368  1.0000 0.5816962362
C   C4        1.0  0.97632  0.50748  0.60841  1.0000 0.5816962362
C   C5        1.0  0.60841  0.97632  0.50748  1.0000 0.5816962362
C   C6        1.0  0.50748  0.60841  0.97632  1.0000 0.5816962362
C   C7        1.0  0.50748  0.97632  0.60841  1.0000 0.5816962362
C   C8        1.0  0.97632  0.60841  0.50748  1.0000 0.5816962362
C   C9        1.0  0.60841  0.50748  0.97632  1.0000 0.5816962362
C   C10       1.0  0.02368  0.49252  0.39159  1.0000 0.5816962362
C   C11       1.0  0.39159  0.02368  0.49252  1.0000 0.5816962362
C   C12       1.0  0.49252  0.39159  0.02368  1.0000 0.5816962362
C   C13       1.0  0.48817  0.03722  0.32624  1.0000 -0.0268958556
C   C14       1.0  0.03722  0.32624  0.48817  1.0000 -0.0268958556
C   C15       1.0  0.32624  0.48817  0.03722  1.0000 -0.0268958556
C   C16       1.0  0.96278  0.51183  0.67376  1.0000 -0.0268958556
C   C17       1.0  0.67376  0.96278  0.51183  1.0000 -0.0268958556
C   C18       1.0  0.51183  0.67376  0.96278  1.0000 -0.0268958556
C   C19       1.0  0.51183  0.96278  0.67376  1.0000 -0.0268958556
C   C20       1.0  0.96278  0.67376  0.51183  1.0000 -0.0268958556
C   C21       1.0  0.67376  0.51183  0.96278  1.0000 -0.0268958556
C   C22       1.0  0.03722  0.48817  0.32624  1.0000 -0.0268958556
C   C23       1.0  0.32624  0.03722  0.48817  1.0000 -0.0268958556
C   C24       1.0  0.48817  0.32624  0.03722  1.0000 -0.0268958556
C   C25       1.0  0.53662  0.11354  0.34559  1.0000 -0.0897956916
C   C26       1.0  0.11354  0.34559  0.53662  1.0000 -0.0897956916
C   C27       1.0  0.34559  0.53662  0.11354  1.0000 -0.0897956916
C   C28       1.0  0.88646  0.46338  0.65441  1.0000 -0.0897956916
C   C29       1.0  0.65441  0.88646  0.46338  1.0000 -0.0897956916
C   C30       1.0  0.46338  0.65441  0.88646  1.0000 -0.0897956916
C   C31       1.0  0.46338  0.88646  0.65441  1.0000 -0.0897956916
C   C32       1.0  0.88646  0.65441  0.46338  1.0000 -0.0897956916
C   C33       1.0  0.65441  0.46338  0.88646  1.0000 -0.0897956916
C   C34       1.0  0.11354  0.53662  0.34559  1.0000 -0.0897956916
C   C35       1.0  0.34559  0.11354  0.53662  1.0000 -0.0897956916
C   C36       1.0  0.53662  0.34559  0.11354  1.0000 -0.0897956916
C   C37       1.0  0.53355  0.12577  0.28522  1.0000 -0.1542365461
C   C38       1.0  0.12577  0.28522  0.53355  1.0000 -0.1542365461
C   C39       1.0  0.28522  0.53355  0.12577  1.0000 -0.1542365461
C   C40       1.0  0.87423  0.46645  0.71478  1.0000 -0.1542365461
C   C41       1.0  0.71478  0.87423  0.46645  1.0000 -0.1542365461
C   C42       1.0  0.46645  0.71478  0.87423  1.0000 -0.1542365461
C   C43       1.0  0.46645  0.87423  0.71478  1.0000 -0.1542365461
C   C44       1.0  0.87423  0.71478  0.46645  1.0000 -0.1542365461
C   C45       1.0  0.71478  0.46645  0.87423  1.0000 -0.1542365461
C   C46       1.0  0.12577  0.53355  0.28522  1.0000 -0.1542365461
C   C47       1.0  0.28522  0.12577  0.53355  1.0000 -0.1542365461
C   C48       1.0  0.53355  0.28522  0.12577  1.0000 -0.1542365461
C   C49       1.0  0.48463  0.06394  0.20754  1.0000 0.0920611735
C   C50       1.0  0.06394  0.20754  0.48463  1.0000 0.0920611735
C   C51       1.0  0.20754  0.48463  0.06394  1.0000 0.0920611735
C   C52       1.0  0.93606  0.51537  0.79246  1.0000 0.0920611735
C   C53       1.0  0.79246  0.93606  0.51537  1.0000 0.0920611735
C   C54       1.0  0.51537  0.79246  0.93606  1.0000 0.0920611735
C   C55       1.0  0.51537  0.93606  0.79246  1.0000 0.0920611735
C   C56       1.0  0.93606  0.79246  0.51537  1.0000 0.0920611735
C   C57       1.0  0.79246  0.51537  0.93606  1.0000 0.0920611735
C   C58       1.0  0.06394  0.48463  0.20754  1.0000 0.0920611735
C   C59       1.0  0.20754  0.06394  0.48463  1.0000 0.0920611735
C   C60       1.0  0.48463  0.20754  0.06394  1.0000 0.0920611735
C   C61       1.0  0.43572  0.98854  0.18962  1.0000 -0.1670502856
C   C62       1.0  0.98854  0.18962  0.43572  1.0000 -0.1670502856
C   C63       1.0  0.18962  0.43572  0.98854  1.0000 -0.1670502856
C   C64       1.0  0.01146  0.56428  0.81038  1.0000 -0.1670502856
C   C65       1.0  0.81038  0.01146  0.56428  1.0000 -0.1670502856
C   C66       1.0  0.56428  0.81038  0.01146  1.0000 -0.1670502856
C   C67       1.0  0.56428  0.01146  0.81038  1.0000 -0.1670502856
C   C68       1.0  0.01146  0.81038  0.56428  1.0000 -0.1670502856
C   C69       1.0  0.81038  0.56428  0.01146  1.0000 -0.1670502856
C   C70       1.0  0.98854  0.43572  0.18962  1.0000 -0.1670502856
C   C71       1.0  0.18962  0.98854  0.43572  1.0000 -0.1670502856
C   C72       1.0  0.43572  0.18962  0.98854  1.0000 -0.1670502856
C   C73       1.0  0.43887  0.97620  0.24939  1.0000 -0.0897956916
C   C74       1.0  0.97620  0.24939  0.43887  1.0000 -0.0897956916
C   C75       1.0  0.24939  0.43887  0.97620  1.0000 -0.0897956916
C   C76       1.0  0.02380  0.56113  0.75061  1.0000 -0.0897956916
C   C77       1.0  0.75061  0.02380  0.56113  1.0000 -0.0897956916
C   C78       1.0  0.56113  0.75061  0.02380  1.0000 -0.0897956916
C   C79       1.0  0.56113  0.02380  0.75061  1.0000 -0.0897956916
C   C80       1.0  0.02380  0.75061  0.56113  1.0000 -0.0897956916
C   C81       1.0  0.75061  0.56113  0.02380  1.0000 -0.0897956916
C   C82       1.0  0.97620  0.43887  0.24939  1.0000 -0.0897956916
C   C83       1.0  0.24939  0.97620  0.43887  1.0000 -0.0897956916
C   C84       1.0  0.43887  0.24939  0.97620  1.0000 -0.0897956916
C   C85       1.0  0.48762  0.07447  0.14320  1.0000 -0.0206473761
C   C86       1.0  0.07447  0.14320  0.48762  1.0000 -0.0206473761
C   C87       1.0  0.14320  0.48762  0.07447  1.0000 -0.0206473761
C   C88       1.0  0.92553  0.51238  0.85680  1.0000 -0.0206473761
C   C89       1.0  0.85680  0.92553  0.51238  1.0000 -0.0206473761
C   C90       1.0  0.51238  0.85680  0.92553  1.0000 -0.0206473761
C   C91       1.0  0.51238  0.92553  0.85680  1.0000 -0.0206473761
C   C92       1.0  0.92553  0.85680  0.51238  1.0000 -0.0206473761
C   C93       1.0  0.85680  0.51238  0.92553  1.0000 -0.0206473761
C   C94       1.0  0.07447  0.48762  0.14320  1.0000 -0.0206473761
C   C95       1.0  0.14320  0.07447  0.48762  1.0000 -0.0206473761
C   C96       1.0  0.48762  0.14320  0.07447  1.0000 -0.0206473761
C   C97       1.0  0.49207  0.02193  0.08938  1.0000 -0.1965694512
C   C98       1.0  0.02193  0.08938  0.49207  1.0000 -0.1965694512
C   C99       1.0  0.08938  0.49207  0.02193  1.0000 -0.1965694512
C   C100      1.0  0.97807  0.50793  0.91062  1.0000 -0.1965694512
C   C101      1.0  0.91062  0.97807  0.50793  1.0000 -0.1965694512
C   C102      1.0  0.50793  0.91062  0.97807  1.0000 -0.1965694512
C   C103      1.0  0.50793  0.97807  0.91062  1.0000 -0.1965694512
C   C104      1.0  0.97807  0.91062  0.50793  1.0000 -0.1965694512
C   C105      1.0  0.91062  0.50793  0.97807  1.0000 -0.1965694512
C   C106      1.0  0.02193  0.49207  0.08938  1.0000 -0.1965694512
C   C107      1.0  0.08938  0.02193  0.49207  1.0000 -0.1965694512
C   C108      1.0  0.49207  0.08938  0.02193  1.0000 -0.1965694512
C   C109      1.0  0.49522  0.02669  0.02669  1.0000 0.06617393
C   C110      1.0  0.02669  0.02669  0.49522  1.0000 0.06617393
C   C111      1.0  0.02669  0.49522  0.02669  1.0000 0.06617393
C   C112      1.0  0.97331  0.50478  0.97331  1.0000 0.06617393
C   C113      1.0  0.97331  0.97331  0.50478  1.0000 0.06617393
C   C114      1.0  0.50478  0.97331  0.97331  1.0000 0.06617393
C   C115      1.0  0.48511  0.13646  0.13646  1.0000 0.1639307082
C   C116      1.0  0.13646  0.13646  0.48511  1.0000 0.1639307082
C   C117      1.0  0.13646  0.48511  0.13646  1.0000 0.1639307082
C   C118      1.0  0.86354  0.51489  0.86354  1.0000 0.1639307082
C   C119      1.0  0.86354  0.86354  0.51489  1.0000 0.1639307082
C   C120      1.0  0.51489  0.86354  0.86354  1.0000 0.1639307082
C   C121      1.0  0.39964  0.16643  0.16643  1.0000 -0.2379809603
C   C122      1.0  0.16643  0.16643  0.39964  1.0000 -0.2379809603
C   C123      1.0  0.16643  0.39964  0.16643  1.0000 -0.2379809603
C   C124      1.0  0.83357  0.60036  0.83357  1.0000 -0.2379809603
C   C125      1.0  0.83357  0.83357  0.60036  1.0000 -0.2379809603
C   C126      1.0  0.60036  0.83357  0.83357  1.0000 -0.2379809603
O   O1        1.0  0.44874  0.95375  0.37090  1.0000 -0.520032305
O   O2        1.0  0.95375  0.37090  0.44874  1.0000 -0.520032305
O   O3        1.0  0.37090  0.44874  0.95375  1.0000 -0.520032305
O   O4        1.0  0.04625  0.55126  0.62910  1.0000 -0.520032305
O   O5        1.0  0.62910  0.04625  0.55126  1.0000 -0.520032305
O   O6        1.0  0.55126  0.62910  0.04625  1.0000 -0.520032305
O   O7        1.0  0.55126  0.04625  0.62910  1.0000 -0.520032305
O   O8        1.0  0.04625  0.62910  0.55126  1.0000 -0.520032305
O   O9        1.0  0.62910  0.55126  0.04625  1.0000 -0.520032305
O   O10       1.0  0.95375  0.44874  0.37090  1.0000 -0.520032305
O   O11       1.0  0.37090  0.95375  0.44874  1.0000 -0.520032305
O   O12       1.0  0.44874  0.37090  0.95375  1.0000 -0.520032305
O   O13       1.0  0.53905  0.08290  0.46107  1.0000 -0.520032305
O   O14       1.0  0.08290  0.46107  0.53905  1.0000 -0.520032305
O   O15       1.0  0.46107  0.53905  0.08290  1.0000 -0.520032305
O   O16       1.0  0.91710  0.46095  0.53893  1.0000 -0.520032305
O   O17       1.0  0.53893  0.91710  0.46095  1.0000 -0.520032305
O   O18       1.0  0.46095  0.53893  0.91710  1.0000 -0.520032305
O   O19       1.0  0.46095  0.91710  0.53893  1.0000 -0.520032305
O   O20       1.0  0.91710  0.53893  0.46095  1.0000 -0.520032305
O   O21       1.0  0.53893  0.46095  0.91710  1.0000 -0.520032305
O   O22       1.0  0.08290  0.53905  0.46107  1.0000 -0.520032305
O   O23       1.0  0.46107  0.08290  0.53905  1.0000 -0.520032305
O   O24       1.0  0.53905  0.46107  0.08290  1.0000 -0.520032305
O   O25       1.0  0.48019  0.18983  0.18983  1.0000 -0.1871836145
O   O26       1.0  0.18983  0.18983  0.48019  1.0000 -0.1871836145
O   O27       1.0  0.18983  0.48019  0.18983  1.0000 -0.1844763169
O   O28       1.0  0.81017  0.51981  0.81017  1.0000 -0.1871836145
O   O29       1.0  0.81017  0.81017  0.51981  1.0000 -0.1844763169
O   O30       1.0  0.51981  0.81017  0.81017  1.0000 -0.1844763169
