# DDEC6 charges by PACMAN v1.1 (https://github.com/mtap-research/PACMAN-charge/)
data_2016[Cu][nbo]3[ASR]51
_chemical_formula_sum              "Cu6 H96 C138 O30"
_cell_length_a       21.5991
_cell_length_b       21.5991
_cell_length_c       21.5991
_cell_angle_alpha    108.52
_cell_angle_beta     108.52
_cell_angle_gamma    108.52

_symmetry_space_group_name_H-M    "P 1"
_symmetry_Int_Tables_number       1

loop_
  _symmetry_equiv_pos_as_xyz
  'x, y, z'

loop_
  _atom_site_type_symbol
  _atom_site_label
  _atom_site_symmetry_multiplicity
  _atom_site_fract_x
  _atom_site_fract_y
  _atom_site_fract_z
  _atom_site_occupancy
  _atom_site_charge
Cu  Cu1       1.0  0.45577  0.45577  0.93043  1.0000 0.8457829152
Cu  Cu2       1.0  0.45576  0.93043  0.45576  1.0000 0.8457829152
Cu  Cu3       1.0  0.93043  0.45576  0.45576  1.0000 0.8457829152
Cu  Cu4       1.0  0.54424  0.54424  0.06957  1.0000 0.8457829152
Cu  Cu5       1.0  0.06957  0.54424  0.54424  1.0000 0.8457829152
Cu  Cu6       1.0  0.54424  0.06957  0.54424  1.0000 0.8457829152
H   H1        1.0  0.43060  0.61370  0.85280  1.0000 0.1282818002
H   H2        1.0  0.61370  0.85280  0.43060  1.0000 0.1282818002
H   H3        1.0  0.85280  0.43060  0.61370  1.0000 0.1282818002
H   H4        1.0  0.38630  0.56940  0.14720  1.0000 0.1282818002
H   H5        1.0  0.14720  0.38630  0.56940  1.0000 0.1282818002
H   H6        1.0  0.56940  0.14720  0.38630  1.0000 0.1282818002
H   H7        1.0  0.56940  0.38630  0.14720  1.0000 0.1282818002
H   H8        1.0  0.38630  0.14720  0.56940  1.0000 0.1282818002
H   H9        1.0  0.14720  0.56940  0.38630  1.0000 0.1282818002
H   H10       1.0  0.61370  0.43060  0.85280  1.0000 0.1282818002
H   H11       1.0  0.85280  0.61370  0.43060  1.0000 0.1282818002
H   H12       1.0  0.43060  0.85280  0.61370  1.0000 0.1282818002
H   H13       1.0  0.44200  0.71600  0.83510  1.0000 0.1200036936
H   H14       1.0  0.71600  0.83510  0.44200  1.0000 0.1200036936
H   H15       1.0  0.83510  0.44200  0.71600  1.0000 0.1200036936
H   H16       1.0  0.28400  0.55800  0.16490  1.0000 0.1200036936
H   H17       1.0  0.16490  0.28400  0.55800  1.0000 0.1200036936
H   H18       1.0  0.55800  0.16490  0.28400  1.0000 0.1200036936
H   H19       1.0  0.55800  0.28400  0.16490  1.0000 0.1200036936
H   H20       1.0  0.28400  0.16490  0.55800  1.0000 0.1200036936
H   H21       1.0  0.16490  0.55800  0.28400  1.0000 0.1200036936
H   H22       1.0  0.71600  0.44200  0.83510  1.0000 0.1200036936
H   H23       1.0  0.83510  0.71600  0.44200  1.0000 0.1200036936
H   H24       1.0  0.44200  0.83510  0.71600  1.0000 0.1200036936
H   H25       1.0  0.58430  0.84870  0.04550  1.0000 0.1131572904
H   H26       1.0  0.84870  0.04550  0.58430  1.0000 0.1131572904
H   H27       1.0  0.04550  0.58430  0.84870  1.0000 0.1131572904
H   H28       1.0  0.15130  0.41570  0.95450  1.0000 0.1131572904
H   H29       1.0  0.95450  0.15130  0.41570  1.0000 0.1131572904
H   H30       1.0  0.41570  0.95450  0.15130  1.0000 0.1131572904
H   H31       1.0  0.41570  0.15130  0.95450  1.0000 0.1131572904
H   H32       1.0  0.15130  0.95450  0.41570  1.0000 0.1131572904
H   H33       1.0  0.95450  0.41570  0.15130  1.0000 0.1131572904
H   H34       1.0  0.84870  0.58430  0.04550  1.0000 0.1131572904
H   H35       1.0  0.04550  0.84870  0.58430  1.0000 0.1131572904
H   H36       1.0  0.58430  0.04550  0.84870  1.0000 0.1131572904
H   H37       1.0  0.57410  0.74520  0.06170  1.0000 0.1282818002
H   H38       1.0  0.74520  0.06170  0.57410  1.0000 0.1282818002
H   H39       1.0  0.06170  0.57410  0.74520  1.0000 0.1282818002
H   H40       1.0  0.25480  0.42590  0.93830  1.0000 0.1282818002
H   H41       1.0  0.93830  0.25480  0.42590  1.0000 0.1282818002
H   H42       1.0  0.42590  0.93830  0.25480  1.0000 0.1282818002
H   H43       1.0  0.42590  0.25480  0.93830  1.0000 0.1282818002
H   H44       1.0  0.25480  0.93830  0.42590  1.0000 0.1282818002
H   H45       1.0  0.93830  0.42590  0.25480  1.0000 0.1282818002
H   H46       1.0  0.74520  0.57410  0.06170  1.0000 0.1282818002
H   H47       1.0  0.06170  0.74520  0.57410  1.0000 0.1282818002
H   H48       1.0  0.57410  0.06170  0.74520  1.0000 0.1282818002
H   H49       1.0  0.50160  0.90480  0.01870  1.0000 0.1131572904
H   H50       1.0  0.90480  0.01870  0.50160  1.0000 0.1131572904
H   H51       1.0  0.01870  0.50160  0.90480  1.0000 0.1131572904
H   H52       1.0  0.09520  0.49840  0.98130  1.0000 0.1131572904
H   H53       1.0  0.98130  0.09520  0.49840  1.0000 0.1131572904
H   H54       1.0  0.49840  0.98130  0.09520  1.0000 0.1131572904
H   H55       1.0  0.49840  0.09520  0.98130  1.0000 0.1131572904
H   H56       1.0  0.09520  0.98130  0.49840  1.0000 0.1131572904
H   H57       1.0  0.98130  0.49840  0.09520  1.0000 0.1131572904
H   H58       1.0  0.90480  0.50160  0.01870  1.0000 0.1131572904
H   H59       1.0  0.01870  0.90480  0.50160  1.0000 0.1131572904
H   H60       1.0  0.50160  0.01870  0.90480  1.0000 0.1131572904
H   H61       1.0  0.51560  0.71040  0.71040  1.0000 0.1282818002
H   H62       1.0  0.71040  0.71040  0.51560  1.0000 0.1282818002
H   H63       1.0  0.71040  0.51560  0.71040  1.0000 0.1282818002
H   H64       1.0  0.28960  0.48440  0.28960  1.0000 0.1282818002
H   H65       1.0  0.28960  0.28960  0.48440  1.0000 0.1282818002
H   H66       1.0  0.48440  0.28960  0.28960  1.0000 0.1282818002
H   H67       1.0  0.59040  0.77080  0.72610  1.0000 0.1282818002
H   H68       1.0  0.77080  0.72610  0.59040  1.0000 0.1282818002
H   H69       1.0  0.72610  0.59040  0.77080  1.0000 0.1282818002
H   H70       1.0  0.22920  0.40960  0.27390  1.0000 0.1282818002
H   H71       1.0  0.27390  0.22920  0.40960  1.0000 0.1282818002
H   H72       1.0  0.40960  0.27390  0.22920  1.0000 0.1282818002
H   H73       1.0  0.40960  0.22920  0.27390  1.0000 0.1282818002
H   H74       1.0  0.22920  0.27390  0.40960  1.0000 0.1282818002
H   H75       1.0  0.27390  0.40960  0.22920  1.0000 0.1282818002
H   H76       1.0  0.77080  0.59040  0.72610  1.0000 0.1282818002
H   H77       1.0  0.72610  0.77080  0.59040  1.0000 0.1282818002
H   H78       1.0  0.59040  0.72610  0.77080  1.0000 0.1282818002
H   H79       1.0  0.64230  0.90190  0.90190  1.0000 0.1282818002
H   H80       1.0  0.90190  0.90190  0.64230  1.0000 0.1282818002
H   H81       1.0  0.90190  0.64230  0.90190  1.0000 0.1282818002
H   H82       1.0  0.09810  0.35770  0.09810  1.0000 0.1282818002
H   H83       1.0  0.09810  0.09810  0.35770  1.0000 0.1282818002
H   H84       1.0  0.35770  0.09810  0.09810  1.0000 0.1282818002
H   H85       1.0  0.66450  0.83860  0.88330  1.0000 0.1282818002
H   H86       1.0  0.83860  0.88330  0.66450  1.0000 0.1282818002
H   H87       1.0  0.88330  0.66450  0.83860  1.0000 0.1282818002
H   H88       1.0  0.16140  0.33550  0.11670  1.0000 0.1282818002
H   H89       1.0  0.11670  0.16140  0.33550  1.0000 0.1282818002
H   H90       1.0  0.33550  0.11670  0.16140  1.0000 0.1282818002
H   H91       1.0  0.33550  0.16140  0.11670  1.0000 0.1282818002
H   H92       1.0  0.16140  0.11670  0.33550  1.0000 0.1282818002
H   H93       1.0  0.11670  0.33550  0.16140  1.0000 0.1282818002
H   H94       1.0  0.83860  0.66450  0.88330  1.0000 0.1282818002
H   H95       1.0  0.88330  0.83860  0.66450  1.0000 0.1282818002
H   H96       1.0  0.66450  0.88330  0.83860  1.0000 0.1282818002
C   C1        1.0  0.50353  0.60637  0.97440  1.0000 0.5807188297
C   C2        1.0  0.60637  0.97440  0.50353  1.0000 0.5807188297
C   C3        1.0  0.97440  0.50353  0.60637  1.0000 0.5807188297
C   C4        1.0  0.39363  0.49647  0.02560  1.0000 0.5807188297
C   C5        1.0  0.02560  0.39363  0.49647  1.0000 0.5807188297
C   C6        1.0  0.49647  0.02560  0.39363  1.0000 0.5807188297
C   C7        1.0  0.49647  0.39363  0.02560  1.0000 0.5807188297
C   C8        1.0  0.39363  0.02560  0.49647  1.0000 0.5807188297
C   C9        1.0  0.02560  0.49647  0.39363  1.0000 0.5807188297
C   C10       1.0  0.60637  0.50353  0.97440  1.0000 0.5807188297
C   C11       1.0  0.97440  0.60637  0.50353  1.0000 0.5807188297
C   C12       1.0  0.50353  0.97440  0.60637  1.0000 0.5807188297
C   C13       1.0  0.50534  0.67070  0.96106  1.0000 -0.0258487867
C   C14       1.0  0.67070  0.96106  0.50534  1.0000 -0.0258487867
C   C15       1.0  0.96106  0.50534  0.67070  1.0000 -0.0246429752
C   C16       1.0  0.32930  0.49466  0.03894  1.0000 -0.0258487867
C   C17       1.0  0.03894  0.32930  0.49466  1.0000 -0.0258487867
C   C18       1.0  0.49466  0.03894  0.32930  1.0000 -0.0258487867
C   C19       1.0  0.49466  0.32930  0.03894  1.0000 -0.0246429752
C   C20       1.0  0.32930  0.03894  0.49466  1.0000 -0.0258487867
C   C21       1.0  0.03894  0.49466  0.32930  1.0000 -0.0258487867
C   C22       1.0  0.67070  0.50534  0.96106  1.0000 -0.0258487867
C   C23       1.0  0.96106  0.67070  0.50534  1.0000 -0.0246429752
C   C24       1.0  0.50534  0.96106  0.67070  1.0000 -0.0258487867
C   C25       1.0  0.46248  0.66081  0.89201  1.0000 -0.0897645344
C   C26       1.0  0.66081  0.89201  0.46248  1.0000 -0.0897645344
C   C27       1.0  0.89201  0.46248  0.66081  1.0000 -0.0897645344
C   C28       1.0  0.33919  0.53752  0.10799  1.0000 -0.0897645344
C   C29       1.0  0.10799  0.33919  0.53752  1.0000 -0.0897645344
C   C30       1.0  0.53752  0.10799  0.33919  1.0000 -0.0897645344
C   C31       1.0  0.53752  0.33919  0.10799  1.0000 -0.0897645344
C   C32       1.0  0.33919  0.10799  0.53752  1.0000 -0.0897645344
C   C33       1.0  0.10799  0.53752  0.33919  1.0000 -0.0897645344
C   C34       1.0  0.66081  0.46248  0.89201  1.0000 -0.0897645344
C   C35       1.0  0.89201  0.66081  0.46248  1.0000 -0.0897645344
C   C36       1.0  0.46248  0.89201  0.66081  1.0000 -0.0897645344
C   C37       1.0  0.46809  0.72322  0.88249  1.0000 -0.1457103714
C   C38       1.0  0.72322  0.88249  0.46809  1.0000 -0.1457103714
C   C39       1.0  0.88249  0.46809  0.72322  1.0000 -0.1457103714
C   C40       1.0  0.27678  0.53191  0.11751  1.0000 -0.1449131474
C   C41       1.0  0.11751  0.27678  0.53191  1.0000 -0.1457103714
C   C42       1.0  0.53191  0.11751  0.27678  1.0000 -0.1457103714
C   C43       1.0  0.53191  0.27678  0.11751  1.0000 -0.1449131474
C   C44       1.0  0.27678  0.11751  0.53191  1.0000 -0.1457103714
C   C45       1.0  0.11751  0.53191  0.27678  1.0000 -0.1457103714
C   C46       1.0  0.72322  0.46809  0.88249  1.0000 -0.1457103714
C   C47       1.0  0.88249  0.72322  0.46809  1.0000 -0.1457103714
C   C48       1.0  0.46809  0.88249  0.72322  1.0000 -0.1457103714
C   C49       1.0  0.50734  0.79073  0.93563  1.0000 0.0708663388
C   C50       1.0  0.79073  0.93563  0.50734  1.0000 0.0708663388
C   C51       1.0  0.93563  0.50734  0.79073  1.0000 0.0708663388
C   C52       1.0  0.20927  0.49266  0.06437  1.0000 0.0708663388
C   C53       1.0  0.06437  0.20927  0.49266  1.0000 0.0708663388
C   C54       1.0  0.49266  0.06437  0.20927  1.0000 0.0708663388
C   C55       1.0  0.49266  0.20927  0.06437  1.0000 0.0708663388
C   C56       1.0  0.20927  0.06437  0.49266  1.0000 0.0708663388
C   C57       1.0  0.06437  0.49266  0.20927  1.0000 0.0708663388
C   C58       1.0  0.79073  0.50734  0.93563  1.0000 0.0708663388
C   C59       1.0  0.93563  0.79073  0.50734  1.0000 0.0708663388
C   C60       1.0  0.50734  0.93563  0.79073  1.0000 0.0708663388
C   C61       1.0  0.55225  0.80153  0.00622  1.0000 -0.165762634
C   C62       1.0  0.80153  0.00622  0.55225  1.0000 -0.1649981394
C   C63       1.0  0.00622  0.55225  0.80153  1.0000 -0.165762634
C   C64       1.0  0.19847  0.44775  0.99378  1.0000 -0.165762634
C   C65       1.0  0.99378  0.19847  0.44775  1.0000 -0.165762634
C   C66       1.0  0.44775  0.99378  0.19847  1.0000 -0.165762634
C   C67       1.0  0.44775  0.19847  0.99378  1.0000 -0.165762634
C   C68       1.0  0.19847  0.99378  0.44775  1.0000 -0.165762634
C   C69       1.0  0.99378  0.44775  0.19847  1.0000 -0.165762634
C   C70       1.0  0.80153  0.55225  0.00622  1.0000 -0.165762634
C   C71       1.0  0.00622  0.80153  0.55225  1.0000 -0.165762634
C   C72       1.0  0.55225  0.00622  0.80153  1.0000 -0.165762634
C   C73       1.0  0.54672  0.73843  0.01485  1.0000 -0.0897645344
C   C74       1.0  0.73843  0.01485  0.54672  1.0000 -0.0897645344
C   C75       1.0  0.01485  0.54672  0.73843  1.0000 -0.0897645344
C   C76       1.0  0.26157  0.45328  0.98515  1.0000 -0.0897645344
C   C77       1.0  0.98515  0.26157  0.45328  1.0000 -0.0897645344
C   C78       1.0  0.45328  0.98515  0.26157  1.0000 -0.0897645344
C   C79       1.0  0.45328  0.26157  0.98515  1.0000 -0.0897645344
C   C80       1.0  0.26157  0.98515  0.45328  1.0000 -0.0897645344
C   C81       1.0  0.98515  0.45328  0.26157  1.0000 -0.0897645344
C   C82       1.0  0.73843  0.54672  0.01485  1.0000 -0.0897645344
C   C83       1.0  0.01485  0.73843  0.54672  1.0000 -0.0897645344
C   C84       1.0  0.54672  0.01485  0.73843  1.0000 -0.0897645344
C   C85       1.0  0.50713  0.85602  0.92575  1.0000 -0.0104388454
C   C86       1.0  0.85602  0.92575  0.50713  1.0000 -0.0104388454
C   C87       1.0  0.92575  0.50713  0.85602  1.0000 -0.0104388454
C   C88       1.0  0.14398  0.49287  0.07425  1.0000 -0.0104388454
C   C89       1.0  0.07425  0.14398  0.49287  1.0000 -0.0104388454
C   C90       1.0  0.49287  0.07425  0.14398  1.0000 -0.0104388454
C   C91       1.0  0.49287  0.14398  0.07425  1.0000 -0.0104388454
C   C92       1.0  0.14398  0.07425  0.49287  1.0000 -0.0104388454
C   C93       1.0  0.07425  0.49287  0.14398  1.0000 -0.0104388454
C   C94       1.0  0.85602  0.50713  0.92575  1.0000 -0.0104388454
C   C95       1.0  0.92575  0.85602  0.50713  1.0000 -0.0104388454
C   C96       1.0  0.50713  0.92575  0.85602  1.0000 -0.0104388454
C   C97       1.0  0.50404  0.91047  0.97849  1.0000 -0.1927497752
C   C98       1.0  0.91047  0.97849  0.50404  1.0000 -0.1927497752
C   C99       1.0  0.97849  0.50404  0.91047  1.0000 -0.1927497752
C   C100      1.0  0.08953  0.49596  0.02151  1.0000 -0.1927497752
C   C101      1.0  0.02151  0.08953  0.49596  1.0000 -0.1927497752
C   C102      1.0  0.49596  0.02151  0.08953  1.0000 -0.1927497752
C   C103      1.0  0.49596  0.08953  0.02151  1.0000 -0.1927497752
C   C104      1.0  0.08953  0.02151  0.49596  1.0000 -0.1927497752
C   C105      1.0  0.02151  0.49596  0.08953  1.0000 -0.1927497752
C   C106      1.0  0.91047  0.50404  0.97849  1.0000 -0.1927497752
C   C107      1.0  0.97849  0.91047  0.50404  1.0000 -0.1927497752
C   C108      1.0  0.50404  0.97849  0.91047  1.0000 -0.1927497752
C   C109      1.0  0.50470  0.97325  0.97325  1.0000 0.075618726
C   C110      1.0  0.97325  0.97325  0.50470  1.0000 0.075618726
C   C111      1.0  0.97325  0.50470  0.97325  1.0000 0.075618726
C   C112      1.0  0.02675  0.49530  0.02675  1.0000 0.075618726
C   C113      1.0  0.02675  0.02675  0.49530  1.0000 0.075618726
C   C114      1.0  0.49530  0.02675  0.02675  1.0000 0.0708663388
C   C115      1.0  0.50990  0.86535  0.86535  1.0000 0.1044624245
C   C116      1.0  0.86535  0.86535  0.50990  1.0000 0.1044624245
C   C117      1.0  0.86535  0.50990  0.86535  1.0000 0.1131572904
C   C118      1.0  0.13465  0.49010  0.13465  1.0000 0.1131572904
C   C119      1.0  0.13465  0.13465  0.49010  1.0000 0.1131572904
C   C120      1.0  0.49010  0.13465  0.13465  1.0000 0.1044624245
C   C121      1.0  0.56450  0.74790  0.74790  1.0000 -0.5312046414
C   C122      1.0  0.74790  0.74790  0.56450  1.0000 -0.5312046414
C   C123      1.0  0.74790  0.56450  0.74790  1.0000 -0.5312046414
C   C124      1.0  0.25210  0.43550  0.25210  1.0000 -0.5312046414
C   C125      1.0  0.25210  0.25210  0.43550  1.0000 -0.5312046414
C   C126      1.0  0.43550  0.25210  0.25210  1.0000 -0.5312046414
C   C127      1.0  0.64030  0.86300  0.86300  1.0000 -0.560098132
C   C128      1.0  0.86300  0.86300  0.64030  1.0000 -0.560098132
C   C129      1.0  0.86300  0.64030  0.86300  1.0000 -0.560098132
C   C130      1.0  0.13700  0.35970  0.13700  1.0000 -0.560098132
C   C131      1.0  0.13700  0.13700  0.35970  1.0000 -0.560098132
C   C132      1.0  0.35970  0.13700  0.13700  1.0000 -0.560098132
C   C133      1.0  0.55910  0.80700  0.80700  1.0000 0.4118865922
C   C134      1.0  0.80700  0.80700  0.55910  1.0000 0.4118865922
C   C135      1.0  0.80700  0.55910  0.80700  1.0000 0.4186816633
C   C136      1.0  0.19300  0.44090  0.19300  1.0000 0.4186816633
C   C137      1.0  0.19300  0.19300  0.44090  1.0000 0.4186816633
C   C138      1.0  0.44090  0.19300  0.19300  1.0000 0.4186816633
O   O1        1.0  0.54172  0.62056  0.03932  1.0000 -0.5080344086
O   O2        1.0  0.62056  0.03932  0.54172  1.0000 -0.5080344086
O   O3        1.0  0.03932  0.54172  0.62056  1.0000 -0.5080344086
O   O4        1.0  0.37944  0.45828  0.96068  1.0000 -0.5080344086
O   O5        1.0  0.96068  0.37944  0.45828  1.0000 -0.5080344086
O   O6        1.0  0.45828  0.96068  0.37944  1.0000 -0.5080344086
O   O7        1.0  0.45828  0.37944  0.96068  1.0000 -0.5080344086
O   O8        1.0  0.37944  0.96068  0.45828  1.0000 -0.5080344086
O   O9        1.0  0.96068  0.45828  0.37944  1.0000 -0.5080344086
O   O10       1.0  0.62056  0.54172  0.03932  1.0000 -0.5080344086
O   O11       1.0  0.03932  0.62056  0.54172  1.0000 -0.5080344086
O   O12       1.0  0.54172  0.03932  0.62056  1.0000 -0.5080344086
O   O13       1.0  0.46634  0.54464  0.92092  1.0000 -0.4833316758
O   O14       1.0  0.54464  0.92092  0.46634  1.0000 -0.4833316758
O   O15       1.0  0.92092  0.46634  0.54464  1.0000 -0.4833316758
O   O16       1.0  0.45536  0.53366  0.07908  1.0000 -0.4833316758
O   O17       1.0  0.07908  0.45536  0.53366  1.0000 -0.4833316758
O   O18       1.0  0.53366  0.07908  0.45536  1.0000 -0.4833316758
O   O19       1.0  0.53366  0.45536  0.07908  1.0000 -0.4833316758
O   O20       1.0  0.45536  0.07908  0.53366  1.0000 -0.4833316758
O   O21       1.0  0.07908  0.53366  0.45536  1.0000 -0.4833316758
O   O22       1.0  0.54464  0.46634  0.92092  1.0000 -0.4833316758
O   O23       1.0  0.92092  0.54464  0.46634  1.0000 -0.4833316758
O   O24       1.0  0.46634  0.92092  0.54464  1.0000 -0.4833316758
O   O25       1.0  0.50976  0.80992  0.80992  1.0000 -0.21134312
O   O26       1.0  0.80992  0.80992  0.50976  1.0000 -0.21134312
O   O27       1.0  0.80992  0.50976  0.80992  1.0000 -0.21134312
O   O28       1.0  0.19008  0.49024  0.19008  1.0000 -0.21134312
O   O29       1.0  0.19008  0.19008  0.49024  1.0000 -0.21134312
O   O30       1.0  0.49024  0.19008  0.19008  1.0000 -0.21134312
