# DDEC6 charges by PACMAN v1.1 (https://github.com/mtap-research/PACMAN-charge/)
data_2016[CuPd][fof]3[ASR]1
_chemical_formula_sum              "Cu6 H18 Pd3 C42 N6 Cl12 O24"
_cell_length_a       15.1869
_cell_length_b       15.1869
_cell_length_c       15.1869
_cell_angle_alpha    76.9561
_cell_angle_beta     76.9561
_cell_angle_gamma    76.9561

_symmetry_space_group_name_H-M    "P 1"
_symmetry_Int_Tables_number       1

loop_
  _symmetry_equiv_pos_as_xyz
  'x, y, z'

loop_
  _atom_site_type_symbol
  _atom_site_label
  _atom_site_symmetry_multiplicity
  _atom_site_fract_x
  _atom_site_fract_y
  _atom_site_fract_z
  _atom_site_occupancy
  _atom_site_charge
Cu  Cu1       1.0  0.07961  0.51406  0.51406  1.0000 0.8725699366
Cu  Cu2       1.0  0.51406  0.51406  0.07961  1.0000 0.8725699366
Cu  Cu3       1.0  0.51406  0.07961  0.51406  1.0000 0.8725699366
Cu  Cu4       1.0  0.92039  0.48594  0.48594  1.0000 0.8725699366
Cu  Cu5       1.0  0.48594  0.92039  0.48594  1.0000 0.8725699366
Cu  Cu6       1.0  0.48594  0.48594  0.92039  1.0000 0.8725699366
H   H1        1.0  0.98760  0.50940  0.19490  1.0000 0.1153721989
H   H2        1.0  0.50940  0.19490  0.98760  1.0000 0.1145526872
H   H3        1.0  0.19490  0.98760  0.50940  1.0000 0.1153721989
H   H4        1.0  0.01240  0.80510  0.49060  1.0000 0.1145526872
H   H5        1.0  0.49060  0.01240  0.80510  1.0000 0.1145526872
H   H6        1.0  0.80510  0.49060  0.01240  1.0000 0.1145526872
H   H7        1.0  0.01240  0.49060  0.80510  1.0000 0.1145526872
H   H8        1.0  0.49060  0.80510  0.01240  1.0000 0.1145526872
H   H9        1.0  0.80510  0.01240  0.49060  1.0000 0.1145526872
H   H10       1.0  0.98760  0.19490  0.50940  1.0000 0.1153721989
H   H11       1.0  0.50940  0.98760  0.19490  1.0000 0.1145526872
H   H12       1.0  0.19490  0.50940  0.98760  1.0000 0.1145526872
H   H13       1.0  0.23395  0.52640  0.23395  1.0000 0.1468487115
H   H14       1.0  0.52640  0.23395  0.23395  1.0000 0.1468487115
H   H15       1.0  0.23395  0.23395  0.52640  1.0000 0.1468487115
H   H16       1.0  0.76605  0.76605  0.47360  1.0000 0.1468487115
H   H17       1.0  0.47360  0.76605  0.76605  1.0000 0.1468487115
H   H18       1.0  0.76605  0.47360  0.76605  1.0000 0.1468487115
Pd  Pd1       1.0  0.00000  0.50000  0.00000  1.0000 0.459623623
Pd  Pd2       1.0  0.50000  0.00000  0.00000  1.0000 0.459623623
Pd  Pd3       1.0  0.00000  0.00000  0.50000  1.0000 0.459623623
C   C1        1.0  0.04920  0.51250  0.17190  1.0000 0.0811214143
C   C2        1.0  0.51250  0.17190  0.04920  1.0000 0.0811214143
C   C3        1.0  0.17190  0.04920  0.51250  1.0000 0.0811214143
C   C4        1.0  0.95080  0.82810  0.48750  1.0000 0.0811214143
C   C5        1.0  0.48750  0.95080  0.82810  1.0000 0.0811214143
C   C6        1.0  0.82810  0.48750  0.95080  1.0000 0.0811214143
C   C7        1.0  0.95080  0.48750  0.82810  1.0000 0.0811214143
C   C8        1.0  0.48750  0.82810  0.95080  1.0000 0.0811214143
C   C9        1.0  0.82810  0.95080  0.48750  1.0000 0.0811214143
C   C10       1.0  0.04920  0.17190  0.51250  1.0000 0.0811214143
C   C11       1.0  0.51250  0.04920  0.17190  1.0000 0.0811214143
C   C12       1.0  0.17190  0.51250  0.04920  1.0000 0.0811214143
C   C13       1.0  0.06550  0.51650  0.33040  1.0000 0.581194081
C   C14       1.0  0.51650  0.33040  0.06550  1.0000 0.581194081
C   C15       1.0  0.33040  0.06550  0.51650  1.0000 0.581194081
C   C16       1.0  0.93450  0.66960  0.48350  1.0000 0.581194081
C   C17       1.0  0.48350  0.93450  0.66960  1.0000 0.581194081
C   C18       1.0  0.66960  0.48350  0.93450  1.0000 0.581194081
C   C19       1.0  0.93450  0.48350  0.66960  1.0000 0.581194081
C   C20       1.0  0.48350  0.66960  0.93450  1.0000 0.581194081
C   C21       1.0  0.66960  0.93450  0.48350  1.0000 0.581194081
C   C22       1.0  0.06550  0.33040  0.51650  1.0000 0.581194081
C   C23       1.0  0.51650  0.06550  0.33040  1.0000 0.581194081
C   C24       1.0  0.33040  0.51650  0.06550  1.0000 0.581194081
C   C25       1.0  0.10451  0.51841  0.23011  1.0000 -0.0494133787
C   C26       1.0  0.51841  0.23011  0.10451  1.0000 -0.0494133787
C   C27       1.0  0.23011  0.10451  0.51841  1.0000 -0.0494133787
C   C28       1.0  0.89549  0.76989  0.48159  1.0000 -0.0494133787
C   C29       1.0  0.48159  0.89549  0.76989  1.0000 -0.0494133787
C   C30       1.0  0.76989  0.48159  0.89549  1.0000 -0.0494133787
C   C31       1.0  0.89549  0.48159  0.76989  1.0000 -0.0494133787
C   C32       1.0  0.48159  0.76989  0.89549  1.0000 -0.0494133787
C   C33       1.0  0.76989  0.89549  0.48159  1.0000 -0.0494133787
C   C34       1.0  0.10451  0.23011  0.51841  1.0000 -0.0494133787
C   C35       1.0  0.51841  0.10451  0.23011  1.0000 -0.0494133787
C   C36       1.0  0.23011  0.51841  0.10451  1.0000 -0.0494133787
C   C37       1.0  0.19575  0.52180  0.19575  1.0000 -0.0494133787
C   C38       1.0  0.52180  0.19575  0.19575  1.0000 -0.0494133787
C   C39       1.0  0.19575  0.19575  0.52180  1.0000 -0.0494133787
C   C40       1.0  0.80425  0.80425  0.47820  1.0000 -0.0494133787
C   C41       1.0  0.47820  0.80425  0.80425  1.0000 -0.0494133787
C   C42       1.0  0.80425  0.47820  0.80425  1.0000 -0.0494133787
N   N1        1.0  0.08265  0.51100  0.08265  1.0000 -0.132752023
N   N2        1.0  0.51100  0.08265  0.08265  1.0000 -0.132752023
N   N3        1.0  0.08265  0.08265  0.51100  1.0000 -0.132752023
N   N4        1.0  0.91735  0.91735  0.48900  1.0000 -0.132752023
N   N5        1.0  0.48900  0.91735  0.91735  1.0000 -0.132752023
N   N6        1.0  0.91735  0.48900  0.91735  1.0000 -0.132752023
Cl  Cl1       1.0  0.09596  0.36796  0.96296  1.0000 -0.2182243178
Cl  Cl2       1.0  0.36796  0.96296  0.09596  1.0000 -0.2182243178
Cl  Cl3       1.0  0.96296  0.09596  0.36796  1.0000 -0.2182243178
Cl  Cl4       1.0  0.90404  0.03704  0.63204  1.0000 -0.2182243178
Cl  Cl5       1.0  0.63204  0.90404  0.03704  1.0000 -0.2182243178
Cl  Cl6       1.0  0.03704  0.63204  0.90404  1.0000 -0.2182243178
Cl  Cl7       1.0  0.90404  0.63204  0.03704  1.0000 -0.2182243178
Cl  Cl8       1.0  0.63204  0.03704  0.90404  1.0000 -0.2142992138
Cl  Cl9       1.0  0.03704  0.90404  0.63204  1.0000 -0.2182243178
Cl  Cl10      1.0  0.09596  0.96296  0.36796  1.0000 -0.2182243178
Cl  Cl11      1.0  0.36796  0.09596  0.96296  1.0000 -0.2182243178
Cl  Cl12      1.0  0.96296  0.36796  0.09596  1.0000 -0.2182243178
O   O1        1.0  0.11631  0.52441  0.38001  1.0000 -0.5044329761
O   O2        1.0  0.52441  0.38001  0.11631  1.0000 -0.5044329761
O   O3        1.0  0.38001  0.11631  0.52441  1.0000 -0.5044329761
O   O4        1.0  0.88369  0.61999  0.47559  1.0000 -0.5044329761
O   O5        1.0  0.47559  0.88369  0.61999  1.0000 -0.5054455518
O   O6        1.0  0.61999  0.47559  0.88369  1.0000 -0.5044329761
O   O7        1.0  0.88369  0.47559  0.61999  1.0000 -0.5054455518
O   O8        1.0  0.47559  0.61999  0.88369  1.0000 -0.5044329761
O   O9        1.0  0.61999  0.88369  0.47559  1.0000 -0.5044329761
O   O10       1.0  0.11631  0.38001  0.52441  1.0000 -0.5044329761
O   O11       1.0  0.52441  0.11631  0.38001  1.0000 -0.5044329761
O   O12       1.0  0.38001  0.52441  0.11631  1.0000 -0.5044329761
O   O13       1.0  0.98278  0.50208  0.35698  1.0000 -0.5386932461
O   O14       1.0  0.50208  0.35698  0.98278  1.0000 -0.5386932461
O   O15       1.0  0.35698  0.98278  0.50208  1.0000 -0.5386932461
O   O16       1.0  0.01722  0.64302  0.49792  1.0000 -0.5386932461
O   O17       1.0  0.49792  0.01722  0.64302  1.0000 -0.5386932461
O   O18       1.0  0.64302  0.49792  0.01722  1.0000 -0.5386932461
O   O19       1.0  0.01722  0.49792  0.64302  1.0000 -0.5386932461
O   O20       1.0  0.49792  0.64302  0.01722  1.0000 -0.5386932461
O   O21       1.0  0.64302  0.01722  0.49792  1.0000 -0.5386932461
O   O22       1.0  0.98278  0.35698  0.50208  1.0000 -0.5386932461
O   O23       1.0  0.50208  0.98278  0.35698  1.0000 -0.5386932461
O   O24       1.0  0.35698  0.50208  0.98278  1.0000 -0.5386932461
