# DDEC6 charges by PACMAN v1.1 (https://github.com/mtap-research/PACMAN-charge/)
data_2016[Ni][neb]3[ASR]2
_chemical_formula_sum              "Ni4 H56 C72 N8 O16"
_cell_length_a       19.6919
_cell_length_b       19.6919
_cell_length_c       9.373
_cell_angle_alpha    78.574
_cell_angle_beta     101.426
_cell_angle_gamma    140.439

_symmetry_space_group_name_H-M    "P 1"
_symmetry_Int_Tables_number       1

loop_
  _symmetry_equiv_pos_as_xyz
  'x, y, z'

loop_
  _atom_site_type_symbol
  _atom_site_label
  _atom_site_symmetry_multiplicity
  _atom_site_fract_x
  _atom_site_fract_y
  _atom_site_fract_z
  _atom_site_occupancy
  _atom_site_charge
Ni  Ni1       1.0  0.92141  0.64565  0.83437  1.0000 0.7134887536
Ni  Ni2       1.0  0.64565  0.92141  0.66563  1.0000 0.7134887536
Ni  Ni3       1.0  0.07859  0.35435  0.16563  1.0000 0.7134887536
Ni  Ni4       1.0  0.35435  0.07859  0.33437  1.0000 0.7134887536
H   H1        1.0  0.98040  0.47840  0.22040  1.0000 0.1300829162
H   H2        1.0  0.47840  0.98040  0.27960  1.0000 0.1300829162
H   H3        1.0  0.01960  0.52160  0.77960  1.0000 0.1300829162
H   H4        1.0  0.52160  0.01960  0.72040  1.0000 0.1300829162
H   H5        1.0  0.95650  0.52610  0.99220  1.0000 0.1098346838
H   H6        1.0  0.52610  0.95650  0.50780  1.0000 0.1098346838
H   H7        1.0  0.04350  0.47390  0.00780  1.0000 0.1098346838
H   H8        1.0  0.47390  0.04350  0.49220  1.0000 0.1098346838
H   H9        1.0  0.34670  0.79830  0.65680  1.0000 0.1098346838
H   H10       1.0  0.79830  0.34670  0.84320  1.0000 0.1098346838
H   H11       1.0  0.65330  0.20170  0.34320  1.0000 0.1098346838
H   H12       1.0  0.20170  0.65330  0.15680  1.0000 0.1098346838
H   H13       1.0  0.32450  0.71490  0.93810  1.0000 0.1300829162
H   H14       1.0  0.71490  0.32450  0.56190  1.0000 0.1300829162
H   H15       1.0  0.67550  0.28510  0.06190  1.0000 0.1300829162
H   H16       1.0  0.28510  0.67550  0.43810  1.0000 0.1300829162
H   H17       1.0  0.95730  0.63370  0.37970  1.0000 0.1575174739
H   H18       1.0  0.63370  0.95730  0.12030  1.0000 0.1575174739
H   H19       1.0  0.04270  0.36630  0.62030  1.0000 0.1575174739
H   H20       1.0  0.36630  0.04270  0.87970  1.0000 0.1575174739
H   H21       1.0  0.19420  0.71100  0.84390  1.0000 0.1098346838
H   H22       1.0  0.71100  0.19420  0.65610  1.0000 0.1098346838
H   H23       1.0  0.80580  0.28900  0.15610  1.0000 0.1098346838
H   H24       1.0  0.28900  0.80580  0.34390  1.0000 0.1098346838
H   H25       1.0  0.22970  0.80910  0.57080  1.0000 0.1209381593
H   H26       1.0  0.80910  0.22970  0.92920  1.0000 0.1209381593
H   H27       1.0  0.77030  0.19090  0.42920  1.0000 0.1209381593
H   H28       1.0  0.19090  0.77030  0.07080  1.0000 0.1209381593
H   H29       1.0  0.98250  0.54410  0.55570  1.0000 0.1209381593
H   H30       1.0  0.54410  0.98250  0.94430  1.0000 0.1209381593
H   H31       1.0  0.01750  0.45590  0.44430  1.0000 0.1209381593
H   H32       1.0  0.45590  0.01750  0.05570  1.0000 0.1209381593
H   H33       1.0  0.93820  0.68020  0.14730  1.0000 0.1098346838
H   H34       1.0  0.68020  0.93820  0.35270  1.0000 0.1098346838
H   H35       1.0  0.06180  0.31980  0.85270  1.0000 0.1098346838
H   H36       1.0  0.31980  0.06180  0.64730  1.0000 0.1098346838
H   H37       1.0  0.69800  0.67460  0.90950  1.0000 0.1209381593
H   H38       1.0  0.67460  0.69800  0.59050  1.0000 0.1209381593
H   H39       1.0  0.30200  0.32540  0.09050  1.0000 0.1209381593
H   H40       1.0  0.32540  0.30200  0.40950  1.0000 0.1209381593
H   H41       1.0  0.84410  0.73110  0.84900  1.0000 0.1016582359
H   H42       1.0  0.73110  0.84410  0.65100  1.0000 0.1016582359
H   H43       1.0  0.15590  0.26890  0.15100  1.0000 0.1016582359
H   H44       1.0  0.26890  0.15590  0.34900  1.0000 0.1016582359
H   H45       1.0  0.45370  0.40230  0.03250  1.0000 0.1209381593
H   H46       1.0  0.40230  0.45370  0.46750  1.0000 0.1209381593
H   H47       1.0  0.54630  0.59770  0.96750  1.0000 0.1209381593
H   H48       1.0  0.59770  0.54630  0.53250  1.0000 0.1209381593
H   H49       1.0  0.55370  0.38230  0.99620  1.0000 0.1575174739
H   H50       1.0  0.38230  0.55370  0.50380  1.0000 0.1575174739
H   H51       1.0  0.44630  0.61770  0.00380  1.0000 0.1575174739
H   H52       1.0  0.61770  0.44630  0.49620  1.0000 0.1575174739
H   H53       1.0  0.70150  0.44590  0.93450  1.0000 0.1209381593
H   H54       1.0  0.44590  0.70150  0.56550  1.0000 0.1209381593
H   H55       1.0  0.29850  0.55410  0.06550  1.0000 0.1209381593
H   H56       1.0  0.55410  0.29850  0.43450  1.0000 0.1209381593
C   C1        1.0  0.97165  0.51935  0.20830  1.0000 -0.1923518966
C   C2        1.0  0.51935  0.97165  0.29170  1.0000 -0.1923518966
C   C3        1.0  0.02835  0.48065  0.79170  1.0000 -0.1923518966
C   C4        1.0  0.48065  0.02835  0.70830  1.0000 -0.1923518966
C   C5        1.0  0.95728  0.54852  0.07160  1.0000 0.0794726011
C   C6        1.0  0.54852  0.95728  0.42840  1.0000 0.0794726011
C   C7        1.0  0.04272  0.45148  0.92840  1.0000 0.0794726011
C   C8        1.0  0.45148  0.04272  0.57160  1.0000 0.0794726011
C   C9        1.0  0.31674  0.76906  0.74640  1.0000 -0.063103095
C   C10       1.0  0.76906  0.31674  0.75360  1.0000 -0.063103095
C   C11       1.0  0.68326  0.23094  0.25360  1.0000 -0.063103095
C   C12       1.0  0.23094  0.68326  0.24640  1.0000 -0.063103095
C   C13       1.0  0.35816  0.75124  0.85140  1.0000 -0.2481617074
C   C14       1.0  0.75124  0.35816  0.64860  1.0000 -0.2481617074
C   C15       1.0  0.64184  0.24876  0.14860  1.0000 -0.2481617074
C   C16       1.0  0.24876  0.64184  0.35140  1.0000 -0.2481617074
C   C17       1.0  0.95850  0.61150  0.30220  1.0000 -0.1550047736
C   C18       1.0  0.61150  0.95850  0.19780  1.0000 -0.1550047736
C   C19       1.0  0.04150  0.38850  0.69780  1.0000 -0.1550047736
C   C20       1.0  0.38850  0.04150  0.80220  1.0000 -0.1550047736
C   C21       1.0  0.22932  0.74708  0.75830  1.0000 -0.0712052475
C   C22       1.0  0.74708  0.22932  0.74170  1.0000 -0.0712052475
C   C23       1.0  0.77068  0.25292  0.24170  1.0000 -0.0712052475
C   C24       1.0  0.25292  0.77068  0.25830  1.0000 -0.0712052475
C   C25       1.0  0.19572  0.77428  0.65740  1.0000 -0.2283755134
C   C26       1.0  0.77428  0.19572  0.84260  1.0000 -0.2283755134
C   C27       1.0  0.80428  0.22572  0.34260  1.0000 -0.2283755134
C   C28       1.0  0.22572  0.80428  0.15740  1.0000 -0.2283755134
C   C29       1.0  0.98884  0.52456  0.48120  1.0000 -0.1141141246
C   C30       1.0  0.52456  0.98884  0.01880  1.0000 -0.1141141246
C   C31       1.0  0.01116  0.47544  0.51880  1.0000 -0.1141141246
C   C32       1.0  0.47544  0.01116  0.98120  1.0000 -0.1141141246
C   C33       1.0  0.97290  0.55150  0.32950  1.0000 0.1659557928
C   C34       1.0  0.55150  0.97290  0.17050  1.0000 0.1659557928
C   C35       1.0  0.02710  0.44850  0.67050  1.0000 0.1659557928
C   C36       1.0  0.44850  0.02710  0.82950  1.0000 0.1659557928
C   C37       1.0  0.45626  0.78674  0.83770  1.0000 0.6017310281
C   C38       1.0  0.78674  0.45626  0.66230  1.0000 0.6017310281
C   C39       1.0  0.54374  0.21326  0.16230  1.0000 0.6017310281
C   C40       1.0  0.21326  0.54374  0.33770  1.0000 0.6017310281
C   C41       1.0  0.10643  0.75277  0.67280  1.0000 0.6017310281
C   C42       1.0  0.75277  0.10643  0.82720  1.0000 0.6017310281
C   C43       1.0  0.89357  0.24723  0.32720  1.0000 0.6017310281
C   C44       1.0  0.24723  0.89357  0.17280  1.0000 0.6017310281
C   C45       1.0  0.94590  0.63830  0.16220  1.0000 0.0794726011
C   C46       1.0  0.63830  0.94590  0.33780  1.0000 0.0794726011
C   C47       1.0  0.05410  0.36170  0.83780  1.0000 0.0794726011
C   C48       1.0  0.36170  0.05410  0.66220  1.0000 0.0794726011
C   C49       1.0  0.69670  0.62590  0.91500  1.0000 -0.2134169194
C   C50       1.0  0.62590  0.69670  0.58500  1.0000 -0.2134169194
C   C51       1.0  0.30330  0.37410  0.08500  1.0000 -0.2134169194
C   C52       1.0  0.37410  0.30330  0.41500  1.0000 -0.2134169194
C   C53       1.0  0.78491  0.65969  0.87970  1.0000 0.0653420498
C   C54       1.0  0.65969  0.78491  0.62030  1.0000 0.0653420498
C   C55       1.0  0.21509  0.34031  0.12030  1.0000 0.0653420498
C   C56       1.0  0.34031  0.21509  0.37970  1.0000 0.0653420498
C   C57       1.0  0.60580  0.51840  0.95880  1.0000 0.1481991072
C   C58       1.0  0.51840  0.60580  0.54120  1.0000 0.1481991072
C   C59       1.0  0.39420  0.48160  0.04120  1.0000 0.1481991072
C   C60       1.0  0.48160  0.39420  0.45880  1.0000 0.1481991072
C   C61       1.0  0.50820  0.47440  0.00120  1.0000 -0.1292938183
C   C62       1.0  0.47440  0.50820  0.49880  1.0000 -0.1292938183
C   C63       1.0  0.49180  0.52560  0.99880  1.0000 -0.1292938183
C   C64       1.0  0.52560  0.49180  0.50120  1.0000 -0.1292938183
C   C65       1.0  0.61140  0.45420  0.96610  1.0000 -0.1770543645
C   C66       1.0  0.45420  0.61140  0.53390  1.0000 -0.1770543645
C   C67       1.0  0.38860  0.54580  0.03390  1.0000 -0.1770543645
C   C68       1.0  0.54580  0.38860  0.46610  1.0000 -0.1770543645
C   C69       1.0  0.70137  0.49343  0.92970  1.0000 0.088776793
C   C70       1.0  0.49343  0.70137  0.57030  1.0000 0.088776793
C   C71       1.0  0.29863  0.50657  0.07030  1.0000 0.088776793
C   C72       1.0  0.50657  0.29863  0.42970  1.0000 0.088776793
N   N1        1.0  0.94412  0.60728  0.04510  1.0000 -0.2134169194
N   N2        1.0  0.60728  0.94412  0.45490  1.0000 -0.2134169194
N   N3        1.0  0.05588  0.39272  0.95490  1.0000 -0.2134169194
N   N4        1.0  0.39272  0.05588  0.54510  1.0000 -0.2134169194
N   N5        1.0  0.78814  0.59466  0.88810  1.0000 -0.2203556339
N   N6        1.0  0.59466  0.78814  0.61190  1.0000 -0.2203556339
N   N7        1.0  0.21186  0.40534  0.11190  1.0000 -0.2203556339
N   N8        1.0  0.40534  0.21186  0.38810  1.0000 -0.2203556339
O   O1        1.0  0.05068  0.69212  0.78010  1.0000 -0.5465045239
O   O2        1.0  0.69212  0.05068  0.71990  1.0000 -0.5465045239
O   O3        1.0  0.94932  0.30788  0.21990  1.0000 -0.5465045239
O   O4        1.0  0.30788  0.94932  0.28010  1.0000 -0.5465045239
O   O5        1.0  0.49589  0.82891  0.71580  1.0000 -0.5465045239
O   O6        1.0  0.82891  0.49589  0.78420  1.0000 -0.5465045239
O   O7        1.0  0.50411  0.17109  0.28420  1.0000 -0.5465045239
O   O8        1.0  0.17109  0.50411  0.21580  1.0000 -0.5465045239
O   O9        1.0  0.09167  0.79573  0.57510  1.0000 -0.5754237215
O   O10       1.0  0.79573  0.09167  0.92490  1.0000 -0.5754237215
O   O11       1.0  0.90833  0.20427  0.42490  1.0000 -0.5754237215
O   O12       1.0  0.20427  0.90833  0.07510  1.0000 -0.5754237215
O   O13       1.0  0.49624  0.77716  0.94910  1.0000 -0.5707715194
O   O14       1.0  0.77716  0.49624  0.55090  1.0000 -0.5707715194
O   O15       1.0  0.50376  0.22284  0.05090  1.0000 -0.5707715194
O   O16       1.0  0.22284  0.50376  0.44910  1.0000 -0.5707715194
