# DDEC6 charges by PACMAN v1.1 (https://github.com/mtap-research/PACMAN-charge/)
data_2016[Sm][nan]3[ASR]3
_chemical_formula_sum              "Sm4 H28 C60 O24"
_cell_length_a       13.9458
_cell_length_b       13.9458
_cell_length_c       14.829
_cell_angle_alpha    84.3446
_cell_angle_beta     95.6554
_cell_angle_gamma    123.635

_symmetry_space_group_name_H-M    "P 1"
_symmetry_Int_Tables_number       1

loop_
  _symmetry_equiv_pos_as_xyz
  'x, y, z'

loop_
  _atom_site_type_symbol
  _atom_site_label
  _atom_site_symmetry_multiplicity
  _atom_site_fract_x
  _atom_site_fract_y
  _atom_site_fract_z
  _atom_site_occupancy
  _atom_site_charge
Sm  Sm1       1.0  0.87933  0.53587  0.96995  1.0000 2.0857224598
Sm  Sm2       1.0  0.53587  0.87933  0.53005  1.0000 2.0857224598
Sm  Sm3       1.0  0.12068  0.46413  0.03005  1.0000 2.0857224598
Sm  Sm4       1.0  0.46413  0.12068  0.46995  1.0000 2.0857224598
H   H1        1.0  0.33380  0.33159  0.87920  1.0000 0.1184501651
H   H2        1.0  0.33159  0.33380  0.62080  1.0000 0.1184501651
H   H3        1.0  0.66620  0.66841  0.12080  1.0000 0.1184501651
H   H4        1.0  0.66840  0.66620  0.37920  1.0000 0.1184501651
H   H5        1.0  0.36350  0.19830  0.83120  1.0000 0.1184501651
H   H6        1.0  0.19829  0.36350  0.66880  1.0000 0.1184501651
H   H7        1.0  0.63650  0.80171  0.16880  1.0000 0.1184501651
H   H8        1.0  0.80171  0.63650  0.33120  1.0000 0.1184501651
H   H9        1.0  0.04440  0.94480  0.89590  1.0000 0.1184501651
H   H10       1.0  0.94480  0.04440  0.60410  1.0000 0.1184501651
H   H11       1.0  0.95560  0.05520  0.10410  1.0000 0.1184501651
H   H12       1.0  0.05521  0.95560  0.39590  1.0000 0.1184501651
H   H13       1.0  0.01500  0.07940  0.94180  1.0000 0.1099571216
H   H14       1.0  0.07940  0.01500  0.55820  1.0000 0.1099571216
H   H15       1.0  0.98500  0.92061  0.05820  1.0000 0.1099571216
H   H16       1.0  0.92061  0.98500  0.44180  1.0000 0.1099571216
H   H17       1.0  0.32730  0.06270  0.72980  1.0000 0.1184501651
H   H18       1.0  0.06270  0.32730  0.77020  1.0000 0.1184501651
H   H19       1.0  0.67270  0.93731  0.27020  1.0000 0.1184501651
H   H20       1.0  0.93731  0.67270  0.22980  1.0000 0.1184501651
H   H21       1.0  0.31430  0.76889  0.78800  1.0000 0.1303564965
H   H22       1.0  0.76889  0.31430  0.71200  1.0000 0.1303564965
H   H23       1.0  0.68570  0.23111  0.21200  1.0000 0.1303564965
H   H24       1.0  0.23111  0.68570  0.28800  1.0000 0.1303564965
H   H25       1.0  0.13760  0.84500  0.93190  1.0000 0.1303564965
H   H26       1.0  0.84500  0.13760  0.56810  1.0000 0.1303564965
H   H27       1.0  0.86240  0.15501  0.06810  1.0000 0.1303564965
H   H28       1.0  0.15500  0.86240  0.43190  1.0000 0.1303564965
C   C1        1.0  0.15493  0.30246  0.95860  1.0000 0.5638532772
C   C2        1.0  0.30246  0.15493  0.54140  1.0000 0.5638532772
C   C3        1.0  0.84507  0.69754  0.04140  1.0000 0.5638532772
C   C4        1.0  0.69754  0.84507  0.45860  1.0000 0.5638532772
C   C5        1.0  0.17261  0.21899  0.91880  1.0000 -0.027648836
C   C6        1.0  0.21899  0.17261  0.58120  1.0000 -0.027648836
C   C7        1.0  0.82739  0.78102  0.08120  1.0000 -0.027648836
C   C8        1.0  0.78102  0.82739  0.41880  1.0000 -0.027648836
C   C9        1.0  0.27572  0.25367  0.88360  1.0000 -0.0942162253
C   C10       1.0  0.25367  0.27572  0.61640  1.0000 -0.0942162253
C   C11       1.0  0.72428  0.74633  0.11640  1.0000 -0.0942162253
C   C12       1.0  0.74633  0.72428  0.38360  1.0000 -0.0942162253
C   C13       1.0  0.29351  0.17349  0.85490  1.0000 -0.1512069904
C   C14       1.0  0.17349  0.29351  0.64510  1.0000 -0.1512069904
C   C15       1.0  0.70649  0.82651  0.14510  1.0000 -0.1512069904
C   C16       1.0  0.82652  0.70649  0.35490  1.0000 -0.1512069904
C   C17       1.0  0.20841  0.05659  0.86088  1.0000 0.0705372974
C   C18       1.0  0.05659  0.20841  0.63912  1.0000 0.0705372974
C   C19       1.0  0.79159  0.94342  0.13912  1.0000 0.0705372974
C   C20       1.0  0.94342  0.79159  0.36088  1.0000 0.0705372974
C   C21       1.0  0.10363  0.02257  0.89300  1.0000 -0.1512069904
C   C22       1.0  0.02256  0.10363  0.60700  1.0000 -0.1512069904
C   C23       1.0  0.89637  0.97744  0.10700  1.0000 -0.1512069904
C   C24       1.0  0.97744  0.89637  0.39300  1.0000 -0.1512069904
C   C25       1.0  0.08623  0.10357  0.92110  1.0000 -0.1016519197
C   C26       1.0  0.10356  0.08623  0.57890  1.0000 -0.1016519197
C   C27       1.0  0.91377  0.89643  0.07890  1.0000 -0.1016519197
C   C28       1.0  0.89643  0.91377  0.42110  1.0000 -0.1016519197
C   C29       1.0  0.23124  0.96996  0.83713  1.0000 0.0565692991
C   C30       1.0  0.96996  0.23124  0.66287  1.0000 0.0565692991
C   C31       1.0  0.76876  0.03004  0.16287  1.0000 0.0565692991
C   C32       1.0  0.03004  0.76876  0.33713  1.0000 0.0565692991
C   C33       1.0  0.30023  0.99437  0.76502  1.0000 -0.1402292193
C   C34       1.0  0.99437  0.30023  0.73498  1.0000 -0.1402292193
C   C35       1.0  0.69977  0.00564  0.23498  1.0000 -0.1402292193
C   C36       1.0  0.00564  0.69977  0.26502  1.0000 -0.1402292193
C   C37       1.0  0.32917  0.91822  0.74499  1.0000 -0.0220220722
C   C38       1.0  0.91823  0.32917  0.75501  1.0000 -0.0220220722
C   C39       1.0  0.67083  0.08178  0.25501  1.0000 -0.0220220722
C   C40       1.0  0.08178  0.67083  0.24499  1.0000 -0.0220220722
C   C41       1.0  0.29156  0.81784  0.79873  1.0000 -0.1016519197
C   C42       1.0  0.81783  0.29156  0.70127  1.0000 -0.1016519197
C   C43       1.0  0.70844  0.18216  0.20127  1.0000 -0.1016519197
C   C44       1.0  0.18217  0.70844  0.29873  1.0000 -0.1016519197
C   C45       1.0  0.21957  0.79039  0.86875  1.0000 -0.0220220722
C   C46       1.0  0.79039  0.21957  0.63125  1.0000 -0.0220220722
C   C47       1.0  0.78043  0.20961  0.13125  1.0000 -0.0220220722
C   C48       1.0  0.20961  0.78043  0.36875  1.0000 -0.0220220722
C   C49       1.0  0.18802  0.86518  0.88653  1.0000 -0.1512069904
C   C50       1.0  0.86518  0.18802  0.61347  1.0000 -0.1512069904
C   C51       1.0  0.81198  0.13483  0.11347  1.0000 -0.1512069904
C   C52       1.0  0.13483  0.81198  0.38653  1.0000 -0.1512069904
C   C53       1.0  0.17890  0.68129  0.92539  1.0000 0.6281041935
C   C54       1.0  0.68129  0.17890  0.57461  1.0000 0.6281041935
C   C55       1.0  0.82110  0.31871  0.07461  1.0000 0.6281041935
C   C56       1.0  0.31871  0.82110  0.42539  1.0000 0.6281041935
C   C57       1.0  0.40100  0.94720  0.66508  1.0000 0.646438016
C   C58       1.0  0.94720  0.40100  0.83492  1.0000 0.646438016
C   C59       1.0  0.59900  0.05280  0.33492  1.0000 0.646438016
C   C60       1.0  0.05280  0.59900  0.16508  1.0000 0.646438016
O   O1        1.0  0.23439  0.40897  0.95550  1.0000 -0.6399414778
O   O2        1.0  0.40897  0.23439  0.54450  1.0000 -0.6399414778
O   O3        1.0  0.76561  0.59103  0.04450  1.0000 -0.6399414778
O   O4        1.0  0.59103  0.76561  0.45550  1.0000 -0.6399414778
O   O5        1.0  0.06326  0.26621  0.99519  1.0000 -0.6221137211
O   O6        1.0  0.26621  0.06326  0.50481  1.0000 -0.6221137211
O   O7        1.0  0.93674  0.73379  0.00481  1.0000 -0.6221137211
O   O8        1.0  0.73379  0.93674  0.49519  1.0000 -0.6221137211
O   O9        1.0  0.08104  0.62930  0.95994  1.0000 -0.7676588611
O   O10       1.0  0.62930  0.08104  0.54006  1.0000 -0.7676588611
O   O11       1.0  0.91896  0.37071  0.04006  1.0000 -0.7676588611
O   O12       1.0  0.37071  0.91896  0.45994  1.0000 -0.7676588611
O   O13       1.0  0.24192  0.64355  0.93821  1.0000 -0.589805232
O   O14       1.0  0.64355  0.24192  0.56179  1.0000 -0.589805232
O   O15       1.0  0.75808  0.35645  0.06179  1.0000 -0.589805232
O   O16       1.0  0.35644  0.75808  0.43821  1.0000 -0.589805232
O   O17       1.0  0.42465  0.87645  0.64743  1.0000 -0.6731713132
O   O18       1.0  0.87645  0.42465  0.85257  1.0000 -0.6731713132
O   O19       1.0  0.57535  0.12355  0.35257  1.0000 -0.6731713132
O   O20       1.0  0.12355  0.57535  0.14743  1.0000 -0.6731713132
O   O21       1.0  0.43242  0.04054  0.62207  1.0000 -0.6399414778
O   O22       1.0  0.04054  0.43242  0.87793  1.0000 -0.6399414778
O   O23       1.0  0.56758  0.95947  0.37793  1.0000 -0.6399414778
O   O24       1.0  0.95947  0.56758  0.12207  1.0000 -0.6399414778
