# DDEC6 charges by PACMAN v1.1 (https://github.com/mtap-research/PACMAN-charge/)
data_2016[Cu][ubo]3[ASR]1
_chemical_formula_sum              "Cu8 H144 C208 N32"
_cell_length_a       23.5173
_cell_length_b       23.5173
_cell_length_c       23.5173
_cell_angle_alpha    110.045
_cell_angle_beta     110.045
_cell_angle_gamma    108.33

_symmetry_space_group_name_H-M    "P 1"
_symmetry_Int_Tables_number       1

loop_
  _symmetry_equiv_pos_as_xyz
  'x, y, z'

loop_
  _atom_site_type_symbol
  _atom_site_label
  _atom_site_symmetry_multiplicity
  _atom_site_fract_x
  _atom_site_fract_y
  _atom_site_fract_z
  _atom_site_occupancy
  _atom_site_charge
Cu  Cu1       1.0  0.74585  0.37500  0.87085  1.0000 0.1931636123
Cu  Cu2       1.0  0.12500  0.75415  0.12915  1.0000 0.1931636123
Cu  Cu3       1.0  0.50415  0.87500  0.12915  1.0000 0.1931636123
Cu  Cu4       1.0  0.62500  0.99585  0.87085  1.0000 0.1931636123
Cu  Cu5       1.0  0.00415  0.87500  0.62915  1.0000 0.1953923854
Cu  Cu6       1.0  0.62500  0.49585  0.37085  1.0000 0.1931636123
Cu  Cu7       1.0  0.24585  0.37500  0.37085  1.0000 0.1931636123
Cu  Cu8       1.0  0.12500  0.25415  0.62915  1.0000 0.1931636123
H   H1        1.0  0.98090  0.14750  0.56600  1.0000 0.0981396569
H   H2        1.0  0.89750  0.83150  0.66667  1.0000 0.0981396569
H   H3        1.0  0.58150  0.41490  0.43400  1.0000 0.0981396569
H   H4        1.0  0.16490  0.23090  0.33340  1.0000 0.0981396569
H   H5        1.0  0.26910  0.33510  0.66667  1.0000 0.0981396569
H   H6        1.0  0.66850  0.60250  0.33340  1.0000 0.0981396569
H   H7        1.0  0.08510  0.91850  0.56600  1.0000 0.0981396569
H   H8        1.0  0.35250  0.51910  0.43400  1.0000 0.0981396569
H   H9        1.0  0.76910  0.10250  0.93400  1.0000 0.0981396569
H   H10       1.0  0.85250  0.41850  0.83340  1.0000 0.0981396569
H   H11       1.0  0.16850  0.83510  0.06600  1.0000 0.0981396569
H   H12       1.0  0.58510  0.01910  0.16660  1.0000 0.0981396569
H   H13       1.0  0.48090  0.91490  0.83340  1.0000 0.0981396569
H   H14       1.0  0.08150  0.64750  0.16660  1.0000 0.0981396569
H   H15       1.0  0.66490  0.33150  0.93400  1.0000 0.0981396569
H   H16       1.0  0.39750  0.73090  0.06600  1.0000 0.0981396569
H   H17       1.0  0.90920  0.10050  0.60250  1.0000 0.1302779377
H   H18       1.0  0.85050  0.74800  0.69130  1.0000 0.1302779377
H   H19       1.0  0.49800  0.30670  0.39750  1.0000 0.1302779377
H   H20       1.0  0.05670  0.15920  0.30870  1.0000 0.1302779377
H   H21       1.0  0.34080  0.44330  0.69130  1.0000 0.1302779377
H   H22       1.0  0.75200  0.64950  0.30870  1.0000 0.1302779377
H   H23       1.0  0.19330  0.00200  0.60250  1.0000 0.1302779377
H   H24       1.0  0.39950  0.59080  0.39750  1.0000 0.1302779377
H   H25       1.0  0.84080  0.14950  0.89750  1.0000 0.1302779377
H   H26       1.0  0.89950  0.50200  0.80870  1.0000 0.1302779377
H   H27       1.0  0.25200  0.94330  0.10250  1.0000 0.1302779377
H   H28       1.0  0.69330  0.09080  0.19130  1.0000 0.1302779377
H   H29       1.0  0.40920  0.80670  0.80870  1.0000 0.1302779377
H   H30       1.0  0.99800  0.60050  0.19130  1.0000 0.1302779377
H   H31       1.0  0.55670  0.24800  0.89750  1.0000 0.1302779377
H   H32       1.0  0.35050  0.65920  0.10250  1.0000 0.1302779377
H   H33       1.0  0.03720  0.27180  0.79340  1.0000 0.1302779377
H   H34       1.0  0.02180  0.72840  0.73460  1.0000 0.1302779377
H   H35       1.0  0.47840  0.24380  0.20660  1.0000 0.1302779377
H   H36       1.0  0.99380  0.28720  0.26540  1.0000 0.1302779377
H   H37       1.0  0.21280  0.50620  0.73460  1.0000 0.1302779377
H   H38       1.0  0.77160  0.47820  0.26540  1.0000 0.1302779377
H   H39       1.0  0.25620  0.02160  0.79340  1.0000 0.1302779377
H   H40       1.0  0.22820  0.46280  0.20660  1.0000 0.1302779377
H   H41       1.0  0.71280  0.97820  0.70660  1.0000 0.1302779377
H   H42       1.0  0.72820  0.52160  0.76540  1.0000 0.1302779377
H   H43       1.0  0.27160  0.00620  0.29340  1.0000 0.1302779377
H   H44       1.0  0.75620  0.96280  0.23460  1.0000 0.1302779377
H   H45       1.0  0.53720  0.74380  0.76540  1.0000 0.1302779377
H   H46       1.0  0.97840  0.77180  0.23460  1.0000 0.1302779377
H   H47       1.0  0.49380  0.22840  0.70660  1.0000 0.1302779377
H   H48       1.0  0.52180  0.78720  0.29340  1.0000 0.1302779377
H   H49       1.0  0.10770  0.31130  0.75220  1.0000 0.0935865299
H   H50       1.0  0.06130  0.80910  0.70360  1.0000 0.0935865299
H   H51       1.0  0.55910  0.35550  0.24780  1.0000 0.0935865299
H   H52       1.0  0.10550  0.35770  0.29640  1.0000 0.0935865299
H   H53       1.0  0.14230  0.39450  0.70360  1.0000 0.0935865299
H   H54       1.0  0.69090  0.43870  0.29640  1.0000 0.0935865299
H   H55       1.0  0.14450  0.94090  0.75220  1.0000 0.0935865299
H   H56       1.0  0.18870  0.39230  0.24780  1.0000 0.0935865299
H   H57       1.0  0.64230  0.93870  0.74780  1.0000 0.0935865299
H   H58       1.0  0.68870  0.44090  0.79640  1.0000 0.0935865299
H   H59       1.0  0.19090  0.89450  0.25220  1.0000 0.0935865299
H   H60       1.0  0.64450  0.89230  0.20360  1.0000 0.0935865299
H   H61       1.0  0.60770  0.85550  0.79640  1.0000 0.0935865299
H   H62       1.0  0.05910  0.81130  0.20360  1.0000 0.0935865299
H   H63       1.0  0.60550  0.30910  0.74780  1.0000 0.0935865299
H   H64       1.0  0.56130  0.85770  0.25220  1.0000 0.0935865299
H   H65       1.0  0.91610  0.23830  0.77380  1.0000 0.1302779377
H   H66       1.0  0.98830  0.71450  0.82220  1.0000 0.1302779377
H   H67       1.0  0.46450  0.14230  0.22620  1.0000 0.1302779377
H   H68       1.0  0.89230  0.16610  0.17780  1.0000 0.1302779377
H   H69       1.0  0.33390  0.60770  0.82220  1.0000 0.1302779377
H   H70       1.0  0.78550  0.51170  0.17780  1.0000 0.1302779377
H   H71       1.0  0.35770  0.03550  0.77380  1.0000 0.1302779377
H   H72       1.0  0.26170  0.58390  0.22620  1.0000 0.1302779377
H   H73       1.0  0.83390  0.01170  0.72620  1.0000 0.1302779377
H   H74       1.0  0.76170  0.53550  0.67780  1.0000 0.1302779377
H   H75       1.0  0.28550  0.10770  0.27380  1.0000 0.1302779377
H   H76       1.0  0.85770  0.08390  0.32220  1.0000 0.1302779377
H   H77       1.0  0.41610  0.64230  0.67780  1.0000 0.1302779377
H   H78       1.0  0.96450  0.73830  0.32220  1.0000 0.1302779377
H   H79       1.0  0.39230  0.21450  0.72620  1.0000 0.1302779377
H   H80       1.0  0.48830  0.66610  0.27380  1.0000 0.1302779377
H   H81       1.0  0.91940  0.29680  0.89060  1.0000 0.1302779377
H   H82       1.0  0.04680  0.65620  0.87740  1.0000 0.1302779377
H   H83       1.0  0.40620  0.02880  0.10940  1.0000 0.1302779377
H   H84       1.0  0.77880  0.16940  0.12260  1.0000 0.1302779377
H   H85       1.0  0.33060  0.72120  0.87740  1.0000 0.1302779377
H   H86       1.0  0.84380  0.45320  0.12260  1.0000 0.1302779377
H   H87       1.0  0.47120  0.09380  0.89060  1.0000 0.1302779377
H   H88       1.0  0.20320  0.58060  0.10940  1.0000 0.1302779377
H   H89       1.0  0.83060  0.95320  0.60940  1.0000 0.1302779377
H   H90       1.0  0.70320  0.59380  0.62260  1.0000 0.1302779377
H   H91       1.0  0.34380  0.22120  0.39060  1.0000 0.1302779377
H   H92       1.0  0.97120  0.08060  0.37740  1.0000 0.1302779377
H   H93       1.0  0.41940  0.52880  0.62260  1.0000 0.1302779377
H   H94       1.0  0.90620  0.79680  0.37740  1.0000 0.1302779377
H   H95       1.0  0.27880  0.15620  0.60940  1.0000 0.1302779377
H   H96       1.0  0.54680  0.66940  0.39060  1.0000 0.1302779377
H   H97       1.0  0.87610  0.36890  0.92600  1.0000 0.0935865299
H   H98       1.0  0.11890  0.69290  0.99280  1.0000 0.0935865299
H   H99       1.0  0.44290  0.95010  0.07400  1.0000 0.0935865299
H   H100      1.0  0.70010  0.12610  0.00720  1.0000 0.0935865299
H   H101      1.0  0.37390  0.79990  0.99280  1.0000 0.0935865299
H   H102      1.0  0.80710  0.38110  0.00720  1.0000 0.0935865299
H   H103      1.0  0.54990  0.05710  0.92600  1.0000 0.0935865299
H   H104      1.0  0.13110  0.62390  0.07400  1.0000 0.0935865299
H   H105      1.0  0.87390  0.88110  0.57400  1.0000 0.0935865299
H   H106      1.0  0.63110  0.55710  0.50720  1.0000 0.0935865299
H   H107      1.0  0.30710  0.29990  0.42600  1.0000 0.0935865299
H   H108      1.0  0.04990  0.12390  0.49280  1.0000 0.0935865299
H   H109      1.0  0.37610  0.45010  0.50720  1.0000 0.0935865299
H   H110      1.0  0.94290  0.86890  0.49280  1.0000 0.0935865299
H   H111      1.0  0.20010  0.19290  0.57400  1.0000 0.0935865299
H   H112      1.0  0.61890  0.62610  0.42600  1.0000 0.0935865299
H   H113      1.0  0.68630  0.22120  0.78670  1.0000 0.0981396569
H   H114      1.0  0.97120  0.68450  0.03490  1.0000 0.0981396569
H   H115      1.0  0.43450  0.89960  0.21330  1.0000 0.0981396569
H   H116      1.0  0.64960  0.93630  0.96510  1.0000 0.0981396569
H   H117      1.0  0.56370  0.85040  0.03490  1.0000 0.0981396569
H   H118      1.0  0.81550  0.52880  0.96510  1.0000 0.0981396569
H   H119      1.0  0.60040  0.06550  0.78670  1.0000 0.0981396569
H   H120      1.0  0.27880  0.81370  0.21330  1.0000 0.0981396569
H   H121      1.0  0.06370  0.02880  0.71330  1.0000 0.0981396569
H   H122      1.0  0.77880  0.56550  0.46510  1.0000 0.0981396569
H   H123      1.0  0.31550  0.35040  0.28670  1.0000 0.0981396569
H   H124      1.0  0.10040  0.31370  0.53490  1.0000 0.0981396569
H   H125      1.0  0.18630  0.39960  0.46510  1.0000 0.0981396569
H   H126      1.0  0.93450  0.72120  0.53490  1.0000 0.0981396569
H   H127      1.0  0.14960  0.18450  0.71330  1.0000 0.0981396569
H   H128      1.0  0.47120  0.43630  0.28670  1.0000 0.0981396569
H   H129      1.0  0.72380  0.14530  0.74510  1.0000 0.1302779377
H   H130      1.0  0.89530  0.65020  0.92150  1.0000 0.1302779377
H   H131      1.0  0.40020  0.97870  0.25490  1.0000 0.1302779377
H   H132      1.0  0.72870  0.97380  0.07850  1.0000 0.1302779377
H   H133      1.0  0.52620  0.77130  0.92150  1.0000 0.1302779377
H   H134      1.0  0.84980  0.60470  0.07850  1.0000 0.1302779377
H   H135      1.0  0.52130  0.09980  0.74510  1.0000 0.1302779377
H   H136      1.0  0.35470  0.77620  0.25490  1.0000 0.1302779377
H   H137      1.0  0.02620  0.10470  0.75490  1.0000 0.1302779377
H   H138      1.0  0.85470  0.59980  0.57850  1.0000 0.1302779377
H   H139      1.0  0.34980  0.27130  0.24510  1.0000 0.1302779377
H   H140      1.0  0.02130  0.27620  0.42150  1.0000 0.1302779377
H   H141      1.0  0.22380  0.47870  0.57850  1.0000 0.1302779377
H   H142      1.0  0.90020  0.64530  0.42150  1.0000 0.1302779377
H   H143      1.0  0.22870  0.15020  0.75490  1.0000 0.1302779377
H   H144      1.0  0.39530  0.47380  0.24510  1.0000 0.1302779377
C   C1        1.0  0.99300  0.17170  0.61270  1.0000 0.0230367897
C   C2        1.0  0.92170  0.80900  0.67870  1.0000 0.0302858495
C   C3        1.0  0.55900  0.38030  0.38730  1.0000 0.0230367897
C   C4        1.0  0.13030  0.24300  0.32130  1.0000 0.0230367897
C   C5        1.0  0.25700  0.36970  0.67870  1.0000 0.0302858495
C   C6        1.0  0.69100  0.57830  0.32130  1.0000 0.0230367897
C   C7        1.0  0.11970  0.94100  0.61270  1.0000 0.0230367897
C   C8        1.0  0.32830  0.50700  0.38730  1.0000 0.0230367897
C   C9        1.0  0.75700  0.07830  0.88730  1.0000 0.0230367897
C   C10       1.0  0.82830  0.44100  0.82130  1.0000 0.0302858495
C   C11       1.0  0.19100  0.86970  0.11270  1.0000 0.0230367897
C   C12       1.0  0.61970  0.00700  0.17870  1.0000 0.0302858495
C   C13       1.0  0.49300  0.88030  0.82130  1.0000 0.0302858495
C   C14       1.0  0.05900  0.67170  0.17870  1.0000 0.0230367897
C   C15       1.0  0.63030  0.30900  0.88730  1.0000 0.0302858495
C   C16       1.0  0.42170  0.74300  0.11270  1.0000 0.0230367897
C   C17       1.0  0.94950  0.14330  0.63400  1.0000 -0.2016578337
C   C18       1.0  0.89330  0.75930  0.69380  1.0000 -0.2016578337
C   C19       1.0  0.50930  0.31550  0.36600  1.0000 -0.2016578337
C   C20       1.0  0.06550  0.19950  0.30620  1.0000 -0.2016578337
C   C21       1.0  0.30050  0.43450  0.69380  1.0000 -0.2016578337
C   C22       1.0  0.74070  0.60670  0.30620  1.0000 -0.2016578337
C   C23       1.0  0.18450  0.99070  0.63400  1.0000 -0.2016578337
C   C24       1.0  0.35670  0.55050  0.36600  1.0000 -0.2016578337
C   C25       1.0  0.80050  0.10670  0.86600  1.0000 -0.2016578337
C   C26       1.0  0.85670  0.49070  0.80620  1.0000 -0.2016578337
C   C27       1.0  0.24070  0.93450  0.13400  1.0000 -0.2016578337
C   C28       1.0  0.68450  0.05050  0.19380  1.0000 -0.2016578337
C   C29       1.0  0.44950  0.81550  0.80620  1.0000 -0.2016578337
C   C30       1.0  0.00930  0.64330  0.19380  1.0000 -0.2016578337
C   C31       1.0  0.56550  0.25930  0.86600  1.0000 -0.2016578337
C   C32       1.0  0.39330  0.69950  0.13400  1.0000 -0.2016578337
C   C33       1.0  0.96700  0.18000  0.70400  1.0000 0.0981396569
C   C34       1.0  0.93000  0.72600  0.71300  1.0000 0.0981396569
C   C35       1.0  0.47600  0.26300  0.29600  1.0000 0.0981396569
C   C36       1.0  0.01300  0.21700  0.28700  1.0000 0.0981396569
C   C37       1.0  0.28300  0.48700  0.71300  1.0000 0.0981396569
C   C38       1.0  0.77400  0.57000  0.28700  1.0000 0.0981396569
C   C39       1.0  0.23700  0.02400  0.70400  1.0000 0.0981396569
C   C40       1.0  0.32000  0.53300  0.29600  1.0000 0.0981396569
C   C41       1.0  0.78300  0.07000  0.79600  1.0000 0.0981396569
C   C42       1.0  0.82000  0.52400  0.78700  1.0000 0.0981396569
C   C43       1.0  0.27400  0.98700  0.20400  1.0000 0.0981396569
C   C44       1.0  0.73700  0.03300  0.21300  1.0000 0.0981396569
C   C45       1.0  0.46700  0.76300  0.78700  1.0000 0.0981396569
C   C46       1.0  0.97600  0.68000  0.21300  1.0000 0.0981396569
C   C47       1.0  0.51300  0.22600  0.79600  1.0000 0.0981396569
C   C48       1.0  0.43000  0.71700  0.20400  1.0000 0.0981396569
C   C49       1.0  0.02570  0.24460  0.74750  1.0000 -0.2062988387
C   C50       1.0  0.99460  0.74710  0.71890  1.0000 -0.2062988387
C   C51       1.0  0.49710  0.27820  0.25250  1.0000 -0.2062988387
C   C52       1.0  0.02820  0.27570  0.28110  1.0000 -0.2062988387
C   C53       1.0  0.22430  0.47180  0.71890  1.0000 -0.2062988387
C   C54       1.0  0.75290  0.50540  0.28110  1.0000 -0.2062988387
C   C55       1.0  0.22180  0.00290  0.74750  1.0000 -0.2062988387
C   C56       1.0  0.25540  0.47430  0.25250  1.0000 -0.2062988387
C   C57       1.0  0.72430  0.00540  0.75250  1.0000 -0.2016578337
C   C58       1.0  0.75540  0.50290  0.78110  1.0000 -0.2062988387
C   C59       1.0  0.25290  0.97180  0.24750  1.0000 -0.2062988387
C   C60       1.0  0.72180  0.97430  0.21890  1.0000 -0.2062988387
C   C61       1.0  0.52570  0.77820  0.78110  1.0000 -0.2062988387
C   C62       1.0  0.99710  0.74460  0.21890  1.0000 -0.2062988387
C   C63       1.0  0.52820  0.24710  0.75250  1.0000 -0.2062988387
C   C64       1.0  0.49460  0.77570  0.24750  1.0000 -0.2062988387
C   C65       1.0  0.06740  0.26850  0.72190  1.0000 0.0373263309
C   C66       1.0  0.01850  0.79660  0.70110  1.0000 0.0373263309
C   C67       1.0  0.54660  0.34550  0.27810  1.0000 0.0373263309
C   C68       1.0  0.09550  0.31740  0.29890  1.0000 0.0373263309
C   C69       1.0  0.18260  0.40450  0.70110  1.0000 0.0373263309
C   C70       1.0  0.70340  0.48150  0.29890  1.0000 0.0373263309
C   C71       1.0  0.15450  0.95340  0.72190  1.0000 0.0373263309
C   C72       1.0  0.23150  0.43260  0.27810  1.0000 0.0373263309
C   C73       1.0  0.68260  0.98150  0.77810  1.0000 0.0373263309
C   C74       1.0  0.73150  0.45340  0.79890  1.0000 0.0373263309
C   C75       1.0  0.20340  0.90450  0.22190  1.0000 0.0373263309
C   C76       1.0  0.65450  0.93260  0.20110  1.0000 0.0373263309
C   C77       1.0  0.56740  0.84550  0.79890  1.0000 0.0373263309
C   C78       1.0  0.04660  0.76850  0.20110  1.0000 0.0373263309
C   C79       1.0  0.59550  0.29660  0.77810  1.0000 0.0373263309
C   C80       1.0  0.51850  0.81740  0.22190  1.0000 0.0373263309
C   C81       1.0  0.92180  0.15210  0.72910  1.0000 0.0064910327
C   C82       1.0  0.90210  0.67300  0.73030  1.0000 0.0064910327
C   C83       1.0  0.42300  0.19270  0.27090  1.0000 0.0064910327
C   C84       1.0  0.94270  0.17180  0.26970  1.0000 0.0064910327
C   C85       1.0  0.32820  0.55730  0.73030  1.0000 0.0064910327
C   C86       1.0  0.82700  0.59790  0.26970  1.0000 0.0064910327
C   C87       1.0  0.30730  0.07700  0.72910  1.0000 0.0064910327
C   C88       1.0  0.34790  0.57820  0.27090  1.0000 0.0064910327
C   C89       1.0  0.82820  0.09790  0.77090  1.0000 0.0064910327
C   C90       1.0  0.84790  0.57700  0.76970  1.0000 0.0064910327
C   C91       1.0  0.32700  0.05730  0.22910  1.0000 0.0064910327
C   C92       1.0  0.80730  0.07820  0.23030  1.0000 0.0064910327
C   C93       1.0  0.42180  0.69270  0.76970  1.0000 0.0064910327
C   C94       1.0  0.92300  0.65210  0.23030  1.0000 0.0064910327
C   C95       1.0  0.44270  0.17300  0.77090  1.0000 0.0064910327
C   C96       1.0  0.40210  0.67180  0.22910  1.0000 0.0064910327
C   C97       1.0  0.89930  0.19260  0.76390  1.0000 -0.2016578337
C   C98       1.0  0.94260  0.67870  0.79330  1.0000 -0.2016578337
C   C99       1.0  0.42870  0.13540  0.23610  1.0000 -0.2016578337
C   C100      1.0  0.88540  0.14930  0.20670  1.0000 -0.2016578337
C   C101      1.0  0.35070  0.61460  0.79330  1.0000 -0.2016578337
C   C102      1.0  0.82130  0.55740  0.20670  1.0000 -0.2016578337
C   C103      1.0  0.36460  0.07130  0.76390  1.0000 -0.2016578337
C   C104      1.0  0.30740  0.60070  0.23610  1.0000 -0.2016578337
C   C105      1.0  0.85070  0.05740  0.73610  1.0000 -0.2016578337
C   C106      1.0  0.80740  0.57130  0.70670  1.0000 -0.2016578337
C   C107      1.0  0.32130  0.11460  0.26390  1.0000 -0.2016578337
C   C108      1.0  0.86460  0.10070  0.29330  1.0000 -0.2016578337
C   C109      1.0  0.39930  0.63540  0.70670  1.0000 -0.2016578337
C   C110      1.0  0.92870  0.69260  0.29330  1.0000 -0.2016578337
C   C111      1.0  0.38540  0.17870  0.73610  1.0000 -0.2016578337
C   C112      1.0  0.44260  0.64930  0.26390  1.0000 -0.2016578337
C   C113      1.0  0.85310  0.16760  0.78430  1.0000 0.0064910327
C   C114      1.0  0.91760  0.63330  0.81450  1.0000 0.0064910327
C   C115      1.0  0.38330  0.06880  0.21570  1.0000 0.0064910327
C   C116      1.0  0.81880  0.10310  0.18550  1.0000 0.0064910327
C   C117      1.0  0.39690  0.68120  0.81450  1.0000 0.0064910327
C   C118      1.0  0.86670  0.58240  0.18550  1.0000 0.0064910327
C   C119      1.0  0.43120  0.11670  0.78430  1.0000 0.0064910327
C   C120      1.0  0.33240  0.64690  0.21570  1.0000 0.0064910327
C   C121      1.0  0.89690  0.08240  0.71570  1.0000 0.0064910327
C   C122      1.0  0.83240  0.61670  0.68550  1.0000 0.0064910327
C   C123      1.0  0.36670  0.18120  0.28430  1.0000 0.0064910327
C   C124      1.0  0.93120  0.14690  0.31450  1.0000 0.0064910327
C   C125      1.0  0.35310  0.56880  0.68550  1.0000 0.0064910327
C   C126      1.0  0.88330  0.66760  0.31450  1.0000 0.0064910327
C   C127      1.0  0.31880  0.13330  0.71570  1.0000 0.0064910327
C   C128      1.0  0.41760  0.60310  0.28430  1.0000 0.0064910327
C   C129      1.0  0.82650  0.21260  0.81310  1.0000 0.0981396569
C   C130      1.0  0.96260  0.64950  0.88610  1.0000 0.0981396569
C   C131      1.0  0.39950  0.01340  0.18690  1.0000 0.0981396569
C   C132      1.0  0.76340  0.07650  0.11390  1.0000 0.0981396569
C   C133      1.0  0.42350  0.73660  0.88610  1.0000 0.0981396569
C   C134      1.0  0.85050  0.53740  0.11390  1.0000 0.0981396569
C   C135      1.0  0.48660  0.10050  0.81310  1.0000 0.0981396569
C   C136      1.0  0.28740  0.67350  0.18690  1.0000 0.0981396569
C   C137      1.0  0.92350  0.03740  0.68690  1.0000 0.0981396569
C   C138      1.0  0.78740  0.60050  0.61390  1.0000 0.0981396569
C   C139      1.0  0.35050  0.23660  0.31310  1.0000 0.0981396569
C   C140      1.0  0.98660  0.17350  0.38610  1.0000 0.0981396569
C   C141      1.0  0.32650  0.51340  0.61390  1.0000 0.0981396569
C   C142      1.0  0.89950  0.71260  0.38610  1.0000 0.0981396569
C   C143      1.0  0.26340  0.14950  0.68690  1.0000 0.0981396569
C   C144      1.0  0.46260  0.57650  0.31310  1.0000 0.0981396569
C   C145      1.0  0.87180  0.28040  0.86800  1.0000 -0.2016578337
C   C146      1.0  0.03040  0.66240  0.90860  1.0000 -0.2016578337
C   C147      1.0  0.41240  0.00380  0.13200  1.0000 -0.2016578337
C   C148      1.0  0.75380  0.12180  0.09140  1.0000 -0.2016578337
C   C149      1.0  0.37820  0.74620  0.90860  1.0000 -0.2016578337
C   C150      1.0  0.83760  0.46960  0.09140  1.0000 -0.2016578337
C   C151      1.0  0.49620  0.08760  0.86800  1.0000 -0.2016578337
C   C152      1.0  0.21960  0.62820  0.13200  1.0000 -0.2016578337
C   C153      1.0  0.87820  0.96960  0.63200  1.0000 -0.2016578337
C   C154      1.0  0.71960  0.58760  0.59140  1.0000 -0.2016578337
C   C155      1.0  0.33760  0.24620  0.36800  1.0000 -0.2016578337
C   C156      1.0  0.99620  0.12820  0.40860  1.0000 -0.2016578337
C   C157      1.0  0.37180  0.50380  0.59140  1.0000 -0.2016578337
C   C158      1.0  0.91240  0.78040  0.40860  1.0000 -0.2016578337
C   C159      1.0  0.25380  0.16240  0.63200  1.0000 -0.2016578337
C   C160      1.0  0.53040  0.62180  0.36800  1.0000 -0.2016578337
C   C161      1.0  0.84520  0.32340  0.88900  1.0000 0.0230367897
C   C162      1.0  0.07340  0.68440  0.97820  1.0000 0.0230367897
C   C163      1.0  0.43440  0.95620  0.11100  1.0000 0.0230367897
C   C164      1.0  0.70620  0.09520  0.02180  1.0000 0.0230367897
C   C165      1.0  0.40480  0.79380  0.97820  1.0000 0.0230367897
C   C166      1.0  0.81560  0.42660  0.02180  1.0000 0.0230367897
C   C167      1.0  0.54380  0.06560  0.88900  1.0000 0.0230367897
C   C168      1.0  0.17660  0.65480  0.11100  1.0000 0.0230367897
C   C169      1.0  0.90480  0.92660  0.61100  1.0000 0.0230367897
C   C170      1.0  0.67660  0.56560  0.52180  1.0000 0.0230367897
C   C171      1.0  0.31560  0.29380  0.38900  1.0000 0.0230367897
C   C172      1.0  0.04380  0.15480  0.47820  1.0000 0.0230367897
C   C173      1.0  0.34520  0.45620  0.52180  1.0000 0.0230367897
C   C174      1.0  0.93440  0.82340  0.47820  1.0000 0.0230367897
C   C175      1.0  0.20620  0.18440  0.61100  1.0000 0.0230367897
C   C176      1.0  0.57340  0.59520  0.38900  1.0000 0.0230367897
C   C177      1.0  0.73380  0.23680  0.80700  1.0000 0.0302858495
C   C178      1.0  0.98680  0.67980  0.00300  1.0000 0.0302858495
C   C179      1.0  0.42980  0.92680  0.19300  1.0000 0.0302858495
C   C180      1.0  0.67680  0.98380  0.99700  1.0000 0.0302858495
C   C181      1.0  0.51620  0.82320  0.00300  1.0000 0.0302858495
C   C182      1.0  0.82020  0.51320  0.99700  1.0000 0.0302858495
C   C183      1.0  0.57320  0.07020  0.80700  1.0000 0.0302858495
C   C184      1.0  0.26320  0.76620  0.19300  1.0000 0.0302858495
C   C185      1.0  0.01620  0.01320  0.69300  1.0000 0.0302858495
C   C186      1.0  0.76320  0.57020  0.49700  1.0000 0.0302858495
C   C187      1.0  0.32020  0.32320  0.30700  1.0000 0.0302858495
C   C188      1.0  0.07320  0.26620  0.50300  1.0000 0.0302858495
C   C189      1.0  0.23380  0.42680  0.49700  1.0000 0.0302858495
C   C190      1.0  0.92980  0.73680  0.50300  1.0000 0.0302858495
C   C191      1.0  0.17680  0.17980  0.69300  1.0000 0.0302858495
C   C192      1.0  0.48680  0.48380  0.30700  1.0000 0.0302858495
C   C193      1.0  0.75580  0.19040  0.78200  1.0000 -0.2016578337
C   C194      1.0  0.94040  0.65840  0.93460  1.0000 -0.2016578337
C   C195      1.0  0.40840  0.97380  0.21800  1.0000 -0.2016578337
C   C196      1.0  0.72380  0.00580  0.06540  1.0000 -0.2016578337
C   C197      1.0  0.49420  0.77620  0.93460  1.0000 -0.2016578337
C   C198      1.0  0.84160  0.55960  0.06540  1.0000 -0.2016578337
C   C199      1.0  0.52620  0.09160  0.78200  1.0000 -0.2016578337
C   C200      1.0  0.30960  0.74420  0.21800  1.0000 -0.2016578337
C   C201      1.0  0.99420  0.05960  0.71800  1.0000 -0.2016578337
C   C202      1.0  0.80960  0.59160  0.56540  1.0000 -0.2016578337
C   C203      1.0  0.34160  0.27620  0.28200  1.0000 -0.2016578337
C   C204      1.0  0.02620  0.24420  0.43460  1.0000 -0.2016578337
C   C205      1.0  0.25580  0.47380  0.56540  1.0000 -0.2016578337
C   C206      1.0  0.90840  0.69040  0.43460  1.0000 -0.2016578337
C   C207      1.0  0.22380  0.15840  0.71800  1.0000 -0.2016578337
C   C208      1.0  0.44040  0.50580  0.28200  1.0000 -0.2016578337
N   N1        1.0  0.05240  0.23320  0.65620  1.0000 -0.2274166752
N   N2        1.0  0.98320  0.82700  0.68080  1.0000 -0.2274166752
N   N3        1.0  0.57700  0.39620  0.34380  1.0000 -0.2274166752
N   N4        1.0  0.14620  0.30240  0.31920  1.0000 -0.2274166752
N   N5        1.0  0.19760  0.35380  0.68080  1.0000 -0.2274166752
N   N6        1.0  0.67300  0.51680  0.31920  1.0000 -0.2274166752
N   N7        1.0  0.10380  0.92300  0.65620  1.0000 -0.2274166752
N   N8        1.0  0.26680  0.44760  0.34380  1.0000 -0.2274166752
N   N9        1.0  0.69760  0.01680  0.84380  1.0000 -0.2274166752
N   N10       1.0  0.76680  0.42300  0.81920  1.0000 -0.2274166752
N   N11       1.0  0.17300  0.85380  0.15620  1.0000 -0.2274166752
N   N12       1.0  0.60380  0.94760  0.18080  1.0000 -0.2274166752
N   N13       1.0  0.55240  0.89620  0.81920  1.0000 -0.2274166752
N   N14       1.0  0.07700  0.73320  0.18080  1.0000 -0.2274166752
N   N15       1.0  0.64620  0.32700  0.84380  1.0000 -0.2274166752
N   N16       1.0  0.48320  0.80240  0.15620  1.0000 -0.2274166752
N   N17       1.0  0.77710  0.30240  0.85850  1.0000 -0.2171719174
N   N18       1.0  0.05240  0.69390  0.02530  1.0000 -0.2171719174
N   N19       1.0  0.44390  0.91860  0.14150  1.0000 -0.2171719174
N   N20       1.0  0.66860  0.02710  0.97470  1.0000 -0.2171719174
N   N21       1.0  0.47290  0.83140  0.02530  1.0000 -0.2171719174
N   N22       1.0  0.80610  0.44760  0.97470  1.0000 -0.2171719174
N   N23       1.0  0.58140  0.05610  0.85850  1.0000 -0.2171719174
N   N24       1.0  0.19760  0.72290  0.14150  1.0000 -0.2171719174
N   N25       1.0  0.97290  0.94760  0.64150  1.0000 -0.2171719174
N   N26       1.0  0.69760  0.55610  0.47470  1.0000 -0.2171719174
N   N27       1.0  0.30610  0.33140  0.35850  1.0000 -0.2171719174
N   N28       1.0  0.08140  0.22290  0.52530  1.0000 -0.2171719174
N   N29       1.0  0.27710  0.41860  0.47470  1.0000 -0.2171719174
N   N30       1.0  0.94390  0.80240  0.52530  1.0000 -0.2171719174
N   N31       1.0  0.16860  0.19390  0.64150  1.0000 -0.2171719174
N   N32       1.0  0.55240  0.52710  0.35850  1.0000 -0.2171719174
