# DDEC6 charges by PACMAN v1.1 (https://github.com/mtap-research/PACMAN-charge/)
data_2016[Cd][sql]2[ASR]3
_chemical_formula_sum              "Cd4 H16 C32 O16"
_cell_length_a       9.8548
_cell_length_b       10.2693
_cell_length_c       15.4155
_cell_angle_alpha    96.424
_cell_angle_beta     89.699
_cell_angle_gamma    96.159

_symmetry_space_group_name_H-M    "P 1"
_symmetry_Int_Tables_number       1

loop_
  _symmetry_equiv_pos_as_xyz
  'x, y, z'

loop_
  _atom_site_type_symbol
  _atom_site_label
  _atom_site_symmetry_multiplicity
  _atom_site_fract_x
  _atom_site_fract_y
  _atom_site_fract_z
  _atom_site_occupancy
  _atom_site_charge
Cd  Cd1       1.0  0.74477  0.90808  0.10723  1.0000 1.0101857098
Cd  Cd2       1.0  0.72197  0.71848  0.27867  1.0000 1.0169727715
Cd  Cd3       1.0  0.25523  0.09192  0.89277  1.0000 1.0101857098
Cd  Cd4       1.0  0.27803  0.28152  0.72133  1.0000 1.0169727715
H   H1        1.0  0.47870  0.02940  0.43050  1.0000 0.1133237915
H   H2        1.0  0.39150  0.21100  0.48970  1.0000 0.1211027788
H   H3        1.0  0.46090  0.41320  0.44220  1.0000 0.1133237915
H   H4        1.0  0.71690  0.24000  0.27420  1.0000 0.1279143604
H   H5        1.0  0.00470  0.57360  0.20710  1.0000 0.1211027788
H   H6        1.0  0.19750  0.47410  0.23690  1.0000 0.1211027788
H   H7        1.0  0.41100  0.59300  0.22680  1.0000 0.1211027788
H   H8        1.0  0.23790  0.87590  0.12280  1.0000 0.1211027788
H   H9        1.0  0.52130  0.97060  0.56950  1.0000 0.1133237915
H   H10       1.0  0.60850  0.78900  0.51030  1.0000 0.1211027788
H   H11       1.0  0.53910  0.58680  0.55780  1.0000 0.1133237915
H   H12       1.0  0.28310  0.76000  0.72580  1.0000 0.1279143604
H   H13       1.0  0.99530  0.42640  0.79290  1.0000 0.1211027788
H   H14       1.0  0.80250  0.52590  0.76310  1.0000 0.1211027788
H   H15       1.0  0.58900  0.40700  0.77320  1.0000 0.1211027788
H   H16       1.0  0.76210  0.12410  0.87720  1.0000 0.1211027788
C   C1        1.0  0.60630  0.11410  0.34810  1.0000 -0.0239644166
C   C2        1.0  0.50920  0.11010  0.41120  1.0000 -0.0990386929
C   C3        1.0  0.45690  0.21720  0.44620  1.0000 -0.0891061466
C   C4        1.0  0.49900  0.33840  0.41810  1.0000 -0.0891061466
C   C5        1.0  0.59780  0.34880  0.35420  1.0000 -0.0411261749
C   C6        1.0  0.65170  0.23560  0.31790  1.0000 -0.0990386929
C   C7        1.0  0.66880  0.99200  0.30940  1.0000 0.5700013401
C   C8        1.0  0.64430  0.47830  0.32490  1.0000 0.5302759322
C   C9        1.0  0.10210  0.73410  0.16590  1.0000 -0.0411261749
C   C10       1.0  0.09090  0.61610  0.19800  1.0000 -0.0891061466
C   C11       1.0  0.20570  0.55700  0.21740  1.0000 -0.0990386929
C   C12       1.0  0.33380  0.62560  0.20690  1.0000 -0.0891061466
C   C13       1.0  0.34850  0.74060  0.16780  1.0000 -0.0411261749
C   C14       1.0  0.23070  0.79720  0.14780  1.0000 -0.0748660205
C   C15       1.0  0.97650  0.79470  0.14410  1.0000 0.5700013401
C   C16       1.0  0.48550  0.80220  0.14580  1.0000 0.5625575395
C   C17       1.0  0.39370  0.88590  0.65190  1.0000 -0.0239644166
C   C18       1.0  0.49080  0.88990  0.58880  1.0000 -0.0990386929
C   C19       1.0  0.54310  0.78280  0.55380  1.0000 -0.0891061466
C   C20       1.0  0.50100  0.66160  0.58190  1.0000 -0.0891061466
C   C21       1.0  0.40220  0.65120  0.64580  1.0000 -0.0411261749
C   C22       1.0  0.34830  0.76440  0.68210  1.0000 -0.0990386929
C   C23       1.0  0.33120  0.00800  0.69060  1.0000 0.5700013401
C   C24       1.0  0.35570  0.52170  0.67510  1.0000 0.5302759322
C   C25       1.0  0.89790  0.26590  0.83410  1.0000 -0.0411261749
C   C26       1.0  0.90910  0.38390  0.80200  1.0000 -0.0891061466
C   C27       1.0  0.79430  0.44300  0.78260  1.0000 -0.0990386929
C   C28       1.0  0.66620  0.37440  0.79310  1.0000 -0.0891061466
C   C29       1.0  0.65150  0.25940  0.83220  1.0000 -0.0411261749
C   C30       1.0  0.76930  0.20280  0.85220  1.0000 -0.0748660205
C   C31       1.0  0.02350  0.20530  0.85590  1.0000 0.5700013401
C   C32       1.0  0.51450  0.19780  0.85420  1.0000 0.5625575395
O   O1        1.0  0.62630  0.88800  0.34270  1.0000 -0.5458397953
O   O2        1.0  0.75720  0.99770  0.25210  1.0000 -0.558058509
O   O3        1.0  0.73630  0.48810  0.26970  1.0000 -0.5288987992
O   O4        1.0  0.59040  0.57660  0.35720  1.0000 -0.5288987992
O   O5        1.0  0.86450  0.73530  0.16360  1.0000 -0.5680372803
O   O6        1.0  0.98430  0.89430  0.10590  1.0000 -0.512247303
O   O7        1.0  0.58520  0.73800  0.15790  1.0000 -0.5810604183
O   O8        1.0  0.50000  0.91010  0.11660  1.0000 -0.5212799398
O   O9        1.0  0.37370  0.11200  0.65730  1.0000 -0.5458397953
O   O10       1.0  0.24280  0.00230  0.74790  1.0000 -0.558058509
O   O11       1.0  0.26370  0.51190  0.73030  1.0000 -0.5288987992
O   O12       1.0  0.40960  0.42340  0.64280  1.0000 -0.5288987992
O   O13       1.0  0.13550  0.26470  0.83640  1.0000 -0.5680372803
O   O14       1.0  0.01570  0.10570  0.89410  1.0000 -0.512247303
O   O15       1.0  0.41480  0.26200  0.84210  1.0000 -0.5810604183
O   O16       1.0  0.50000  0.08990  0.88340  1.0000 -0.5212799398
