# DDEC6 charges by PACMAN v1.1 (https://github.com/mtap-research/PACMAN-charge/)
data_2016[FeAu][fsc]3[ASR]2
_chemical_formula_sum              "Fe4 H40 Au8 C72 N32"
_cell_length_a       10.5847
_cell_length_b       10.5847
_cell_length_c       31.4557
_cell_angle_alpha    84.1902
_cell_angle_beta     95.8098
_cell_angle_gamma    90.3407

_symmetry_space_group_name_H-M    "P 1"
_symmetry_Int_Tables_number       1

loop_
  _symmetry_equiv_pos_as_xyz
  'x, y, z'

loop_
  _atom_site_type_symbol
  _atom_site_label
  _atom_site_symmetry_multiplicity
  _atom_site_fract_x
  _atom_site_fract_y
  _atom_site_fract_z
  _atom_site_occupancy
  _atom_site_charge
Fe  Fe1       1.0  0.17084  0.78784  0.95083  1.0000 0.7761495634
Fe  Fe2       1.0  0.21216  0.82916  0.45083  1.0000 0.7761495634
Fe  Fe3       1.0  0.78784  0.17084  0.54917  1.0000 0.7761495634
Fe  Fe4       1.0  0.82916  0.21216  0.04917  1.0000 0.7761495634
H   H1        1.0  0.30970  0.66667  0.88320  1.0000 0.1167441083
H   H2        1.0  0.33333  0.69030  0.38320  1.0000 0.1167441083
H   H3        1.0  0.34080  0.68080  0.81140  1.0000 0.1302720251
H   H4        1.0  0.31920  0.65920  0.31140  1.0000 0.1302720251
H   H5        1.0  0.06460  0.94700  0.78940  1.0000 0.1302720251
H   H6        1.0  0.05300  0.93540  0.28940  1.0000 0.1302720251
H   H7        1.0  0.05170  0.93330  0.86230  1.0000 0.1069382651
H   H8        1.0  0.06670  0.94830  0.36230  1.0000 0.1069382651
H   H9        1.0  0.40380  0.75860  0.74810  1.0000 0.1302720251
H   H10       1.0  0.24140  0.59620  0.24810  1.0000 0.1302720251
H   H11       1.0  0.41470  0.77510  0.67430  1.0000 0.1302720251
H   H12       1.0  0.22490  0.58530  0.17430  1.0000 0.1302720251
H   H13       1.0  0.04110  0.81210  0.60000  1.0000 0.1424394993
H   H14       1.0  0.18790  0.95890  0.10000  1.0000 0.1424394993
H   H15       1.0  0.03940  0.80680  0.52750  1.0000 0.1069382651
H   H16       1.0  0.19320  0.96060  0.02750  1.0000 0.1069382651
H   H17       1.0  0.39880  0.88980  0.53110  1.0000 0.1167441083
H   H18       1.0  0.11020  0.60120  0.03110  1.0000 0.1167441083
H   H19       1.0  0.41380  0.88720  0.60490  1.0000 0.1424394993
H   H20       1.0  0.11280  0.58620  0.10490  1.0000 0.1424394993
H   H21       1.0  0.66667  0.30970  0.61680  1.0000 0.1167441083
H   H22       1.0  0.69030  0.33333  0.11680  1.0000 0.1167441083
H   H23       1.0  0.68080  0.34080  0.68860  1.0000 0.1302720251
H   H24       1.0  0.65920  0.31920  0.18860  1.0000 0.1302720251
H   H25       1.0  0.94700  0.06460  0.71060  1.0000 0.1302720251
H   H26       1.0  0.93540  0.05300  0.21060  1.0000 0.1302720251
H   H27       1.0  0.93330  0.05170  0.63770  1.0000 0.1069382651
H   H28       1.0  0.94830  0.06670  0.13770  1.0000 0.1069382651
H   H29       1.0  0.75860  0.40380  0.75190  1.0000 0.1302720251
H   H30       1.0  0.59620  0.24140  0.25190  1.0000 0.1302720251
H   H31       1.0  0.77510  0.41470  0.82570  1.0000 0.1302720251
H   H32       1.0  0.58530  0.22490  0.32570  1.0000 0.1302720251
H   H33       1.0  0.81210  0.04110  0.90000  1.0000 0.1424394993
H   H34       1.0  0.95890  0.18790  0.40000  1.0000 0.1424394993
H   H35       1.0  0.80680  0.03940  0.97250  1.0000 0.1069382651
H   H36       1.0  0.96060  0.19320  0.47250  1.0000 0.1069382651
H   H37       1.0  0.88980  0.39880  0.96890  1.0000 0.1167441083
H   H38       1.0  0.60120  0.11020  0.46890  1.0000 0.1167441083
H   H39       1.0  0.88720  0.41380  0.89510  1.0000 0.1424394993
H   H40       1.0  0.58620  0.11280  0.39510  1.0000 0.1424394993
Au  Au1       1.0  0.67365  0.78113  0.95604  1.0000 -0.0139036236
Au  Au2       1.0  0.21887  0.32635  0.45604  1.0000 -0.0139036236
Au  Au3       1.0  0.18710  0.28780  0.94758  1.0000 0.0067677065
Au  Au4       1.0  0.71220  0.81290  0.44758  1.0000 0.0067677065
Au  Au5       1.0  0.78113  0.67365  0.54396  1.0000 -0.0139036236
Au  Au6       1.0  0.32635  0.21887  0.04396  1.0000 -0.0139036236
Au  Au7       1.0  0.28780  0.18710  0.55242  1.0000 0.0067677065
Au  Au8       1.0  0.81290  0.71220  0.05242  1.0000 0.0067677065
C   C1        1.0  0.18840  0.47520  0.95090  1.0000 0.0358708369
C   C2        1.0  0.52480  0.81160  0.45090  1.0000 0.0358708369
C   C3        1.0  0.85700  0.77540  0.94690  1.0000 0.0358708369
C   C4        1.0  0.22460  0.14300  0.44690  1.0000 0.0358708369
C   C5        1.0  0.17530  0.09970  0.94410  1.0000 0.0597495775
C   C6        1.0  0.90030  0.82470  0.44410  1.0000 0.0597495775
C   C7        1.0  0.48670  0.78810  0.96040  1.0000 0.0597495775
C   C8        1.0  0.21190  0.51330  0.46040  1.0000 0.0597495775
C   C9        1.0  0.26140  0.72620  0.86400  1.0000 0.1069382651
C   C10       1.0  0.27380  0.73860  0.36400  1.0000 0.1069382651
C   C11       1.0  0.27960  0.73260  0.82080  1.0000 -0.1838302092
C   C12       1.0  0.26740  0.72040  0.32080  1.0000 -0.1838302092
C   C13       1.0  0.20660  0.81620  0.79150  1.0000 0.0914563311
C   C14       1.0  0.18380  0.79340  0.29150  1.0000 0.0914563311
C   C15       1.0  0.11800  0.89060  0.80790  1.0000 -0.1742311494
C   C16       1.0  0.10940  0.88200  0.30790  1.0000 -0.1742311494
C   C17       1.0  0.10970  0.88030  0.85180  1.0000 0.1069382651
C   C18       1.0  0.11970  0.89030  0.35180  1.0000 0.1069382651
C   C19       1.0  0.22320  0.82560  0.74440  1.0000 0.1702055259
C   C20       1.0  0.17440  0.77680  0.24440  1.0000 0.1702055259
C   C21       1.0  0.33400  0.78900  0.72900  1.0000 -0.1490774072
C   C22       1.0  0.21100  0.66600  0.22900  1.0000 -0.1490774072
C   C23       1.0  0.34040  0.79780  0.68580  1.0000 -0.1490774072
C   C24       1.0  0.20220  0.65960  0.18580  1.0000 -0.1490774072
C   C25       1.0  0.23360  0.84140  0.65940  1.0000 0.1702055259
C   C26       1.0  0.15860  0.76640  0.15940  1.0000 0.1702055259
C   C27       1.0  0.22900  0.84780  0.61090  1.0000 0.0822842799
C   C28       1.0  0.15220  0.77100  0.11090  1.0000 0.0822842799
C   C29       1.0  0.11660  0.82560  0.58680  1.0000 -0.1490774072
C   C30       1.0  0.17440  0.88340  0.08680  1.0000 -0.1490774072
C   C31       1.0  0.11670  0.82330  0.54350  1.0000 0.0822842799
C   C32       1.0  0.17670  0.88330  0.04350  1.0000 0.0822842799
C   C33       1.0  0.32610  0.87010  0.54530  1.0000 0.0979193075
C   C34       1.0  0.12990  0.67390  0.04530  1.0000 0.0979193075
C   C35       1.0  0.33550  0.87090  0.58960  1.0000 -0.1853361057
C   C36       1.0  0.12910  0.66450  0.08960  1.0000 -0.1853361057
C   C37       1.0  0.47520  0.18840  0.54910  1.0000 0.0358708369
C   C38       1.0  0.81160  0.52480  0.04910  1.0000 0.0358708369
C   C39       1.0  0.77540  0.85700  0.55310  1.0000 0.0358708369
C   C40       1.0  0.14300  0.22460  0.05310  1.0000 0.0358708369
C   C41       1.0  0.09970  0.17530  0.55590  1.0000 0.0597495775
C   C42       1.0  0.82470  0.90030  0.05590  1.0000 0.0597495775
C   C43       1.0  0.78810  0.48670  0.53960  1.0000 0.0597495775
C   C44       1.0  0.51330  0.21190  0.03960  1.0000 0.0597495775
C   C45       1.0  0.72620  0.26140  0.63600  1.0000 0.1069382651
C   C46       1.0  0.73860  0.27380  0.13600  1.0000 0.1069382651
C   C47       1.0  0.73260  0.27960  0.67920  1.0000 -0.1838302092
C   C48       1.0  0.72040  0.26740  0.17920  1.0000 -0.1838302092
C   C49       1.0  0.81620  0.20660  0.70850  1.0000 0.0914563311
C   C50       1.0  0.79340  0.18380  0.20850  1.0000 0.0914563311
C   C51       1.0  0.89060  0.11800  0.69210  1.0000 -0.1742311494
C   C52       1.0  0.88200  0.10940  0.19210  1.0000 -0.1742311494
C   C53       1.0  0.88030  0.10970  0.64820  1.0000 0.1069382651
C   C54       1.0  0.89030  0.11970  0.14820  1.0000 0.1069382651
C   C55       1.0  0.82560  0.22320  0.75560  1.0000 0.1702055259
C   C56       1.0  0.77680  0.17440  0.25560  1.0000 0.1644762231
C   C57       1.0  0.78900  0.33400  0.77100  1.0000 -0.1490774072
C   C58       1.0  0.66600  0.21100  0.27100  1.0000 -0.1490774072
C   C59       1.0  0.79780  0.34040  0.81420  1.0000 -0.1490774072
C   C60       1.0  0.65960  0.20220  0.31420  1.0000 -0.1490774072
C   C61       1.0  0.84140  0.23360  0.84060  1.0000 0.1702055259
C   C62       1.0  0.76640  0.15860  0.34060  1.0000 0.1702055259
C   C63       1.0  0.84780  0.22900  0.88910  1.0000 0.0822842799
C   C64       1.0  0.77100  0.15220  0.38910  1.0000 0.0822842799
C   C65       1.0  0.82560  0.11660  0.91320  1.0000 -0.1490774072
C   C66       1.0  0.88340  0.17440  0.41320  1.0000 -0.1490774072
C   C67       1.0  0.82330  0.11670  0.95650  1.0000 0.0822842799
C   C68       1.0  0.88330  0.17670  0.45650  1.0000 0.0822842799
C   C69       1.0  0.87010  0.32610  0.95470  1.0000 0.0979193075
C   C70       1.0  0.67390  0.12990  0.45470  1.0000 0.0979193075
C   C71       1.0  0.87090  0.33550  0.91040  1.0000 -0.1853361057
C   C72       1.0  0.66450  0.12910  0.41040  1.0000 -0.1853361057
N   N1        1.0  0.18210  0.58330  0.95270  1.0000 -0.3574932766
N   N2        1.0  0.41670  0.81790  0.45270  1.0000 -0.3574932766
N   N3        1.0  0.96420  0.77860  0.94280  1.0000 -0.3574932766
N   N4        1.0  0.22140  0.03580  0.44280  1.0000 -0.3574932766
N   N5        1.0  0.16960  0.99180  0.94450  1.0000 -0.3530220614
N   N6        1.0  0.00820  0.83040  0.44450  1.0000 -0.3530220614
N   N7        1.0  0.37790  0.79150  0.96100  1.0000 -0.3574932766
N   N8        1.0  0.20850  0.62210  0.46100  1.0000 -0.3574932766
N   N9        1.0  0.17970  0.79930  0.88020  1.0000 -0.208960213
N   N10       1.0  0.20070  0.82030  0.38020  1.0000 -0.208960213
N   N11       1.0  0.12690  0.87610  0.67460  1.0000 -0.1490774072
N   N12       1.0  0.12390  0.87310  0.17460  1.0000 -0.1490774072
N   N13       1.0  0.12250  0.86950  0.71750  1.0000 -0.1372563654
N   N14       1.0  0.13050  0.87750  0.21750  1.0000 -0.1372563654
N   N15       1.0  0.22080  0.84320  0.52190  1.0000 -0.208960213
N   N16       1.0  0.15680  0.77920  0.02190  1.0000 -0.208960213
N   N17       1.0  0.58330  0.18210  0.54730  1.0000 -0.3574932766
N   N18       1.0  0.81790  0.41670  0.04730  1.0000 -0.3574932766
N   N19       1.0  0.77860  0.96420  0.55720  1.0000 -0.3574932766
N   N20       1.0  0.03580  0.22140  0.05720  1.0000 -0.3574932766
N   N21       1.0  0.99180  0.16960  0.55550  1.0000 -0.3530220614
N   N22       1.0  0.83040  0.00820  0.05550  1.0000 -0.3530220614
N   N23       1.0  0.79150  0.37790  0.53900  1.0000 -0.3574932766
N   N24       1.0  0.62210  0.20850  0.03900  1.0000 -0.3574932766
N   N25       1.0  0.79930  0.17970  0.61980  1.0000 -0.208960213
N   N26       1.0  0.82030  0.20070  0.11980  1.0000 -0.208960213
N   N27       1.0  0.87610  0.12690  0.82540  1.0000 -0.1490774072
N   N28       1.0  0.87310  0.12390  0.32540  1.0000 -0.1490774072
N   N29       1.0  0.86950  0.12250  0.78250  1.0000 -0.1372563654
N   N30       1.0  0.87750  0.13050  0.28250  1.0000 -0.1372563654
N   N31       1.0  0.84320  0.22080  0.97810  1.0000 -0.208960213
N   N32       1.0  0.77920  0.15680  0.47810  1.0000 -0.208960213
