# DDEC6 charges by PACMAN v1.1 (https://github.com/mtap-research/PACMAN-charge/)
data_2016[Co][the]3[ASR]1
_chemical_formula_sum              "Co12 H72 C72 N96 Cl3"
_cell_length_a       18.7059
_cell_length_b       18.7059
_cell_length_c       18.7059
_cell_angle_alpha    90
_cell_angle_beta     90
_cell_angle_gamma    90

_symmetry_space_group_name_H-M    "P 1"
_symmetry_Int_Tables_number       1

loop_
  _symmetry_equiv_pos_as_xyz
  'x, y, z'

loop_
  _atom_site_type_symbol
  _atom_site_label
  _atom_site_symmetry_multiplicity
  _atom_site_fract_x
  _atom_site_fract_y
  _atom_site_fract_z
  _atom_site_occupancy
  _atom_site_charge
Co  Co1       1.0  0.00000  0.36896  0.50000  1.0000 0.3921541682
Co  Co2       1.0  0.63104  0.00000  0.50000  1.0000 0.3921541682
Co  Co3       1.0  0.00000  0.63104  0.50000  1.0000 0.3921541682
Co  Co4       1.0  0.36896  0.00000  0.50000  1.0000 0.3921541682
Co  Co5       1.0  0.00000  0.50000  0.36896  1.0000 0.3921541682
Co  Co6       1.0  0.00000  0.50000  0.63104  1.0000 0.3921541682
Co  Co7       1.0  0.50000  0.36896  0.00000  1.0000 0.3921541682
Co  Co8       1.0  0.50000  0.00000  0.36896  1.0000 0.3921541682
Co  Co9       1.0  0.36896  0.50000  0.00000  1.0000 0.3921541682
Co  Co10      1.0  0.63104  0.50000  0.00000  1.0000 0.3921541682
Co  Co11      1.0  0.50000  0.00000  0.63104  1.0000 0.3921541682
Co  Co12      1.0  0.50000  0.63104  0.00000  1.0000 0.3921541682
H   H1        1.0  0.23860  0.23860  0.60920  1.0000 0.0857368098
H   H2        1.0  0.76140  0.23860  0.60920  1.0000 0.0857368098
H   H3        1.0  0.76140  0.76140  0.60920  1.0000 0.0857368098
H   H4        1.0  0.23860  0.76140  0.60920  1.0000 0.0857368098
H   H5        1.0  0.23860  0.39080  0.23860  1.0000 0.0857368098
H   H6        1.0  0.23860  0.76140  0.39080  1.0000 0.0857368098
H   H7        1.0  0.23860  0.60920  0.76140  1.0000 0.0857368098
H   H8        1.0  0.60920  0.23860  0.76140  1.0000 0.0857368098
H   H9        1.0  0.76140  0.23860  0.39080  1.0000 0.0857368098
H   H10       1.0  0.39080  0.23860  0.23860  1.0000 0.0857368098
H   H11       1.0  0.60920  0.23860  0.23860  1.0000 0.0857368098
H   H12       1.0  0.23860  0.60920  0.23860  1.0000 0.0857368098
H   H13       1.0  0.76140  0.39080  0.23860  1.0000 0.0857368098
H   H14       1.0  0.60920  0.76140  0.76140  1.0000 0.0857368098
H   H15       1.0  0.76140  0.60920  0.76140  1.0000 0.0857368098
H   H16       1.0  0.39080  0.76140  0.23860  1.0000 0.0857368098
H   H17       1.0  0.39080  0.23860  0.76140  1.0000 0.0857368098
H   H18       1.0  0.23860  0.39080  0.76140  1.0000 0.0857368098
H   H19       1.0  0.23860  0.23860  0.39080  1.0000 0.0857368098
H   H20       1.0  0.76140  0.76140  0.39080  1.0000 0.0857368098
H   H21       1.0  0.76140  0.60920  0.23860  1.0000 0.0857368098
H   H22       1.0  0.76140  0.39080  0.76140  1.0000 0.0857368098
H   H23       1.0  0.60920  0.76140  0.23860  1.0000 0.0857368098
H   H24       1.0  0.39080  0.76140  0.76140  1.0000 0.0857368098
H   H25       1.0  0.14030  0.28810  0.56070  1.0000 0.2547085718
H   H26       1.0  0.71190  0.14030  0.56070  1.0000 0.2547085718
H   H27       1.0  0.85970  0.71190  0.56070  1.0000 0.2547085718
H   H28       1.0  0.28810  0.85970  0.56070  1.0000 0.2547085718
H   H29       1.0  0.14030  0.43930  0.28810  1.0000 0.2547085718
H   H30       1.0  0.14030  0.71190  0.43930  1.0000 0.2547085718
H   H31       1.0  0.14030  0.56070  0.71190  1.0000 0.2547085718
H   H32       1.0  0.56070  0.28810  0.85970  1.0000 0.2547085718
H   H33       1.0  0.85970  0.28810  0.43930  1.0000 0.2547085718
H   H34       1.0  0.43930  0.28810  0.14030  1.0000 0.2547085718
H   H35       1.0  0.56070  0.14030  0.28810  1.0000 0.2547085718
H   H36       1.0  0.28810  0.56070  0.14030  1.0000 0.2547085718
H   H37       1.0  0.71190  0.43930  0.14030  1.0000 0.2547085718
H   H38       1.0  0.56070  0.85970  0.71190  1.0000 0.2547085718
H   H39       1.0  0.71190  0.56070  0.85970  1.0000 0.2547085718
H   H40       1.0  0.43930  0.85970  0.28810  1.0000 0.2547085718
H   H41       1.0  0.43930  0.14030  0.71190  1.0000 0.2547085718
H   H42       1.0  0.28810  0.43930  0.85970  1.0000 0.2547085718
H   H43       1.0  0.28810  0.14030  0.43930  1.0000 0.2547085718
H   H44       1.0  0.71190  0.85970  0.43930  1.0000 0.2547085718
H   H45       1.0  0.85970  0.56070  0.28810  1.0000 0.2547085718
H   H46       1.0  0.85970  0.43930  0.71190  1.0000 0.2547085718
H   H47       1.0  0.56070  0.71190  0.14030  1.0000 0.2547085718
H   H48       1.0  0.43930  0.71190  0.85970  1.0000 0.2547085718
H   H49       1.0  0.85970  0.71190  0.43930  1.0000 0.2547085718
H   H50       1.0  0.28810  0.85970  0.43930  1.0000 0.2547085718
H   H51       1.0  0.14030  0.28810  0.43930  1.0000 0.2547085718
H   H52       1.0  0.71190  0.14030  0.43930  1.0000 0.2547085718
H   H53       1.0  0.85970  0.56070  0.71190  1.0000 0.2547085718
H   H54       1.0  0.85970  0.28810  0.56070  1.0000 0.2547085718
H   H55       1.0  0.85970  0.43930  0.28810  1.0000 0.2547085718
H   H56       1.0  0.43930  0.71190  0.14030  1.0000 0.2547085718
H   H57       1.0  0.14030  0.71190  0.56070  1.0000 0.2547085718
H   H58       1.0  0.56070  0.71190  0.85970  1.0000 0.2547085718
H   H59       1.0  0.43930  0.85970  0.71190  1.0000 0.2547085718
H   H60       1.0  0.71190  0.43930  0.85970  1.0000 0.2547085718
H   H61       1.0  0.28810  0.56070  0.85970  1.0000 0.2547085718
H   H62       1.0  0.43930  0.14030  0.28810  1.0000 0.2547085718
H   H63       1.0  0.28810  0.43930  0.14030  1.0000 0.2547085718
H   H64       1.0  0.56070  0.14030  0.71190  1.0000 0.2547085718
H   H65       1.0  0.56070  0.85970  0.28810  1.0000 0.2547085718
H   H66       1.0  0.71190  0.56070  0.14030  1.0000 0.2547085718
H   H67       1.0  0.71190  0.85970  0.56070  1.0000 0.2547085718
H   H68       1.0  0.28810  0.14030  0.56070  1.0000 0.2547085718
H   H69       1.0  0.14030  0.43930  0.71190  1.0000 0.2547085718
H   H70       1.0  0.14030  0.56070  0.28810  1.0000 0.2547085718
H   H71       1.0  0.43930  0.28810  0.85970  1.0000 0.2547085718
H   H72       1.0  0.56070  0.28810  0.14030  1.0000 0.2547085718
C   C1        1.0  0.22880  0.32054  0.67946  1.0000 0.0231320108
C   C2        1.0  0.67946  0.22880  0.67946  1.0000 0.0231320108
C   C3        1.0  0.77120  0.67946  0.67946  1.0000 0.0231320108
C   C4        1.0  0.32054  0.77120  0.67946  1.0000 0.0231320108
C   C5        1.0  0.22880  0.32054  0.32054  1.0000 0.0231320108
C   C6        1.0  0.22880  0.67946  0.32054  1.0000 0.0231320108
C   C7        1.0  0.22880  0.67946  0.67946  1.0000 0.0231320108
C   C8        1.0  0.67946  0.32054  0.77120  1.0000 0.0231320108
C   C9        1.0  0.77120  0.32054  0.32054  1.0000 0.0231320108
C   C10       1.0  0.32054  0.32054  0.22880  1.0000 0.0231320108
C   C11       1.0  0.67946  0.22880  0.32054  1.0000 0.0231320108
C   C12       1.0  0.32054  0.67946  0.22880  1.0000 0.0231320108
C   C13       1.0  0.67946  0.32054  0.22880  1.0000 0.0231320108
C   C14       1.0  0.67946  0.77120  0.67946  1.0000 0.0231320108
C   C15       1.0  0.67946  0.67946  0.77120  1.0000 0.0231320108
C   C16       1.0  0.32054  0.77120  0.32054  1.0000 0.0231320108
C   C17       1.0  0.32054  0.22880  0.67946  1.0000 0.0231320108
C   C18       1.0  0.32054  0.32054  0.77120  1.0000 0.0231320108
C   C19       1.0  0.32054  0.22880  0.32054  1.0000 0.0231320108
C   C20       1.0  0.67946  0.77120  0.32054  1.0000 0.0231320108
C   C21       1.0  0.77120  0.67946  0.32054  1.0000 0.0231320108
C   C22       1.0  0.77120  0.32054  0.67946  1.0000 0.0231320108
C   C23       1.0  0.67946  0.67946  0.22880  1.0000 0.0231320108
C   C24       1.0  0.32054  0.67946  0.77120  1.0000 0.0231320108
C   C25       1.0  0.16380  0.35240  0.64760  1.0000 0.04624135
C   C26       1.0  0.64760  0.16380  0.64760  1.0000 0.04624135
C   C27       1.0  0.83620  0.64760  0.64760  1.0000 0.04624135
C   C28       1.0  0.35240  0.83620  0.64760  1.0000 0.04624135
C   C29       1.0  0.16380  0.35240  0.35240  1.0000 0.04624135
C   C30       1.0  0.16380  0.64760  0.35240  1.0000 0.04624135
C   C31       1.0  0.16380  0.64760  0.64760  1.0000 0.04624135
C   C32       1.0  0.64760  0.35240  0.83620  1.0000 0.04624135
C   C33       1.0  0.83620  0.35240  0.35240  1.0000 0.04624135
C   C34       1.0  0.35240  0.35240  0.16380  1.0000 0.04624135
C   C35       1.0  0.64760  0.16380  0.35240  1.0000 0.04624135
C   C36       1.0  0.35240  0.64760  0.16380  1.0000 0.04624135
C   C37       1.0  0.64760  0.35240  0.16380  1.0000 0.04624135
C   C38       1.0  0.64760  0.83620  0.64760  1.0000 0.04624135
C   C39       1.0  0.64760  0.64760  0.83620  1.0000 0.04624135
C   C40       1.0  0.35240  0.83620  0.35240  1.0000 0.04624135
C   C41       1.0  0.35240  0.16380  0.64760  1.0000 0.04624135
C   C42       1.0  0.35240  0.35240  0.83620  1.0000 0.04624135
C   C43       1.0  0.35240  0.16380  0.35240  1.0000 0.04624135
C   C44       1.0  0.64760  0.83620  0.35240  1.0000 0.04624135
C   C45       1.0  0.83620  0.64760  0.35240  1.0000 0.04624135
C   C46       1.0  0.83620  0.35240  0.64760  1.0000 0.04624135
C   C47       1.0  0.64760  0.64760  0.16380  1.0000 0.04624135
C   C48       1.0  0.35240  0.64760  0.83620  1.0000 0.04624135
C   C49       1.0  0.25970  0.25970  0.65030  1.0000 -0.2215750008
C   C50       1.0  0.74030  0.25970  0.65030  1.0000 -0.2215750008
C   C51       1.0  0.74030  0.74030  0.65030  1.0000 -0.2215750008
C   C52       1.0  0.25970  0.74030  0.65030  1.0000 -0.2215750008
C   C53       1.0  0.25970  0.34970  0.25970  1.0000 -0.2215750008
C   C54       1.0  0.25970  0.74030  0.34970  1.0000 -0.2215750008
C   C55       1.0  0.25970  0.65030  0.74030  1.0000 -0.2215750008
C   C56       1.0  0.65030  0.25970  0.74030  1.0000 -0.2215750008
C   C57       1.0  0.74030  0.25970  0.34970  1.0000 -0.2215750008
C   C58       1.0  0.34970  0.25970  0.25970  1.0000 -0.2215750008
C   C59       1.0  0.65030  0.25970  0.25970  1.0000 -0.2215750008
C   C60       1.0  0.25970  0.65030  0.25970  1.0000 -0.2215750008
C   C61       1.0  0.74030  0.34970  0.25970  1.0000 -0.2215750008
C   C62       1.0  0.65030  0.74030  0.74030  1.0000 -0.2215750008
C   C63       1.0  0.74030  0.65030  0.74030  1.0000 -0.2215750008
C   C64       1.0  0.34970  0.74030  0.25970  1.0000 -0.2215750008
C   C65       1.0  0.34970  0.25970  0.74030  1.0000 -0.2215750008
C   C66       1.0  0.25970  0.34970  0.74030  1.0000 -0.2215750008
C   C67       1.0  0.25970  0.25970  0.34970  1.0000 -0.2215750008
C   C68       1.0  0.74030  0.74030  0.34970  1.0000 -0.2215750008
C   C69       1.0  0.74030  0.65030  0.25970  1.0000 -0.2215750008
C   C70       1.0  0.74030  0.34970  0.74030  1.0000 -0.2215750008
C   C71       1.0  0.65030  0.74030  0.25970  1.0000 -0.2215750008
C   C72       1.0  0.34970  0.74030  0.74030  1.0000 -0.2215750008
N   N1        1.0  0.07344  0.37229  0.57635  1.0000 -0.0812919029
N   N2        1.0  0.62771  0.07344  0.57635  1.0000 -0.0812919029
N   N3        1.0  0.92656  0.62771  0.57635  1.0000 -0.0812919029
N   N4        1.0  0.37229  0.92656  0.57635  1.0000 -0.0812919029
N   N5        1.0  0.07344  0.42365  0.37229  1.0000 -0.0812919029
N   N6        1.0  0.07344  0.62771  0.42365  1.0000 -0.0812919029
N   N7        1.0  0.07344  0.57635  0.62771  1.0000 -0.0812919029
N   N8        1.0  0.57635  0.37229  0.92656  1.0000 -0.0812919029
N   N9        1.0  0.92656  0.37229  0.42365  1.0000 -0.0812919029
N   N10       1.0  0.42365  0.37229  0.07344  1.0000 -0.0812919029
N   N11       1.0  0.57635  0.07344  0.37229  1.0000 -0.0812919029
N   N12       1.0  0.37229  0.57635  0.07344  1.0000 -0.0812919029
N   N13       1.0  0.62771  0.42365  0.07344  1.0000 -0.0812919029
N   N14       1.0  0.57635  0.92656  0.62771  1.0000 -0.0812919029
N   N15       1.0  0.62771  0.57635  0.92656  1.0000 -0.0812919029
N   N16       1.0  0.42365  0.92656  0.37229  1.0000 -0.0812919029
N   N17       1.0  0.42365  0.07344  0.62771  1.0000 -0.0812919029
N   N18       1.0  0.37229  0.42365  0.92656  1.0000 -0.0812919029
N   N19       1.0  0.37229  0.07344  0.42365  1.0000 -0.0812919029
N   N20       1.0  0.62771  0.92656  0.42365  1.0000 -0.0812919029
N   N21       1.0  0.92656  0.57635  0.37229  1.0000 -0.0812919029
N   N22       1.0  0.92656  0.42365  0.62771  1.0000 -0.0812919029
N   N23       1.0  0.57635  0.62771  0.07344  1.0000 -0.0812919029
N   N24       1.0  0.42365  0.62771  0.92656  1.0000 -0.0812919029
N   N25       1.0  0.92656  0.62771  0.42365  1.0000 -0.0812919029
N   N26       1.0  0.37229  0.92656  0.42365  1.0000 -0.0812919029
N   N27       1.0  0.07344  0.37229  0.42365  1.0000 -0.0812919029
N   N28       1.0  0.62771  0.07344  0.42365  1.0000 -0.0812919029
N   N29       1.0  0.92656  0.57635  0.62771  1.0000 -0.0812919029
N   N30       1.0  0.92656  0.37229  0.57635  1.0000 -0.0812919029
N   N31       1.0  0.92656  0.42365  0.37229  1.0000 -0.0812919029
N   N32       1.0  0.42365  0.62771  0.07344  1.0000 -0.0812919029
N   N33       1.0  0.07344  0.62771  0.57635  1.0000 -0.0812919029
N   N34       1.0  0.57635  0.62771  0.92656  1.0000 -0.0812919029
N   N35       1.0  0.42365  0.92656  0.62771  1.0000 -0.0812919029
N   N36       1.0  0.62771  0.42365  0.92656  1.0000 -0.0812919029
N   N37       1.0  0.37229  0.57635  0.92656  1.0000 -0.0812919029
N   N38       1.0  0.42365  0.07344  0.37229  1.0000 -0.0812919029
N   N39       1.0  0.37229  0.42365  0.07344  1.0000 -0.0812919029
N   N40       1.0  0.57635  0.07344  0.62771  1.0000 -0.0812919029
N   N41       1.0  0.57635  0.92656  0.37229  1.0000 -0.0812919029
N   N42       1.0  0.62771  0.57635  0.07344  1.0000 -0.0812919029
N   N43       1.0  0.62771  0.92656  0.57635  1.0000 -0.0812919029
N   N44       1.0  0.37229  0.07344  0.57635  1.0000 -0.0812919029
N   N45       1.0  0.07344  0.42365  0.62771  1.0000 -0.0812919029
N   N46       1.0  0.07344  0.57635  0.37229  1.0000 -0.0812919029
N   N47       1.0  0.42365  0.37229  0.92656  1.0000 -0.0812919029
N   N48       1.0  0.57635  0.37229  0.07344  1.0000 -0.0812919029
N   N49       1.0  0.12803  0.32884  0.58845  1.0000 -0.2114400958
N   N50       1.0  0.67116  0.12803  0.58845  1.0000 -0.2114400958
N   N51       1.0  0.87197  0.67116  0.58845  1.0000 -0.2114400958
N   N52       1.0  0.32884  0.87197  0.58845  1.0000 -0.2114400958
N   N53       1.0  0.12803  0.41155  0.32884  1.0000 -0.2114400958
N   N54       1.0  0.12803  0.67116  0.41155  1.0000 -0.2114400958
N   N55       1.0  0.12803  0.58845  0.67116  1.0000 -0.2114400958
N   N56       1.0  0.58845  0.32884  0.87197  1.0000 -0.2114400958
N   N57       1.0  0.87197  0.32884  0.41155  1.0000 -0.2114400958
N   N58       1.0  0.41155  0.32884  0.12803  1.0000 -0.2114400958
N   N59       1.0  0.58845  0.12803  0.32884  1.0000 -0.2114400958
N   N60       1.0  0.32884  0.58845  0.12803  1.0000 -0.2114400958
N   N61       1.0  0.67116  0.41155  0.12803  1.0000 -0.2114400958
N   N62       1.0  0.58845  0.87197  0.67116  1.0000 -0.2114400958
N   N63       1.0  0.67116  0.58845  0.87197  1.0000 -0.2114400958
N   N64       1.0  0.41155  0.87197  0.32884  1.0000 -0.2114400958
N   N65       1.0  0.41155  0.12803  0.67116  1.0000 -0.2114400958
N   N66       1.0  0.32884  0.41155  0.87197  1.0000 -0.2114400958
N   N67       1.0  0.32884  0.12803  0.41155  1.0000 -0.2114400958
N   N68       1.0  0.67116  0.87197  0.41155  1.0000 -0.2114400958
N   N69       1.0  0.87197  0.58845  0.32884  1.0000 -0.2114400958
N   N70       1.0  0.87197  0.41155  0.67116  1.0000 -0.2114400958
N   N71       1.0  0.58845  0.67116  0.12803  1.0000 -0.2114400958
N   N72       1.0  0.41155  0.67116  0.87197  1.0000 -0.2114400958
N   N73       1.0  0.87197  0.67116  0.41155  1.0000 -0.2114400958
N   N74       1.0  0.32884  0.87197  0.41155  1.0000 -0.2114400958
N   N75       1.0  0.12803  0.32884  0.41155  1.0000 -0.2114400958
N   N76       1.0  0.67116  0.12803  0.41155  1.0000 -0.2114400958
N   N77       1.0  0.87197  0.58845  0.67116  1.0000 -0.2114400958
N   N78       1.0  0.87197  0.32884  0.58845  1.0000 -0.2114400958
N   N79       1.0  0.87197  0.41155  0.32884  1.0000 -0.2114400958
N   N80       1.0  0.41155  0.67116  0.12803  1.0000 -0.2114400958
N   N81       1.0  0.12803  0.67116  0.58845  1.0000 -0.2114400958
N   N82       1.0  0.58845  0.67116  0.87197  1.0000 -0.2114400958
N   N83       1.0  0.41155  0.87197  0.67116  1.0000 -0.2114400958
N   N84       1.0  0.67116  0.41155  0.87197  1.0000 -0.2114400958
N   N85       1.0  0.32884  0.58845  0.87197  1.0000 -0.2114400958
N   N86       1.0  0.41155  0.12803  0.32884  1.0000 -0.2114400958
N   N87       1.0  0.32884  0.41155  0.12803  1.0000 -0.2114400958
N   N88       1.0  0.58845  0.12803  0.67116  1.0000 -0.2114400958
N   N89       1.0  0.58845  0.87197  0.32884  1.0000 -0.2114400958
N   N90       1.0  0.67116  0.58845  0.12803  1.0000 -0.2114400958
N   N91       1.0  0.67116  0.87197  0.58845  1.0000 -0.2114400958
N   N92       1.0  0.32884  0.12803  0.58845  1.0000 -0.2114400958
N   N93       1.0  0.12803  0.41155  0.67116  1.0000 -0.2114400958
N   N94       1.0  0.12803  0.58845  0.32884  1.0000 -0.2114400958
N   N95       1.0  0.41155  0.32884  0.87197  1.0000 -0.2114400958
N   N96       1.0  0.58845  0.32884  0.12803  1.0000 -0.2114400958
Cl  Cl1       1.0  0.00000  0.50000  0.50000  1.0000 -0.4285231992
Cl  Cl2       1.0  0.50000  0.00000  0.50000  1.0000 -0.4285231992
Cl  Cl3       1.0  0.50000  0.50000  0.00000  1.0000 -0.4285231992
