# DDEC6 charges by PACMAN v1.1 (https://github.com/mtap-research/PACMAN-charge/)
data_2016[Co][nan]3[ASR]6
_chemical_formula_sum              "Co6 H16 C28 N12 O12"
_cell_length_a       10.9396
_cell_length_b       10.9396
_cell_length_c       11.1984
_cell_angle_alpha    86.0327
_cell_angle_beta     93.9673
_cell_angle_gamma    109.334

_symmetry_space_group_name_H-M    "P 1"
_symmetry_Int_Tables_number       1

loop_
  _symmetry_equiv_pos_as_xyz
  'x, y, z'

loop_
  _atom_site_type_symbol
  _atom_site_label
  _atom_site_symmetry_multiplicity
  _atom_site_fract_x
  _atom_site_fract_y
  _atom_site_fract_z
  _atom_site_occupancy
  _atom_site_charge
Co  Co1       1.0  0.90447  0.90447  0.75000  1.0000 0.9268738087
Co  Co2       1.0  0.09553  0.09553  0.25000  1.0000 0.9268738087
Co  Co3       1.0  0.01975  0.86221  0.49956  1.0000 0.8571105059
Co  Co4       1.0  0.86221  0.01975  0.00044  1.0000 0.8571105059
Co  Co5       1.0  0.98025  0.13779  0.50044  1.0000 0.8571105059
Co  Co6       1.0  0.13779  0.98025  0.99956  1.0000 0.8571105059
H   H1        1.0  0.35000  0.87420  0.51720  1.0000 0.1372003779
H   H2        1.0  0.87420  0.35000  0.98280  1.0000 0.1372003779
H   H3        1.0  0.65000  0.12580  0.48280  1.0000 0.1372003779
H   H4        1.0  0.12580  0.65000  0.01720  1.0000 0.1372003779
H   H5        1.0  0.54650  0.87750  0.60890  1.0000 0.1212798357
H   H6        1.0  0.87750  0.54650  0.89110  1.0000 0.1212798357
H   H7        1.0  0.45350  0.12250  0.39110  1.0000 0.1212798357
H   H8        1.0  0.12250  0.45350  0.10890  1.0000 0.1212798357
H   H9        1.0  0.43820  0.93920  0.93310  1.0000 0.1372003779
H   H10       1.0  0.93920  0.43820  0.56690  1.0000 0.1372003779
H   H11       1.0  0.56180  0.06080  0.06690  1.0000 0.1372003779
H   H12       1.0  0.06080  0.56180  0.43310  1.0000 0.1372003779
H   H13       1.0  0.81600  0.90200  0.53500  1.0000 0.3954848106
H   H14       1.0  0.90200  0.81600  0.96500  1.0000 0.3954848106
H   H15       1.0  0.18400  0.09800  0.46500  1.0000 0.3954848106
H   H16       1.0  0.09800  0.18400  0.03500  1.0000 0.3954848106
C   C1        1.0  0.30080  0.92420  0.79490  1.0000 0.128908595
C   C2        1.0  0.92420  0.30080  0.70510  1.0000 0.128908595
C   C3        1.0  0.69920  0.07580  0.20510  1.0000 0.128908595
C   C4        1.0  0.07580  0.69920  0.29490  1.0000 0.128908595
C   C5        1.0  0.27470  0.90450  0.67210  1.0000 0.1212798357
C   C6        1.0  0.90450  0.27470  0.82790  1.0000 0.1212798357
C   C7        1.0  0.72530  0.09550  0.32790  1.0000 0.1212798357
C   C8        1.0  0.09550  0.72530  0.17210  1.0000 0.1212798357
C   C9        1.0  0.36710  0.88670  0.59970  1.0000 -0.1681979541
C   C10       1.0  0.88670  0.36710  0.90030  1.0000 -0.1681979541
C   C11       1.0  0.63290  0.11330  0.40030  1.0000 -0.1681979541
C   C12       1.0  0.11330  0.63290  0.09970  1.0000 -0.1681979541
C   C13       1.0  0.48260  0.88860  0.65500  1.0000 -0.1202488337
C   C14       1.0  0.88860  0.48260  0.84500  1.0000 -0.1202488337
C   C15       1.0  0.51740  0.11140  0.34500  1.0000 -0.1202488337
C   C16       1.0  0.11140  0.51740  0.15500  1.0000 -0.1202488337
C   C17       1.0  0.51020  0.90680  0.77980  1.0000 -0.0212826189
C   C18       1.0  0.90680  0.51020  0.72020  1.0000 -0.0212826189
C   C19       1.0  0.48980  0.09320  0.22020  1.0000 -0.0212826189
C   C20       1.0  0.09320  0.48980  0.27980  1.0000 -0.0212826189
C   C21       1.0  0.42020  0.92580  0.85080  1.0000 -0.1681979541
C   C22       1.0  0.92580  0.42020  0.64920  1.0000 -0.1681979541
C   C23       1.0  0.57980  0.07420  0.14920  1.0000 -0.1681979541
C   C24       1.0  0.07420  0.57980  0.35080  1.0000 -0.1681979541
C   C25       1.0  0.64090  0.90710  0.83140  1.0000 0.5869486983
C   C26       1.0  0.90710  0.64090  0.66860  1.0000 0.5869486983
C   C27       1.0  0.35910  0.09290  0.16860  1.0000 0.5869486983
C   C28       1.0  0.09290  0.35910  0.33140  1.0000 0.5869486983
N   N1        1.0  0.19123  0.93917  0.83790  1.0000 -0.2475361768
N   N2        1.0  0.93917  0.19123  0.66210  1.0000 -0.2475361768
N   N3        1.0  0.80877  0.06083  0.16210  1.0000 -0.2475361768
N   N4        1.0  0.06083  0.80877  0.33790  1.0000 -0.2475361768
N   N5        1.0  0.10627  0.92773  0.74420  1.0000 -0.0345610865
N   N6        1.0  0.92773  0.10627  0.75580  1.0000 -0.0345610865
N   N7        1.0  0.89373  0.07227  0.25580  1.0000 -0.0345610865
N   N8        1.0  0.07227  0.89373  0.24420  1.0000 -0.0345610865
N   N9        1.0  0.15212  0.90688  0.64410  1.0000 -0.2442060654
N   N10       1.0  0.90688  0.15212  0.85590  1.0000 -0.2442060654
N   N11       1.0  0.84788  0.09312  0.35590  1.0000 -0.2442060654
N   N12       1.0  0.09312  0.84788  0.14410  1.0000 -0.2442060654
O   O1        1.0  0.89981  0.93999  0.56800  1.0000 -0.8373045568
O   O2        1.0  0.93999  0.89981  0.93200  1.0000 -0.8373045568
O   O3        1.0  0.10019  0.06001  0.43200  1.0000 -0.8373045568
O   O4        1.0  0.06001  0.10019  0.06800  1.0000 -0.8373045568
O   O5        1.0  0.67413  0.94647  0.93670  1.0000 -0.5605618898
O   O6        1.0  0.94647  0.67413  0.56330  1.0000 -0.5605618898
O   O7        1.0  0.32587  0.05353  0.06330  1.0000 -0.5605618898
O   O8        1.0  0.05353  0.32587  0.43670  1.0000 -0.5605618898
O   O9        1.0  0.70726  0.86934  0.76510  1.0000 -0.5467528049
O   O10       1.0  0.86934  0.70726  0.73490  1.0000 -0.5467528049
O   O11       1.0  0.29274  0.13066  0.23490  1.0000 -0.5467528049
O   O12       1.0  0.13066  0.29274  0.26510  1.0000 -0.5467528049
