# DDEC6 charges by PACMAN v1.1 (https://github.com/mtap-research/PACMAN-charge/)
data_2016[Cu][nbo]3[ASR]28
_chemical_formula_sum              "Cu6 H90 C132 O30"
_cell_length_a       21.2968
_cell_length_b       21.2968
_cell_length_c       21.2968
_cell_angle_alpha    114.572
_cell_angle_beta     114.572
_cell_angle_gamma    114.572

_symmetry_space_group_name_H-M    "P 1"
_symmetry_Int_Tables_number       1

loop_
  _symmetry_equiv_pos_as_xyz
  'x, y, z'

loop_
  _atom_site_type_symbol
  _atom_site_label
  _atom_site_symmetry_multiplicity
  _atom_site_fract_x
  _atom_site_fract_y
  _atom_site_fract_z
  _atom_site_occupancy
  _atom_site_charge
Cu  Cu1       1.0  0.91736  0.91736  0.40743  1.0000 0.8405191391
Cu  Cu2       1.0  0.91736  0.40743  0.91736  1.0000 0.8405191391
Cu  Cu3       1.0  0.40743  0.91736  0.91736  1.0000 0.8405191391
Cu  Cu4       1.0  0.08264  0.08264  0.59257  1.0000 0.8405191391
Cu  Cu5       1.0  0.59257  0.08264  0.08264  1.0000 0.8405191391
Cu  Cu6       1.0  0.08264  0.59257  0.08264  1.0000 0.8405191391
H   H1        1.0  0.86420  0.04060  0.29340  1.0000 0.1192142727
H   H2        1.0  0.04060  0.29340  0.86420  1.0000 0.1192142727
H   H3        1.0  0.29340  0.86420  0.04060  1.0000 0.1192142727
H   H4        1.0  0.95940  0.13580  0.70660  1.0000 0.1192142727
H   H5        1.0  0.70660  0.95940  0.13580  1.0000 0.1192142727
H   H6        1.0  0.13580  0.70660  0.95940  1.0000 0.1192142727
H   H7        1.0  0.13580  0.95940  0.70660  1.0000 0.1192142727
H   H8        1.0  0.95940  0.70660  0.13580  1.0000 0.1192142727
H   H9        1.0  0.70660  0.13580  0.95940  1.0000 0.1192142727
H   H10       1.0  0.04060  0.86420  0.29340  1.0000 0.1192142727
H   H11       1.0  0.29340  0.04060  0.86420  1.0000 0.1192142727
H   H12       1.0  0.86420  0.29340  0.04060  1.0000 0.1192142727
H   H13       1.0  0.86530  0.13740  0.27080  1.0000 0.1297643559
H   H14       1.0  0.13740  0.27080  0.86530  1.0000 0.1297643559
H   H15       1.0  0.27080  0.86530  0.13740  1.0000 0.1297643559
H   H16       1.0  0.86260  0.13470  0.72920  1.0000 0.1297643559
H   H17       1.0  0.72920  0.86260  0.13470  1.0000 0.1297643559
H   H18       1.0  0.13470  0.72920  0.86260  1.0000 0.1297643559
H   H19       1.0  0.13470  0.86260  0.72920  1.0000 0.1297643559
H   H20       1.0  0.86260  0.72920  0.13470  1.0000 0.1297643559
H   H21       1.0  0.72920  0.13470  0.86260  1.0000 0.1297643559
H   H22       1.0  0.13740  0.86530  0.27080  1.0000 0.1297643559
H   H23       1.0  0.27080  0.13740  0.86530  1.0000 0.1297643559
H   H24       1.0  0.86530  0.27080  0.13740  1.0000 0.1297643559
H   H25       1.0  0.11490  0.37600  0.54850  1.0000 0.1192142727
H   H26       1.0  0.37600  0.54850  0.11490  1.0000 0.1192142727
H   H27       1.0  0.54850  0.11490  0.37600  1.0000 0.1192142727
H   H28       1.0  0.62400  0.88510  0.45150  1.0000 0.1192142727
H   H29       1.0  0.45150  0.62400  0.88510  1.0000 0.1192142727
H   H30       1.0  0.88510  0.45150  0.62400  1.0000 0.1192142727
H   H31       1.0  0.88510  0.62400  0.45150  1.0000 0.1192142727
H   H32       1.0  0.62400  0.45150  0.88510  1.0000 0.1192142727
H   H33       1.0  0.45150  0.88510  0.62400  1.0000 0.1192142727
H   H34       1.0  0.37600  0.11490  0.54850  1.0000 0.1192142727
H   H35       1.0  0.54850  0.37600  0.11490  1.0000 0.1192142727
H   H36       1.0  0.11490  0.54850  0.37600  1.0000 0.1192142727
H   H37       1.0  0.12040  0.28160  0.57230  1.0000 0.1192142727
H   H38       1.0  0.28160  0.57230  0.12040  1.0000 0.1192142727
H   H39       1.0  0.57230  0.12040  0.28160  1.0000 0.1192142727
H   H40       1.0  0.71840  0.87960  0.42770  1.0000 0.1192142727
H   H41       1.0  0.42770  0.71840  0.87960  1.0000 0.1192142727
H   H42       1.0  0.87960  0.42770  0.71840  1.0000 0.1192142727
H   H43       1.0  0.87960  0.71840  0.42770  1.0000 0.1192142727
H   H44       1.0  0.71840  0.42770  0.87960  1.0000 0.1192142727
H   H45       1.0  0.42770  0.87960  0.71840  1.0000 0.1192142727
H   H46       1.0  0.28160  0.12040  0.57230  1.0000 0.1192142727
H   H47       1.0  0.57230  0.28160  0.12040  1.0000 0.1192142727
H   H48       1.0  0.12040  0.57230  0.28160  1.0000 0.1192142727
H   H49       1.0  0.99530  0.39720  0.50830  1.0000 0.1114112901
H   H50       1.0  0.39720  0.50830  0.99530  1.0000 0.1114112901
H   H51       1.0  0.50830  0.99530  0.39720  1.0000 0.1114112901
H   H52       1.0  0.60280  0.00470  0.49170  1.0000 0.1114112901
H   H53       1.0  0.49170  0.60280  0.00470  1.0000 0.1114112901
H   H54       1.0  0.00470  0.49170  0.60280  1.0000 0.1114112901
H   H55       1.0  0.00470  0.60280  0.49170  1.0000 0.1114112901
H   H56       1.0  0.60280  0.49170  0.00470  1.0000 0.1114112901
H   H57       1.0  0.49170  0.00470  0.60280  1.0000 0.1114112901
H   H58       1.0  0.39720  0.99530  0.50830  1.0000 0.1114112901
H   H59       1.0  0.50830  0.39720  0.99530  1.0000 0.1114112901
H   H60       1.0  0.99530  0.50830  0.39720  1.0000 0.1114112901
H   H61       1.0  0.10120  0.36990  0.32620  1.0000 0.0697316331
H   H62       1.0  0.36990  0.32620  0.10120  1.0000 0.0697316331
H   H63       1.0  0.32620  0.10120  0.36990  1.0000 0.0697316331
H   H64       1.0  0.63010  0.89880  0.67380  1.0000 0.0697316331
H   H65       1.0  0.67380  0.63010  0.89880  1.0000 0.0697316331
H   H66       1.0  0.89880  0.67380  0.63010  1.0000 0.0697316331
H   H67       1.0  0.89880  0.63010  0.67380  1.0000 0.0697316331
H   H68       1.0  0.63010  0.67380  0.89880  1.0000 0.0697316331
H   H69       1.0  0.67380  0.89880  0.63010  1.0000 0.0697316331
H   H70       1.0  0.36990  0.10120  0.32620  1.0000 0.0697316331
H   H71       1.0  0.32620  0.36990  0.10120  1.0000 0.0697316331
H   H72       1.0  0.10120  0.32620  0.36990  1.0000 0.0697316331
H   H73       1.0  0.13550  0.27780  0.27780  1.0000 0.1114112901
H   H74       1.0  0.27780  0.27780  0.13550  1.0000 0.1114112901
H   H75       1.0  0.27780  0.13550  0.27780  1.0000 0.1114112901
H   H76       1.0  0.72220  0.86450  0.72220  1.0000 0.1114112901
H   H77       1.0  0.72220  0.72220  0.86450  1.0000 0.1114112901
H   H78       1.0  0.86450  0.72220  0.72220  1.0000 0.1114112901
H   H79       1.0  0.03570  0.22760  0.18390  1.0000 0.1114112901
H   H80       1.0  0.22760  0.18390  0.03570  1.0000 0.1114112901
H   H81       1.0  0.18390  0.03570  0.22760  1.0000 0.1114112901
H   H82       1.0  0.77240  0.96430  0.81610  1.0000 0.1192142727
H   H83       1.0  0.81610  0.77240  0.96430  1.0000 0.1192142727
H   H84       1.0  0.96430  0.81610  0.77240  1.0000 0.1192142727
H   H85       1.0  0.96430  0.77240  0.81610  1.0000 0.1192142727
H   H86       1.0  0.77240  0.81610  0.96430  1.0000 0.1192142727
H   H87       1.0  0.81610  0.96430  0.77240  1.0000 0.1192142727
H   H88       1.0  0.22760  0.03570  0.18390  1.0000 0.1114112901
H   H89       1.0  0.18390  0.22760  0.03570  1.0000 0.1114112901
H   H90       1.0  0.03570  0.18390  0.22760  1.0000 0.1114112901
C   C1        1.0  0.98725  0.08712  0.45173  1.0000 0.5684484829
C   C2        1.0  0.08712  0.45173  0.98725  1.0000 0.5684484829
C   C3        1.0  0.45173  0.98725  0.08712  1.0000 0.5684484829
C   C4        1.0  0.91288  0.01275  0.54827  1.0000 0.5684484829
C   C5        1.0  0.54827  0.91288  0.01275  1.0000 0.5684484829
C   C6        1.0  0.01275  0.54827  0.91288  1.0000 0.5684484829
C   C7        1.0  0.01275  0.91288  0.54827  1.0000 0.5684484829
C   C8        1.0  0.91288  0.54827  0.01275  1.0000 0.5684484829
C   C9        1.0  0.54827  0.01275  0.91288  1.0000 0.5684484829
C   C10       1.0  0.08712  0.98725  0.45173  1.0000 0.5684484829
C   C11       1.0  0.45173  0.08712  0.98725  1.0000 0.5684484829
C   C12       1.0  0.98725  0.45173  0.08712  1.0000 0.5684484829
C   C13       1.0  0.98741  0.14846  0.43433  1.0000 -0.0225523675
C   C14       1.0  0.14846  0.43433  0.98741  1.0000 -0.0225523675
C   C15       1.0  0.43433  0.98741  0.14846  1.0000 -0.0225523675
C   C16       1.0  0.85154  0.01259  0.56567  1.0000 -0.0225523675
C   C17       1.0  0.56567  0.85154  0.01259  1.0000 -0.0225523675
C   C18       1.0  0.01259  0.56567  0.85154  1.0000 -0.0225523675
C   C19       1.0  0.01259  0.85154  0.56567  1.0000 -0.0225523675
C   C20       1.0  0.85154  0.56567  0.01259  1.0000 -0.0225523675
C   C21       1.0  0.56567  0.01259  0.85154  1.0000 -0.0225523675
C   C22       1.0  0.14846  0.98741  0.43433  1.0000 -0.0225523675
C   C23       1.0  0.43433  0.14846  0.98741  1.0000 -0.0225523675
C   C24       1.0  0.98741  0.43433  0.14846  1.0000 -0.0225523675
C   C25       1.0  0.91527  0.10863  0.34650  1.0000 -0.0912571566
C   C26       1.0  0.10863  0.34650  0.91527  1.0000 -0.0912571566
C   C27       1.0  0.34650  0.91527  0.10863  1.0000 -0.0912571566
C   C28       1.0  0.89137  0.08473  0.65350  1.0000 -0.0912571566
C   C29       1.0  0.65350  0.89137  0.08473  1.0000 -0.0912571566
C   C30       1.0  0.08473  0.65350  0.89137  1.0000 -0.0912571566
C   C31       1.0  0.08473  0.89137  0.65350  1.0000 -0.0912571566
C   C32       1.0  0.89137  0.65350  0.08473  1.0000 -0.0912571566
C   C33       1.0  0.65350  0.08473  0.89137  1.0000 -0.0912571566
C   C34       1.0  0.10863  0.91527  0.34650  1.0000 -0.0912571566
C   C35       1.0  0.34650  0.10863  0.91527  1.0000 -0.0912571566
C   C36       1.0  0.91527  0.34650  0.10863  1.0000 -0.0912571566
C   C37       1.0  0.91559  0.16761  0.33340  1.0000 -0.1379372265
C   C38       1.0  0.16761  0.33340  0.91559  1.0000 -0.1379372265
C   C39       1.0  0.33340  0.91559  0.16761  1.0000 -0.1379372265
C   C40       1.0  0.83239  0.08441  0.66667  1.0000 -0.1379372265
C   C41       1.0  0.66667  0.83239  0.08441  1.0000 -0.1379372265
C   C42       1.0  0.08441  0.66667  0.83239  1.0000 -0.1379372265
C   C43       1.0  0.08441  0.83239  0.66667  1.0000 -0.1379372265
C   C44       1.0  0.83239  0.66667  0.08441  1.0000 -0.1379372265
C   C45       1.0  0.66667  0.08441  0.83239  1.0000 -0.1379372265
C   C46       1.0  0.16761  0.91559  0.33340  1.0000 -0.1379372265
C   C47       1.0  0.33340  0.16761  0.91559  1.0000 -0.1379372265
C   C48       1.0  0.91559  0.33340  0.16761  1.0000 -0.1379372265
C   C49       1.0  0.98446  0.26485  0.40639  1.0000 0.0881626204
C   C50       1.0  0.26485  0.40639  0.98446  1.0000 0.0881626204
C   C51       1.0  0.40639  0.98446  0.26485  1.0000 0.0881626204
C   C52       1.0  0.73515  0.01554  0.59361  1.0000 0.0881626204
C   C53       1.0  0.59361  0.73515  0.01554  1.0000 0.0881626204
C   C54       1.0  0.01554  0.59361  0.73515  1.0000 0.0881626204
C   C55       1.0  0.01554  0.73515  0.59361  1.0000 0.0881626204
C   C56       1.0  0.73515  0.59361  0.01554  1.0000 0.0881626204
C   C57       1.0  0.59361  0.01554  0.73515  1.0000 0.0881626204
C   C58       1.0  0.26485  0.98446  0.40639  1.0000 0.0881626204
C   C59       1.0  0.40639  0.26485  0.98446  1.0000 0.0881626204
C   C60       1.0  0.98446  0.40639  0.26485  1.0000 0.0881626204
C   C61       1.0  0.06329  0.30791  0.49690  1.0000 -0.159783614
C   C62       1.0  0.30791  0.49690  0.06329  1.0000 -0.159783614
C   C63       1.0  0.49690  0.06329  0.30791  1.0000 -0.159783614
C   C64       1.0  0.69209  0.93671  0.50310  1.0000 -0.159783614
C   C65       1.0  0.50310  0.69209  0.93671  1.0000 -0.159783614
C   C66       1.0  0.93671  0.50310  0.69209  1.0000 -0.159783614
C   C67       1.0  0.93671  0.69209  0.50310  1.0000 -0.159783614
C   C68       1.0  0.69209  0.50310  0.93671  1.0000 -0.159783614
C   C69       1.0  0.50310  0.93671  0.69209  1.0000 -0.159783614
C   C70       1.0  0.30791  0.06329  0.49690  1.0000 -0.159783614
C   C71       1.0  0.49690  0.30791  0.06329  1.0000 -0.159783614
C   C72       1.0  0.06329  0.49690  0.30791  1.0000 -0.159783614
C   C73       1.0  0.06637  0.25163  0.51170  1.0000 -0.0912571566
C   C74       1.0  0.25163  0.51170  0.06637  1.0000 -0.0912571566
C   C75       1.0  0.51170  0.06637  0.25163  1.0000 -0.0912571566
C   C76       1.0  0.74837  0.93363  0.48830  1.0000 -0.0912571566
C   C77       1.0  0.48830  0.74837  0.93363  1.0000 -0.0912571566
C   C78       1.0  0.93363  0.48830  0.74837  1.0000 -0.0912571566
C   C79       1.0  0.93363  0.74837  0.48830  1.0000 -0.0912571566
C   C80       1.0  0.74837  0.48830  0.93363  1.0000 -0.0912571566
C   C81       1.0  0.48830  0.93363  0.74837  1.0000 -0.0912571566
C   C82       1.0  0.25163  0.06637  0.51170  1.0000 -0.0912571566
C   C83       1.0  0.51170  0.25163  0.06637  1.0000 -0.0912571566
C   C84       1.0  0.06637  0.51170  0.25163  1.0000 -0.0912571566
C   C85       1.0  0.98273  0.32994  0.39733  1.0000 -0.0225523675
C   C86       1.0  0.32994  0.39733  0.98273  1.0000 -0.0225523675
C   C87       1.0  0.39733  0.98273  0.32994  1.0000 -0.0225523675
C   C88       1.0  0.67006  0.01727  0.60267  1.0000 -0.0225523675
C   C89       1.0  0.60267  0.67006  0.01727  1.0000 -0.0225523675
C   C90       1.0  0.01727  0.60267  0.67006  1.0000 -0.0225523675
C   C91       1.0  0.01727  0.67006  0.60267  1.0000 -0.0225523675
C   C92       1.0  0.67006  0.60267  0.01727  1.0000 -0.0225523675
C   C93       1.0  0.60267  0.01727  0.67006  1.0000 -0.0225523675
C   C94       1.0  0.32994  0.98273  0.39733  1.0000 -0.0225523675
C   C95       1.0  0.39733  0.32994  0.98273  1.0000 -0.0225523675
C   C96       1.0  0.98273  0.39733  0.32994  1.0000 -0.0225523675
C   C97       1.0  0.99209  0.39752  0.46349  1.0000 -0.1958381205
C   C98       1.0  0.39752  0.46349  0.99209  1.0000 -0.1958381205
C   C99       1.0  0.46349  0.99209  0.39752  1.0000 -0.1958381205
C   C100      1.0  0.60248  0.00791  0.53651  1.0000 -0.1958381205
C   C101      1.0  0.53651  0.60248  0.00791  1.0000 -0.1958381205
C   C102      1.0  0.00791  0.53651  0.60248  1.0000 -0.1958381205
C   C103      1.0  0.00791  0.60248  0.53651  1.0000 -0.1958381205
C   C104      1.0  0.60248  0.53651  0.00791  1.0000 -0.1958381205
C   C105      1.0  0.53651  0.00791  0.60248  1.0000 -0.1958381205
C   C106      1.0  0.39752  0.99209  0.46349  1.0000 -0.1944196533
C   C107      1.0  0.46349  0.39752  0.99209  1.0000 -0.1958381205
C   C108      1.0  0.99209  0.46349  0.39752  1.0000 -0.1958381205
C   C109      1.0  0.99684  0.46548  0.46548  1.0000 0.0697316331
C   C110      1.0  0.46548  0.46548  0.99684  1.0000 0.0697316331
C   C111      1.0  0.46548  0.99684  0.46548  1.0000 0.0697316331
C   C112      1.0  0.53452  0.00316  0.53452  1.0000 0.0697316331
C   C113      1.0  0.53452  0.53452  0.00316  1.0000 0.0697316331
C   C114      1.0  0.00316  0.53452  0.53452  1.0000 0.0697316331
C   C115      1.0  0.97622  0.32909  0.32909  1.0000 0.1505533446
C   C116      1.0  0.32909  0.32909  0.97622  1.0000 0.1505533446
C   C117      1.0  0.32909  0.97622  0.32909  1.0000 0.1505533446
C   C118      1.0  0.67091  0.02378  0.67091  1.0000 0.1505533446
C   C119      1.0  0.67091  0.67091  0.02378  1.0000 0.1505533446
C   C120      1.0  0.02378  0.67091  0.67091  1.0000 0.1505533446
C   C121      1.0  0.06650  0.30930  0.30930  1.0000 0.0249067572
C   C122      1.0  0.30930  0.30930  0.06650  1.0000 0.0249067572
C   C123      1.0  0.30930  0.06650  0.30930  1.0000 0.0249067572
C   C124      1.0  0.69070  0.93350  0.69070  1.0000 0.0249067572
C   C125      1.0  0.69070  0.69070  0.93350  1.0000 0.0259172682
C   C126      1.0  0.93350  0.69070  0.69070  1.0000 0.0259172682
C   C127      1.0  0.06860  0.24330  0.24330  1.0000 -0.380092011
C   C128      1.0  0.24330  0.24330  0.06860  1.0000 -0.380092011
C   C129      1.0  0.24330  0.06860  0.24330  1.0000 -0.380092011
C   C130      1.0  0.75670  0.93140  0.75670  1.0000 -0.380092011
C   C131      1.0  0.75670  0.75670  0.93140  1.0000 -0.380092011
C   C132      1.0  0.93140  0.75670  0.75670  1.0000 -0.380092011
O   O1        1.0  0.06098  0.13782  0.54180  1.0000 -0.5363896748
O   O2        1.0  0.13782  0.54180  0.06098  1.0000 -0.5363896748
O   O3        1.0  0.54180  0.06098  0.13782  1.0000 -0.5363896748
O   O4        1.0  0.86218  0.93902  0.45820  1.0000 -0.5363896748
O   O5        1.0  0.45820  0.86218  0.93902  1.0000 -0.5363896748
O   O6        1.0  0.93902  0.45820  0.86218  1.0000 -0.5363896748
O   O7        1.0  0.93902  0.86218  0.45820  1.0000 -0.5363896748
O   O8        1.0  0.86218  0.45820  0.93902  1.0000 -0.5363896748
O   O9        1.0  0.45820  0.93902  0.86218  1.0000 -0.5363896748
O   O10       1.0  0.13782  0.06098  0.54180  1.0000 -0.5363896748
O   O11       1.0  0.54180  0.13782  0.06098  1.0000 -0.5363896748
O   O12       1.0  0.06098  0.54180  0.13782  1.0000 -0.5363896748
O   O13       1.0  0.92008  0.99731  0.38251  1.0000 -0.4857464037
O   O14       1.0  0.99731  0.38251  0.92008  1.0000 -0.4857464037
O   O15       1.0  0.38251  0.92008  0.99731  1.0000 -0.4857464037
O   O16       1.0  0.00269  0.07992  0.61749  1.0000 -0.4857464037
O   O17       1.0  0.61749  0.00269  0.07992  1.0000 -0.4844045054
O   O18       1.0  0.07992  0.61749  0.00269  1.0000 -0.4857464037
O   O19       1.0  0.07992  0.00269  0.61749  1.0000 -0.4857464037
O   O20       1.0  0.00269  0.61749  0.07992  1.0000 -0.4857464037
O   O21       1.0  0.61749  0.07992  0.00269  1.0000 -0.4857464037
O   O22       1.0  0.99731  0.92008  0.38251  1.0000 -0.4857464037
O   O23       1.0  0.38251  0.99731  0.92008  1.0000 -0.4857464037
O   O24       1.0  0.92008  0.38251  0.99731  1.0000 -0.4857464037
O   O25       1.0  0.96620  0.26225  0.26225  1.0000 -0.2121468396
O   O26       1.0  0.26225  0.26225  0.96620  1.0000 -0.2121468396
O   O27       1.0  0.26225  0.96620  0.26225  1.0000 -0.2121468396
O   O28       1.0  0.73775  0.03380  0.73775  1.0000 -0.2121468396
O   O29       1.0  0.73775  0.73775  0.03380  1.0000 -0.2121468396
O   O30       1.0  0.03380  0.73775  0.73775  1.0000 -0.2121468396
