# DDEC6 charges by PACMAN v1.1 (https://github.com/mtap-research/PACMAN-charge/)
data_2016[Co][pcu]3[ASR]6
_chemical_formula_sum              "Co2 H48 C60 N36"
_cell_length_a       21.0323
_cell_length_b       21.0323
_cell_length_c       21.0323
_cell_angle_alpha    38.4501
_cell_angle_beta     38.4501
_cell_angle_gamma    38.4501

_symmetry_space_group_name_H-M    "P 1"
_symmetry_Int_Tables_number       1

loop_
  _symmetry_equiv_pos_as_xyz
  'x, y, z'

loop_
  _atom_site_type_symbol
  _atom_site_label
  _atom_site_symmetry_multiplicity
  _atom_site_fract_x
  _atom_site_fract_y
  _atom_site_fract_z
  _atom_site_occupancy
  _atom_site_charge
Co  Co1       1.0  0.00000  0.00000  0.00000  1.0000 0.4403094088
Co  Co2       1.0  0.50000  0.50000  0.50000  1.0000 0.4403094088
H   H1        1.0  0.95790  0.26630  0.79470  1.0000 0.1122699501
H   H2        1.0  0.26630  0.79470  0.95790  1.0000 0.1122699501
H   H3        1.0  0.79470  0.95790  0.26630  1.0000 0.1122699501
H   H4        1.0  0.54210  0.70530  0.23370  1.0000 0.1122699501
H   H5        1.0  0.70530  0.23370  0.54210  1.0000 0.1122699501
H   H6        1.0  0.23370  0.54210  0.70530  1.0000 0.1122699501
H   H7        1.0  0.04210  0.73370  0.20530  1.0000 0.1122699501
H   H8        1.0  0.73370  0.20530  0.04210  1.0000 0.1122699501
H   H9        1.0  0.20530  0.04210  0.73370  1.0000 0.1122699501
H   H10       1.0  0.45790  0.29470  0.76630  1.0000 0.1122699501
H   H11       1.0  0.29470  0.76630  0.45790  1.0000 0.1122699501
H   H12       1.0  0.76630  0.45790  0.29470  1.0000 0.1122699501
H   H13       1.0  0.86080  0.43190  0.80960  1.0000 0.1179335822
H   H14       1.0  0.43190  0.80960  0.86080  1.0000 0.1179335822
H   H15       1.0  0.80960  0.86080  0.43190  1.0000 0.1179335822
H   H16       1.0  0.63920  0.69040  0.06810  1.0000 0.1179335822
H   H17       1.0  0.69040  0.06810  0.63920  1.0000 0.1179335822
H   H18       1.0  0.06810  0.63920  0.69040  1.0000 0.1179335822
H   H19       1.0  0.13920  0.56810  0.19040  1.0000 0.1179335822
H   H20       1.0  0.56810  0.19040  0.13920  1.0000 0.1179335822
H   H21       1.0  0.19040  0.13920  0.56810  1.0000 0.1179335822
H   H22       1.0  0.36080  0.30960  0.93190  1.0000 0.1179335822
H   H23       1.0  0.30960  0.93190  0.36080  1.0000 0.1179335822
H   H24       1.0  0.93190  0.36080  0.30960  1.0000 0.1179335822
H   H25       1.0  0.88580  0.15480  0.09530  1.0000 0.1179335822
H   H26       1.0  0.15480  0.09530  0.88580  1.0000 0.1179335822
H   H27       1.0  0.09530  0.88580  0.15480  1.0000 0.1179335822
H   H28       1.0  0.61420  0.40470  0.34520  1.0000 0.1179335822
H   H29       1.0  0.40470  0.34520  0.61420  1.0000 0.1179335822
H   H30       1.0  0.34520  0.61420  0.40470  1.0000 0.1179335822
H   H31       1.0  0.11420  0.84520  0.90470  1.0000 0.1179335822
H   H32       1.0  0.84520  0.90470  0.11420  1.0000 0.1179335822
H   H33       1.0  0.90470  0.11420  0.84520  1.0000 0.1179335822
H   H34       1.0  0.38580  0.59530  0.65480  1.0000 0.1179335822
H   H35       1.0  0.59530  0.65480  0.38580  1.0000 0.1179335822
H   H36       1.0  0.65480  0.38580  0.59530  1.0000 0.1179335822
H   H37       1.0  0.79740  0.52970  0.87750  1.0000 0.1122699501
H   H38       1.0  0.52970  0.87750  0.79740  1.0000 0.1122699501
H   H39       1.0  0.87750  0.79740  0.52970  1.0000 0.1122699501
H   H40       1.0  0.70260  0.62250  0.97030  1.0000 0.1122699501
H   H41       1.0  0.62250  0.97030  0.70260  1.0000 0.1122699501
H   H42       1.0  0.97030  0.70260  0.62250  1.0000 0.1122699501
H   H43       1.0  0.20260  0.47030  0.12250  1.0000 0.1122699501
H   H44       1.0  0.47030  0.12250  0.20260  1.0000 0.1122699501
H   H45       1.0  0.12250  0.20260  0.47030  1.0000 0.1122699501
H   H46       1.0  0.29740  0.37750  0.02970  1.0000 0.1122699501
H   H47       1.0  0.37750  0.02970  0.29740  1.0000 0.1122699501
H   H48       1.0  0.02970  0.29740  0.37750  1.0000 0.1122699501
C   C1        1.0  0.93095  0.26435  0.85795  1.0000 -0.0384826179
C   C2        1.0  0.26435  0.85795  0.93095  1.0000 -0.0384826179
C   C3        1.0  0.85795  0.93095  0.26435  1.0000 -0.0384826179
C   C4        1.0  0.56905  0.64205  0.23565  1.0000 -0.0384826179
C   C5        1.0  0.64205  0.23565  0.56905  1.0000 -0.0384826179
C   C6        1.0  0.23565  0.56905  0.64205  1.0000 -0.0384826179
C   C7        1.0  0.06905  0.73565  0.14205  1.0000 -0.0384826179
C   C8        1.0  0.73565  0.14205  0.06905  1.0000 -0.0384826179
C   C9        1.0  0.14205  0.06905  0.73565  1.0000 -0.0384826179
C   C10       1.0  0.43095  0.35795  0.76435  1.0000 -0.0384826179
C   C11       1.0  0.35795  0.76435  0.43095  1.0000 -0.0384826179
C   C12       1.0  0.76435  0.43095  0.35795  1.0000 -0.0384826179
C   C13       1.0  0.87792  0.35672  0.86472  1.0000 -0.1298193469
C   C14       1.0  0.35672  0.86472  0.87792  1.0000 -0.1298193469
C   C15       1.0  0.86472  0.87792  0.35672  1.0000 -0.1298193469
C   C16       1.0  0.62208  0.63528  0.14328  1.0000 -0.1298193469
C   C17       1.0  0.63528  0.14328  0.62208  1.0000 -0.1298193469
C   C18       1.0  0.14328  0.62208  0.63528  1.0000 -0.1298193469
C   C19       1.0  0.12208  0.64328  0.13528  1.0000 -0.1298193469
C   C20       1.0  0.64328  0.13528  0.12208  1.0000 -0.1298193469
C   C21       1.0  0.13528  0.12208  0.64328  1.0000 -0.1298193469
C   C22       1.0  0.37792  0.36472  0.85672  1.0000 -0.1298193469
C   C23       1.0  0.36472  0.85672  0.37792  1.0000 -0.1298193469
C   C24       1.0  0.85672  0.37792  0.36472  1.0000 -0.1298193469
C   C25       1.0  0.89248  0.20268  0.02178  1.0000 0.0802473423
C   C26       1.0  0.20268  0.02178  0.89248  1.0000 0.0802473423
C   C27       1.0  0.02178  0.89248  0.20268  1.0000 0.0802473423
C   C28       1.0  0.60752  0.47822  0.29732  1.0000 0.0802473423
C   C29       1.0  0.47822  0.29732  0.60752  1.0000 0.0802473423
C   C30       1.0  0.29732  0.60752  0.47822  1.0000 0.0802473423
C   C31       1.0  0.10752  0.79732  0.97822  1.0000 0.0802473423
C   C32       1.0  0.79732  0.97822  0.10752  1.0000 0.0802473423
C   C33       1.0  0.97822  0.10752  0.79732  1.0000 0.0802473423
C   C34       1.0  0.39248  0.52178  0.70268  1.0000 0.0802473423
C   C35       1.0  0.52178  0.70268  0.39248  1.0000 0.0802473423
C   C36       1.0  0.70268  0.39248  0.52178  1.0000 0.0802473423
C   C37       1.0  0.80026  0.38016  0.01716  1.0000 0.2348393033
C   C38       1.0  0.38016  0.01716  0.80026  1.0000 0.2348393033
C   C39       1.0  0.01716  0.80026  0.38016  1.0000 0.2355634455
C   C40       1.0  0.69974  0.48284  0.11984  1.0000 0.2348393033
C   C41       1.0  0.48284  0.11984  0.69974  1.0000 0.2348393033
C   C42       1.0  0.11984  0.69974  0.48284  1.0000 0.2348393033
C   C43       1.0  0.19974  0.61984  0.98284  1.0000 0.2348393033
C   C44       1.0  0.61984  0.98284  0.19974  1.0000 0.2348393033
C   C45       1.0  0.98284  0.19974  0.61984  1.0000 0.2348393033
C   C46       1.0  0.30026  0.51716  0.88016  1.0000 0.2348393033
C   C47       1.0  0.51716  0.88016  0.30026  1.0000 0.2348393033
C   C48       1.0  0.88016  0.30026  0.51716  1.0000 0.2348393033
C   C49       1.0  0.77702  0.49182  0.95442  1.0000 -0.1699757356
C   C50       1.0  0.49182  0.95442  0.77702  1.0000 -0.1699757356
C   C51       1.0  0.95442  0.77702  0.49182  1.0000 -0.1699757356
C   C52       1.0  0.72298  0.54558  0.00818  1.0000 -0.1699757356
C   C53       1.0  0.54558  0.00818  0.72298  1.0000 -0.1699757356
C   C54       1.0  0.00818  0.72298  0.54558  1.0000 -0.1699757356
C   C55       1.0  0.22298  0.50818  0.04558  1.0000 -0.1699757356
C   C56       1.0  0.50818  0.04558  0.22298  1.0000 -0.1699757356
C   C57       1.0  0.04558  0.22298  0.50818  1.0000 -0.1699757356
C   C58       1.0  0.27702  0.45442  0.99182  1.0000 -0.1699757356
C   C59       1.0  0.45442  0.99182  0.27702  1.0000 -0.1699757356
C   C60       1.0  0.99182  0.27702  0.45442  1.0000 -0.1699757356
N   N1        1.0  0.93945  0.16855  0.95575  1.0000 -0.2744697398
N   N2        1.0  0.16855  0.95575  0.93945  1.0000 -0.2744697398
N   N3        1.0  0.95575  0.93945  0.16855  1.0000 -0.2744697398
N   N4        1.0  0.56055  0.54425  0.33145  1.0000 -0.2744697398
N   N5        1.0  0.54425  0.33145  0.56055  1.0000 -0.2744697398
N   N6        1.0  0.33145  0.56055  0.54425  1.0000 -0.2744697398
N   N7        1.0  0.06055  0.83145  0.04425  1.0000 -0.2744697398
N   N8        1.0  0.83145  0.04425  0.06055  1.0000 -0.2744697398
N   N9        1.0  0.04425  0.06055  0.83145  1.0000 -0.2744697398
N   N10       1.0  0.43945  0.45575  0.66855  1.0000 -0.2744697398
N   N11       1.0  0.45575  0.66855  0.43945  1.0000 -0.2744697398
N   N12       1.0  0.66855  0.43945  0.45575  1.0000 -0.2744697398
N   N13       1.0  0.85478  0.31598  0.97018  1.0000 -0.0100365966
N   N14       1.0  0.31598  0.97018  0.85478  1.0000 -0.0100365966
N   N15       1.0  0.97018  0.85478  0.31598  1.0000 -0.0100365966
N   N16       1.0  0.64522  0.52982  0.18402  1.0000 -0.0100365966
N   N17       1.0  0.52982  0.18402  0.64522  1.0000 -0.0100365966
N   N18       1.0  0.18402  0.64522  0.52982  1.0000 -0.0100365966
N   N19       1.0  0.14522  0.68402  0.02982  1.0000 -0.0100365966
N   N20       1.0  0.68402  0.02982  0.14522  1.0000 -0.0100365966
N   N21       1.0  0.02982  0.14522  0.68402  1.0000 -0.0100365966
N   N22       1.0  0.35478  0.47018  0.81598  1.0000 -0.0100365966
N   N23       1.0  0.47018  0.81598  0.35478  1.0000 -0.0100365966
N   N24       1.0  0.81598  0.35478  0.47018  1.0000 -0.0100365966
N   N25       1.0  0.77529  0.32329  0.12339  1.0000 -0.22615492
N   N26       1.0  0.32329  0.12339  0.77529  1.0000 -0.22615492
N   N27       1.0  0.12339  0.77529  0.32329  1.0000 -0.22615492
N   N28       1.0  0.72471  0.37661  0.17671  1.0000 -0.22615492
N   N29       1.0  0.37661  0.17671  0.72471  1.0000 -0.22615492
N   N30       1.0  0.17671  0.72471  0.37661  1.0000 -0.22615492
N   N31       1.0  0.22471  0.67671  0.87661  1.0000 -0.22615492
N   N32       1.0  0.67671  0.87661  0.22471  1.0000 -0.22615492
N   N33       1.0  0.87661  0.22471  0.67671  1.0000 -0.22615492
N   N34       1.0  0.27529  0.62339  0.82329  1.0000 -0.22615492
N   N35       1.0  0.62339  0.82329  0.27529  1.0000 -0.22615492
N   N36       1.0  0.82329  0.27529  0.62339  1.0000 -0.22615492
