# DDEC6 charges by PACMAN v1.1 (https://github.com/mtap-research/PACMAN-charge/)
data_2016[Zn][dia]3[ASR]3
_chemical_formula_sum              "Zn4 H80 C76 N16 O16"
_cell_length_a       10.7326
_cell_length_b       23.2562
_cell_length_c       9.76351
_cell_angle_alpha    90
_cell_angle_beta     105.393
_cell_angle_gamma    90

_symmetry_space_group_name_H-M    "P 1"
_symmetry_Int_Tables_number       1

loop_
  _symmetry_equiv_pos_as_xyz
  'x, y, z'

loop_
  _atom_site_type_symbol
  _atom_site_label
  _atom_site_symmetry_multiplicity
  _atom_site_fract_x
  _atom_site_fract_y
  _atom_site_fract_z
  _atom_site_occupancy
  _atom_site_charge
Zn  Zn1       1.0  0.33016  0.10028  0.96916  1.0000 0.7762104263
Zn  Zn2       1.0  0.66984  0.89972  0.03084  1.0000 0.7762104263
Zn  Zn3       1.0  0.66984  0.60028  0.53084  1.0000 0.7762104263
Zn  Zn4       1.0  0.33016  0.39972  0.46916  1.0000 0.7762104263
H   H1        1.0  0.35894  0.08407  0.51712  1.0000 0.0999258359
H   H2        1.0  0.64106  0.91593  0.48288  1.0000 0.0999258359
H   H3        1.0  0.64106  0.58407  0.98288  1.0000 0.0999258359
H   H4        1.0  0.35894  0.41593  0.01712  1.0000 0.0999258359
H   H5        1.0  0.52681  0.96954  0.26416  1.0000 0.0931712267
H   H6        1.0  0.47319  0.03046  0.73584  1.0000 0.0931712267
H   H7        1.0  0.47319  0.46954  0.23584  1.0000 0.0931712267
H   H8        1.0  0.52681  0.53046  0.76416  1.0000 0.0931712267
H   H9        1.0  0.15140  0.06880  0.42789  1.0000 0.1093238191
H   H10       1.0  0.84860  0.93120  0.57211  1.0000 0.1093238191
H   H11       1.0  0.84860  0.56880  0.07211  1.0000 0.1093238191
H   H12       1.0  0.15140  0.43120  0.92789  1.0000 0.1093238191
H   H13       1.0  0.00387  0.98910  0.75599  1.0000 0.0999258359
H   H14       1.0  0.99613  0.01090  0.24401  1.0000 0.0999258359
H   H15       1.0  0.99613  0.48910  0.74401  1.0000 0.0999258359
H   H16       1.0  0.00387  0.51090  0.25599  1.0000 0.0999258359
H   H17       1.0  0.61472  0.04422  0.05539  1.0000 0.1222547096
H   H18       1.0  0.38528  0.95578  0.94461  1.0000 0.1222547096
H   H19       1.0  0.38528  0.54422  0.44461  1.0000 0.1222547096
H   H20       1.0  0.61472  0.45578  0.55539  1.0000 0.1222547096
H   H21       1.0  0.46429  0.18024  0.76965  1.0000 0.1093238191
H   H22       1.0  0.53571  0.81976  0.23035  1.0000 0.1093238191
H   H23       1.0  0.53571  0.68024  0.73035  1.0000 0.1093238191
H   H24       1.0  0.46429  0.31976  0.26965  1.0000 0.1093238191
H   H25       1.0  0.71795  0.16001  0.76518  1.0000 0.1222547096
H   H26       1.0  0.28205  0.83999  0.23482  1.0000 0.1222547096
H   H27       1.0  0.28205  0.66001  0.73482  1.0000 0.1222547096
H   H28       1.0  0.71795  0.33999  0.26518  1.0000 0.1222547096
H   H29       1.0  0.84728  0.04910  0.85323  1.0000 0.0999258359
H   H30       1.0  0.15272  0.95090  0.14677  1.0000 0.0999258359
H   H31       1.0  0.15272  0.54910  0.64677  1.0000 0.0999258359
H   H32       1.0  0.84728  0.45090  0.35323  1.0000 0.0999258359
H   H33       1.0  0.83497  0.03297  0.02884  1.0000 0.0999258359
H   H34       1.0  0.16503  0.96703  0.97116  1.0000 0.0999258359
H   H35       1.0  0.16503  0.53297  0.47116  1.0000 0.0999258359
H   H36       1.0  0.83497  0.46703  0.52884  1.0000 0.0999258359
H   H37       1.0  0.93763  0.14597  0.93092  1.0000 0.0646557649
H   H38       1.0  0.06237  0.85403  0.06908  1.0000 0.0646557649
H   H39       1.0  0.06237  0.64597  0.56908  1.0000 0.0646557649
H   H40       1.0  0.93763  0.35403  0.43092  1.0000 0.0646557649
H   H41       1.0  0.03380  0.09083  0.03189  1.0000 0.1093238191
H   H42       1.0  0.96620  0.90917  0.96811  1.0000 0.1093238191
H   H43       1.0  0.96620  0.59083  0.46811  1.0000 0.1093238191
H   H44       1.0  0.03380  0.40917  0.53189  1.0000 0.1093238191
H   H45       1.0  0.91990  0.10771  0.22694  1.0000 0.0810273969
H   H46       1.0  0.08010  0.89229  0.77306  1.0000 0.0810273969
H   H47       1.0  0.08010  0.60771  0.27306  1.0000 0.0810273969
H   H48       1.0  0.91990  0.39229  0.72694  1.0000 0.0810273969
H   H49       1.0  0.83378  0.16563  0.12752  1.0000 0.0646557649
H   H50       1.0  0.16622  0.83437  0.87248  1.0000 0.0646557649
H   H51       1.0  0.16622  0.66563  0.37248  1.0000 0.0646557649
H   H52       1.0  0.83378  0.33437  0.62752  1.0000 0.0646557649
H   H53       1.0  0.13126  0.15730  0.22624  1.0000 0.1222547096
H   H54       1.0  0.86874  0.84270  0.77376  1.0000 0.1222547096
H   H55       1.0  0.86874  0.65730  0.27376  1.0000 0.1222547096
H   H56       1.0  0.13126  0.34270  0.72624  1.0000 0.1222547096
H   H57       1.0  0.04113  0.21688  0.13751  1.0000 0.0693120974
H   H58       1.0  0.95887  0.78312  0.86249  1.0000 0.0693120974
H   H59       1.0  0.95887  0.71688  0.36249  1.0000 0.0693120974
H   H60       1.0  0.04113  0.28312  0.63751  1.0000 0.0693120974
H   H61       1.0  0.93979  0.22992  0.34048  1.0000 0.0693120974
H   H62       1.0  0.06021  0.77008  0.65952  1.0000 0.0693120974
H   H63       1.0  0.06021  0.72992  0.15952  1.0000 0.0693120974
H   H64       1.0  0.93979  0.27008  0.84048  1.0000 0.0693120974
H   H65       1.0  0.02893  0.16939  0.42864  1.0000 0.0999258359
H   H66       1.0  0.97107  0.83061  0.57136  1.0000 0.0999258359
H   H67       1.0  0.97107  0.66939  0.07136  1.0000 0.0999258359
H   H68       1.0  0.02893  0.33061  0.92864  1.0000 0.0999258359
H   H69       1.0  0.25196  0.18514  0.58439  1.0000 0.1432364126
H   H70       1.0  0.74804  0.81486  0.41561  1.0000 0.1432364126
H   H71       1.0  0.74804  0.68514  0.91561  1.0000 0.1432364126
H   H72       1.0  0.25196  0.31486  0.08439  1.0000 0.1432364126
H   H73       1.0  0.40700  0.28332  0.65121  1.0000 0.1222547096
H   H74       1.0  0.59300  0.71668  0.34879  1.0000 0.1222547096
H   H75       1.0  0.59300  0.78332  0.84879  1.0000 0.1222547096
H   H76       1.0  0.40700  0.21668  0.15121  1.0000 0.1222547096
H   H77       1.0  0.09008  0.32041  0.29803  1.0000 0.1093238191
H   H78       1.0  0.90992  0.67959  0.70197  1.0000 0.1093238191
H   H79       1.0  0.90992  0.82041  0.20197  1.0000 0.1093238191
H   H80       1.0  0.09008  0.17959  0.79803  1.0000 0.1093238191
C   C1        1.0  0.36046  0.05930  0.24454  1.0000 0.5617953752
C   C2        1.0  0.63954  0.94070  0.75546  1.0000 0.5617953752
C   C3        1.0  0.63954  0.55930  0.25546  1.0000 0.5617953752
C   C4        1.0  0.36046  0.44070  0.74454  1.0000 0.5617953752
C   C5        1.0  0.43454  0.02937  0.37699  1.0000 -0.0396938046
C   C6        1.0  0.56546  0.97063  0.62301  1.0000 -0.0396938046
C   C7        1.0  0.56546  0.52937  0.12301  1.0000 -0.0396938046
C   C8        1.0  0.43454  0.47063  0.87699  1.0000 -0.0396938046
C   C9        1.0  0.42067  0.04719  0.50958  1.0000 -0.0938676432
C   C10       1.0  0.57933  0.95281  0.49042  1.0000 -0.0938676432
C   C11       1.0  0.57933  0.54719  0.99042  1.0000 -0.0938676432
C   C12       1.0  0.42067  0.45281  0.00958  1.0000 -0.0938676432
C   C13       1.0  0.51499  0.98252  0.36799  1.0000 -0.0938676432
C   C14       1.0  0.48501  0.01748  0.63201  1.0000 -0.0938676432
C   C15       1.0  0.48501  0.48252  0.13201  1.0000 -0.0938676432
C   C16       1.0  0.51499  0.51748  0.86799  1.0000 -0.0938676432
C   C17       1.0  0.17936  0.06711  0.71335  1.0000 0.5617953752
C   C18       1.0  0.82064  0.93289  0.28665  1.0000 0.5617953752
C   C19       1.0  0.82064  0.56711  0.78665  1.0000 0.5617953752
C   C20       1.0  0.17936  0.43289  0.21335  1.0000 0.5617953752
C   C21       1.0  0.08638  0.03245  0.60326  1.0000 -0.0396938046
C   C22       1.0  0.91362  0.96755  0.39674  1.0000 -0.0396938046
C   C23       1.0  0.91362  0.53245  0.89674  1.0000 -0.0396938046
C   C24       1.0  0.08638  0.46755  0.10326  1.0000 -0.0396938046
C   C25       1.0  0.08412  0.03912  0.45947  1.0000 -0.0938676432
C   C26       1.0  0.91588  0.96088  0.54053  1.0000 -0.0938676432
C   C27       1.0  0.91588  0.53912  0.04053  1.0000 -0.0938676432
C   C28       1.0  0.08412  0.46088  0.95947  1.0000 -0.0938676432
C   C29       1.0  0.00221  0.99348  0.64336  1.0000 -0.0988600861
C   C30       1.0  0.99779  0.00652  0.35664  1.0000 -0.0988600861
C   C31       1.0  0.99779  0.49348  0.85664  1.0000 -0.0988600861
C   C32       1.0  0.00221  0.50652  0.14336  1.0000 -0.0988600861
C   C33       1.0  0.60740  0.07857  0.97825  1.0000 0.1093238191
C   C34       1.0  0.39260  0.92143  0.02175  1.0000 0.1093238191
C   C35       1.0  0.39260  0.57857  0.52175  1.0000 0.1093238191
C   C36       1.0  0.60740  0.42143  0.47825  1.0000 0.1093238191
C   C37       1.0  0.53430  0.14940  0.83009  1.0000 -0.0293619196
C   C38       1.0  0.46570  0.85060  0.16991  1.0000 -0.0293619196
C   C39       1.0  0.46570  0.64940  0.66991  1.0000 -0.0293619196
C   C40       1.0  0.53430  0.35060  0.33009  1.0000 -0.0293619196
C   C41       1.0  0.65944  0.13941  0.82682  1.0000 -0.1198636527
C   C42       1.0  0.34056  0.86059  0.17318  1.0000 -0.1198636527
C   C43       1.0  0.34056  0.63941  0.67318  1.0000 -0.1198636527
C   C44       1.0  0.65944  0.36059  0.32682  1.0000 -0.1198636527
C   C45       1.0  0.83378  0.06821  0.95211  1.0000 -0.0598711642
C   C46       1.0  0.16622  0.93179  0.04789  1.0000 -0.0598711642
C   C47       1.0  0.16622  0.56821  0.54789  1.0000 -0.0598711642
C   C48       1.0  0.83378  0.43179  0.45211  1.0000 -0.0598711642
C   C49       1.0  0.93874  0.11250  0.01224  1.0000 -0.1678025062
C   C50       1.0  0.06126  0.88750  0.98776  1.0000 -0.1678025062
C   C51       1.0  0.06126  0.61250  0.48776  1.0000 -0.1678025062
C   C52       1.0  0.93874  0.38750  0.51224  1.0000 -0.1678025062
C   C53       1.0  0.92579  0.14122  0.14824  1.0000 -0.1285438175
C   C54       1.0  0.07421  0.85878  0.85176  1.0000 -0.1285438175
C   C55       1.0  0.07421  0.64122  0.35176  1.0000 -0.1285438175
C   C56       1.0  0.92579  0.35878  0.64824  1.0000 -0.1285438175
C   C57       1.0  0.03935  0.18096  0.21146  1.0000 -0.1819184656
C   C58       1.0  0.96065  0.81904  0.78854  1.0000 -0.1819184656
C   C59       1.0  0.96065  0.68096  0.28854  1.0000 -0.1819184656
C   C60       1.0  0.03935  0.31904  0.71146  1.0000 -0.1819184656
C   C61       1.0  0.03010  0.20485  0.35347  1.0000 -0.0396938046
C   C62       1.0  0.96990  0.79515  0.64653  1.0000 -0.0396938046
C   C63       1.0  0.96990  0.70485  0.14653  1.0000 -0.0396938046
C   C64       1.0  0.03010  0.29515  0.85347  1.0000 -0.0396938046
C   C65       1.0  0.24337  0.22785  0.53556  1.0000 -0.1092073406
C   C66       1.0  0.75663  0.77215  0.46444  1.0000 -0.1092073406
C   C67       1.0  0.75663  0.72785  0.96444  1.0000 -0.1092073406
C   C68       1.0  0.24337  0.27215  0.03556  1.0000 -0.1092073406
C   C69       1.0  0.31855  0.27643  0.56663  1.0000 -0.0293619196
C   C70       1.0  0.68145  0.72357  0.43337  1.0000 -0.0293619196
C   C71       1.0  0.68145  0.77643  0.93337  1.0000 -0.0293619196
C   C72       1.0  0.31855  0.22357  0.06663  1.0000 -0.0293619196
C   C73       1.0  0.15506  0.29794  0.38593  1.0000 0.0810273969
C   C74       1.0  0.84494  0.70206  0.61407  1.0000 0.0810273969
C   C75       1.0  0.84494  0.79794  0.11407  1.0000 0.0810273969
C   C76       1.0  0.15506  0.20206  0.88593  1.0000 0.0810273969
N   N1        1.0  0.50212  0.11117  0.92478  1.0000 -0.2932022597
N   N2        1.0  0.49788  0.88883  0.07522  1.0000 -0.2932022597
N   N3        1.0  0.49788  0.61117  0.57522  1.0000 -0.2932022597
N   N4        1.0  0.50212  0.38883  0.42478  1.0000 -0.2932022597
N   N5        1.0  0.70449  0.09411  0.92011  1.0000 0.0376880121
N   N6        1.0  0.29551  0.90589  0.07989  1.0000 0.0376880121
N   N7        1.0  0.29551  0.59411  0.57989  1.0000 0.0376880121
N   N8        1.0  0.70449  0.40589  0.42011  1.0000 0.0376880121
N   N9        1.0  0.13921  0.24225  0.42184  1.0000 0.0376880121
N   N10       1.0  0.86079  0.75775  0.57816  1.0000 0.0376880121
N   N11       1.0  0.86079  0.74225  0.07816  1.0000 0.0376880121
N   N12       1.0  0.13921  0.25775  0.92184  1.0000 0.0376880121
N   N13       1.0  0.26291  0.32013  0.47280  1.0000 -0.2932022597
N   N14       1.0  0.73709  0.67987  0.52720  1.0000 -0.2932022597
N   N15       1.0  0.73709  0.82013  0.02720  1.0000 -0.2932022597
N   N16       1.0  0.26291  0.17987  0.97280  1.0000 -0.2932022597
O   O1        1.0  0.40693  0.05168  0.13477  1.0000 -0.5662406842
O   O2        1.0  0.59307  0.94832  0.86523  1.0000 -0.5662406842
O   O3        1.0  0.59307  0.55168  0.36523  1.0000 -0.5662406842
O   O4        1.0  0.40693  0.44832  0.63477  1.0000 -0.5662406842
O   O5        1.0  0.26121  0.08845  0.24218  1.0000 -0.5662406842
O   O6        1.0  0.73879  0.91155  0.75782  1.0000 -0.5662406842
O   O7        1.0  0.73879  0.58845  0.25782  1.0000 -0.5662406842
O   O8        1.0  0.26121  0.41155  0.74218  1.0000 -0.5662406842
O   O9        1.0  0.20006  0.04916  0.84445  1.0000 -0.5662406842
O   O10       1.0  0.79994  0.95084  0.15555  1.0000 -0.5662406842
O   O11       1.0  0.79994  0.54916  0.65555  1.0000 -0.5662406842
O   O12       1.0  0.20006  0.45084  0.34445  1.0000 -0.5662406842
O   O13       1.0  0.23311  0.11100  0.67914  1.0000 -0.5662406842
O   O14       1.0  0.76689  0.88900  0.32086  1.0000 -0.5662406842
O   O15       1.0  0.76689  0.61100  0.82086  1.0000 -0.5662406842
O   O16       1.0  0.23311  0.38900  0.17914  1.0000 -0.5662406842
