# DDEC6 charges by PACMAN v1.1 (https://github.com/mtap-research/PACMAN-charge/)
data_2016[Co][nan]3[ASR]29
_chemical_formula_sum              "Co4 B4 H64 C60 N32 O8"
_cell_length_a       14.743
_cell_length_b       14.743
_cell_length_c       17.1807
_cell_angle_alpha    58.5298
_cell_angle_beta     121.47
_cell_angle_gamma    124.993

_symmetry_space_group_name_H-M    "P 1"
_symmetry_Int_Tables_number       1

loop_
  _symmetry_equiv_pos_as_xyz
  'x, y, z'

loop_
  _atom_site_type_symbol
  _atom_site_label
  _atom_site_symmetry_multiplicity
  _atom_site_fract_x
  _atom_site_fract_y
  _atom_site_fract_z
  _atom_site_occupancy
  _atom_site_charge
Co  Co1       1.0  0.65373  0.89957  0.81157  1.0000 0.6804199065
Co  Co2       1.0  0.89957  0.65373  0.68843  1.0000 0.6804199065
Co  Co3       1.0  0.34627  0.10043  0.18843  1.0000 0.6804199065
Co  Co4       1.0  0.10043  0.34627  0.31157  1.0000 0.6804199065
B   B1        1.0  0.01850  0.74690  0.01630  1.0000 0.5028113717
B   B2        1.0  0.74690  0.01850  0.48370  1.0000 0.5028113717
B   B3        1.0  0.98150  0.25310  0.98370  1.0000 0.5028113717
B   B4        1.0  0.25310  0.98150  0.51630  1.0000 0.5028113717
H   H1        1.0  0.39020  0.52660  0.84370  1.0000 0.1217148537
H   H2        1.0  0.52660  0.39020  0.65630  1.0000 0.1217148537
H   H3        1.0  0.60980  0.47340  0.15630  1.0000 0.1217148537
H   H4        1.0  0.47340  0.60980  0.34370  1.0000 0.1217148537
H   H5        1.0  0.33220  0.57200  0.86530  1.0000 0.1074935788
H   H6        1.0  0.57200  0.33220  0.63470  1.0000 0.1074935788
H   H7        1.0  0.66780  0.42800  0.13470  1.0000 0.1074935788
H   H8        1.0  0.42800  0.66780  0.36530  1.0000 0.1074935788
H   H9        1.0  0.38400  0.43280  0.00350  1.0000 0.0848714257
H   H10       1.0  0.43280  0.38400  0.49650  1.0000 0.0848714257
H   H11       1.0  0.61600  0.56720  0.99650  1.0000 0.0848714257
H   H12       1.0  0.56720  0.61600  0.50350  1.0000 0.0848714257
H   H13       1.0  0.46850  0.55610  0.02260  1.0000 0.0929885613
H   H14       1.0  0.55610  0.46850  0.47740  1.0000 0.0929885613
H   H15       1.0  0.53150  0.44390  0.97740  1.0000 0.0929885613
H   H16       1.0  0.44390  0.53150  0.52260  1.0000 0.0929885613
H   H17       1.0  0.81890  0.52370  0.02130  1.0000 0.1289581949
H   H18       1.0  0.52370  0.81890  0.47870  1.0000 0.1289581949
H   H19       1.0  0.18110  0.47630  0.97870  1.0000 0.1289581949
H   H20       1.0  0.47630  0.18110  0.52130  1.0000 0.1289581949
H   H21       1.0  0.85620  0.83420  0.85460  1.0000 0.101043348
H   H22       1.0  0.83420  0.85620  0.64540  1.0000 0.101043348
H   H23       1.0  0.14380  0.16580  0.14540  1.0000 0.101043348
H   H24       1.0  0.16580  0.14380  0.35460  1.0000 0.101043348
H   H25       1.0  0.91350  0.71950  0.13550  1.0000 0.1217148537
H   H26       1.0  0.71950  0.91350  0.36450  1.0000 0.1217148537
H   H27       1.0  0.08650  0.28050  0.86450  1.0000 0.1217148537
H   H28       1.0  0.28050  0.08650  0.63550  1.0000 0.1217148537
H   H29       1.0  0.15250  0.62310  0.18450  1.0000 0.101043348
H   H30       1.0  0.62310  0.15250  0.31550  1.0000 0.101043348
H   H31       1.0  0.84750  0.37690  0.81550  1.0000 0.101043348
H   H32       1.0  0.37690  0.84750  0.68450  1.0000 0.101043348
H   H33       1.0  0.09940  0.92460  0.08790  1.0000 0.101043348
H   H34       1.0  0.92460  0.09940  0.41210  1.0000 0.101043348
H   H35       1.0  0.90060  0.07540  0.91210  1.0000 0.101043348
H   H36       1.0  0.07540  0.90060  0.58790  1.0000 0.101043348
H   H37       1.0  0.75830  0.78690  0.05170  1.0000 0.1289581949
H   H38       1.0  0.78690  0.75830  0.44830  1.0000 0.1289581949
H   H39       1.0  0.24170  0.21310  0.94830  1.0000 0.1289581949
H   H40       1.0  0.21310  0.24170  0.55170  1.0000 0.1289581949
H   H41       1.0  0.85240  0.35320  0.15000  1.0000 0.1217148537
H   H42       1.0  0.35320  0.85240  0.35000  1.0000 0.1217148537
H   H43       1.0  0.14760  0.64680  0.85000  1.0000 0.1217148537
H   H44       1.0  0.64680  0.14760  0.65000  1.0000 0.1217148537
H   H45       1.0  0.91550  0.61430  0.89190  1.0000 0.1074935788
H   H46       1.0  0.61430  0.91550  0.60810  1.0000 0.1074935788
H   H47       1.0  0.08450  0.38570  0.10810  1.0000 0.1074935788
H   H48       1.0  0.38570  0.08450  0.39190  1.0000 0.1074935788
H   H49       1.0  0.26160  0.79640  0.07040  1.0000 0.1217148537
H   H50       1.0  0.79640  0.26160  0.42960  1.0000 0.1217148537
H   H51       1.0  0.73840  0.20360  0.92960  1.0000 0.1217148537
H   H52       1.0  0.20360  0.73840  0.57040  1.0000 0.1217148537
H   H53       1.0  0.07310  0.92050  0.72410  1.0000 0.1074935788
H   H54       1.0  0.92050  0.07310  0.77590  1.0000 0.1074935788
H   H55       1.0  0.92690  0.07950  0.27590  1.0000 0.1074935788
H   H56       1.0  0.07950  0.92690  0.22410  1.0000 0.1074935788
H   H57       1.0  0.12430  0.94670  0.87410  1.0000 0.1217148537
H   H58       1.0  0.94670  0.12430  0.62590  1.0000 0.1217148537
H   H59       1.0  0.87570  0.05330  0.12590  1.0000 0.1217148537
H   H60       1.0  0.05330  0.87570  0.37410  1.0000 0.1217148537
H   H61       1.0  0.40900  0.95420  0.14330  1.0000 0.1289581949
H   H62       1.0  0.95420  0.40900  0.35670  1.0000 0.1289581949
H   H63       1.0  0.59100  0.04580  0.85670  1.0000 0.1289581949
H   H64       1.0  0.04580  0.59100  0.64330  1.0000 0.1289581949
C   C1        1.0  0.40640  0.57080  0.88060  1.0000 -0.322847337
C   C2        1.0  0.57080  0.40640  0.61940  1.0000 -0.322847337
C   C3        1.0  0.59360  0.42920  0.11940  1.0000 -0.322847337
C   C4        1.0  0.42920  0.59360  0.38060  1.0000 -0.322847337
C   C5        1.0  0.44830  0.50950  0.98580  1.0000 -0.1497243946
C   C6        1.0  0.50950  0.44830  0.51420  1.0000 -0.1497243946
C   C7        1.0  0.55170  0.49050  0.01420  1.0000 -0.1497243946
C   C8        1.0  0.49050  0.55170  0.48580  1.0000 -0.1497243946
C   C9        1.0  0.89120  0.52380  0.06960  1.0000 -0.0931619945
C   C10       1.0  0.52380  0.89120  0.43040  1.0000 -0.0931619945
C   C11       1.0  0.10880  0.47620  0.93040  1.0000 -0.0931619945
C   C12       1.0  0.47620  0.10880  0.56960  1.0000 -0.0931619945
C   C13       1.0  0.85210  0.81510  0.91510  1.0000 0.1289581949
C   C14       1.0  0.81510  0.85210  0.58490  1.0000 0.1289581949
C   C15       1.0  0.14790  0.18490  0.08490  1.0000 0.1289581949
C   C16       1.0  0.18490  0.14790  0.41510  1.0000 0.1289581949
C   C17       1.0  0.88370  0.75230  0.06780  1.0000 -0.0931619945
C   C18       1.0  0.75230  0.88370  0.43220  1.0000 -0.0931619945
C   C19       1.0  0.11630  0.24770  0.93220  1.0000 -0.0931619945
C   C20       1.0  0.24770  0.11630  0.56780  1.0000 -0.0931619945
C   C21       1.0  0.07250  0.57630  0.15900  1.0000 0.1515823597
C   C22       1.0  0.57630  0.07250  0.34100  1.0000 0.1515823597
C   C23       1.0  0.92750  0.42370  0.84100  1.0000 0.1515823597
C   C24       1.0  0.42370  0.92750  0.65900  1.0000 0.1515823597
C   C25       1.0  0.15890  0.91190  0.09300  1.0000 0.1289581949
C   C26       1.0  0.91190  0.15890  0.40700  1.0000 0.1289581949
C   C27       1.0  0.84110  0.08810  0.90700  1.0000 0.1289581949
C   C28       1.0  0.08810  0.84110  0.59300  1.0000 0.1289581949
C   C29       1.0  0.79840  0.78900  0.02150  1.0000 -0.0402354678
C   C30       1.0  0.78900  0.79840  0.47850  1.0000 -0.0402354678
C   C31       1.0  0.20160  0.21100  0.97850  1.0000 -0.0402354678
C   C32       1.0  0.21100  0.20160  0.52150  1.0000 -0.0402354678
C   C33       1.0  0.91030  0.43130  0.14010  1.0000 -0.0489117574
C   C34       1.0  0.43130  0.91030  0.35990  1.0000 -0.0489117574
C   C35       1.0  0.08970  0.56870  0.85990  1.0000 -0.0489117574
C   C36       1.0  0.56870  0.08970  0.64010  1.0000 -0.0489117574
C   C37       1.0  0.96170  0.69510  0.86820  1.0000 0.1391466255
C   C38       1.0  0.69510  0.96170  0.63180  1.0000 0.1391466255
C   C39       1.0  0.03830  0.30490  0.13180  1.0000 0.1391466255
C   C40       1.0  0.30490  0.03830  0.36820  1.0000 0.1391466255
C   C41       1.0  0.24640  0.84120  0.08310  1.0000 -0.0931619945
C   C42       1.0  0.84120  0.24640  0.41690  1.0000 -0.0931619945
C   C43       1.0  0.75360  0.15880  0.91690  1.0000 -0.0931619945
C   C44       1.0  0.15880  0.75360  0.58310  1.0000 -0.0931619945
C   C45       1.0  0.04710  0.86050  0.77760  1.0000 -0.0638190625
C   C46       1.0  0.86050  0.04710  0.72240  1.0000 -0.0638190625
C   C47       1.0  0.95290  0.13950  0.22240  1.0000 -0.0638190625
C   C48       1.0  0.13950  0.95290  0.27760  1.0000 -0.0638190625
C   C49       1.0  0.07500  0.87540  0.85960  1.0000 -0.0810456132
C   C50       1.0  0.87540  0.07500  0.64040  1.0000 -0.0810456132
C   C51       1.0  0.92500  0.12460  0.14040  1.0000 -0.0810456132
C   C52       1.0  0.12460  0.92500  0.35960  1.0000 -0.0810456132
C   C53       1.0  0.32680  0.92800  0.12280  1.0000 -0.0315117804
C   C54       1.0  0.92800  0.32680  0.37720  1.0000 -0.0315117804
C   C55       1.0  0.67320  0.07200  0.87720  1.0000 -0.0315117804
C   C56       1.0  0.07200  0.67320  0.62280  1.0000 -0.0315117804
C   C57       1.0  0.49500  0.69640  0.84910  1.0000 0.5887639964
C   C58       1.0  0.69640  0.49500  0.65090  1.0000 0.5887639964
C   C59       1.0  0.50500  0.30360  0.15090  1.0000 0.5887639964
C   C60       1.0  0.30360  0.50500  0.34910  1.0000 0.5887639964
N   N1        1.0  0.02520  0.46420  0.19650  1.0000 -0.2791122576
N   N2        1.0  0.46420  0.02520  0.30350  1.0000 -0.2791122576
N   N3        1.0  0.97480  0.53580  0.80350  1.0000 -0.2791122576
N   N4        1.0  0.53580  0.97480  0.69650  1.0000 -0.2791122576
N   N5        1.0  0.77750  0.82970  0.92470  1.0000 -0.2883215105
N   N6        1.0  0.82970  0.77750  0.57530  1.0000 -0.2883215105
N   N7        1.0  0.22250  0.17030  0.07530  1.0000 -0.2883215105
N   N8        1.0  0.17030  0.22250  0.42470  1.0000 -0.2883215105
N   N9        1.0  0.92040  0.77060  0.99950  1.0000 -0.2105099832
N   N10       1.0  0.77060  0.92040  0.50050  1.0000 -0.2105099832
N   N11       1.0  0.07960  0.22940  0.00050  1.0000 -0.2105099832
N   N12       1.0  0.22940  0.07960  0.49950  1.0000 -0.2105099832
N   N13       1.0  0.27160  0.97220  0.12910  1.0000 -0.2791122576
N   N14       1.0  0.97220  0.27160  0.37090  1.0000 -0.2791122576
N   N15       1.0  0.72840  0.02780  0.87090  1.0000 -0.2791122576
N   N16       1.0  0.02780  0.72840  0.62910  1.0000 -0.2791122576
N   N17       1.0  0.99740  0.62060  0.08010  1.0000 -0.2297724639
N   N18       1.0  0.62060  0.99740  0.41990  1.0000 -0.2297724639
N   N19       1.0  0.00260  0.37940  0.91990  1.0000 -0.2297724639
N   N20       1.0  0.37940  0.00260  0.58010  1.0000 -0.2297724639
N   N21       1.0  0.97550  0.74590  0.78330  1.0000 -0.2883215105
N   N22       1.0  0.74590  0.97550  0.71670  1.0000 -0.2883215105
N   N23       1.0  0.02450  0.25410  0.21670  1.0000 -0.2883215105
N   N24       1.0  0.25410  0.02450  0.28330  1.0000 -0.2883215105
N   N25       1.0  0.01970  0.76950  0.91830  1.0000 -0.2105099832
N   N26       1.0  0.76950  0.01970  0.58170  1.0000 -0.2105099832
N   N27       1.0  0.98030  0.23050  0.08170  1.0000 -0.2105099832
N   N28       1.0  0.23050  0.98030  0.41830  1.0000 -0.2105099832
N   N29       1.0  0.13760  0.83040  0.06440  1.0000 -0.2157943403
N   N30       1.0  0.83040  0.13760  0.43560  1.0000 -0.2105099832
N   N31       1.0  0.86240  0.16960  0.93560  1.0000 -0.2105099832
N   N32       1.0  0.16960  0.86240  0.56440  1.0000 -0.2157943403
O   O1        1.0  0.52780  0.76560  0.88880  1.0000 -0.5463665133
O   O2        1.0  0.76560  0.52780  0.61120  1.0000 -0.5463665133
O   O3        1.0  0.47220  0.23440  0.11120  1.0000 -0.5463665133
O   O4        1.0  0.23440  0.47220  0.38880  1.0000 -0.5463665133
O   O5        1.0  0.53330  0.72850  0.78540  1.0000 -0.5568002318
O   O6        1.0  0.72850  0.53330  0.71460  1.0000 -0.5568002318
O   O7        1.0  0.46670  0.27150  0.21460  1.0000 -0.5568002318
O   O8        1.0  0.27150  0.46670  0.28540  1.0000 -0.5568002318
