# DDEC6 charges by PACMAN v1.1 (https://github.com/mtap-research/PACMAN-charge/)
data_2016[Co][nan]3[ASR]8
_chemical_formula_sum              "Co6 H16 C28 N12 O12"
_cell_length_a       10.9306
_cell_length_b       10.9306
_cell_length_c       11.1881
_cell_angle_alpha    86.0655
_cell_angle_beta     93.9345
_cell_angle_gamma    109.496

_symmetry_space_group_name_H-M    "P 1"
_symmetry_Int_Tables_number       1

loop_
  _symmetry_equiv_pos_as_xyz
  'x, y, z'

loop_
  _atom_site_type_symbol
  _atom_site_label
  _atom_site_symmetry_multiplicity
  _atom_site_fract_x
  _atom_site_fract_y
  _atom_site_fract_z
  _atom_site_occupancy
  _atom_site_charge
Co  Co1       1.0  0.90423  0.90423  0.75000  1.0000 0.9328244535
Co  Co2       1.0  0.09577  0.09577  0.25000  1.0000 0.9328244535
Co  Co3       1.0  0.01939  0.86207  0.49945  1.0000 0.852812877
Co  Co4       1.0  0.86207  0.01939  0.00055  1.0000 0.852812877
Co  Co5       1.0  0.98061  0.13793  0.50055  1.0000 0.852812877
Co  Co6       1.0  0.13793  0.98061  0.99945  1.0000 0.852812877
H   H1        1.0  0.34950  0.87390  0.51670  1.0000 0.137424661
H   H2        1.0  0.87390  0.34950  0.98330  1.0000 0.137424661
H   H3        1.0  0.65050  0.12610  0.48330  1.0000 0.137424661
H   H4        1.0  0.12610  0.65050  0.01670  1.0000 0.137424661
H   H5        1.0  0.54640  0.87660  0.60890  1.0000 0.122053804
H   H6        1.0  0.87660  0.54640  0.89110  1.0000 0.122053804
H   H7        1.0  0.45360  0.12340  0.39110  1.0000 0.122053804
H   H8        1.0  0.12340  0.45360  0.10890  1.0000 0.122053804
H   H9        1.0  0.43740  0.93900  0.93330  1.0000 0.137424661
H   H10       1.0  0.93900  0.43740  0.56670  1.0000 0.137424661
H   H11       1.0  0.56260  0.06100  0.06670  1.0000 0.137424661
H   H12       1.0  0.06100  0.56260  0.43330  1.0000 0.137424661
H   H13       1.0  0.81500  0.90500  0.53300  1.0000 0.3936509994
H   H14       1.0  0.90500  0.81500  0.96700  1.0000 0.3936509994
H   H15       1.0  0.18500  0.09500  0.46700  1.0000 0.3936509994
H   H16       1.0  0.09500  0.18500  0.03300  1.0000 0.3936509994
C   C1        1.0  0.30060  0.92420  0.79470  1.0000 0.131106062
C   C2        1.0  0.92420  0.30060  0.70530  1.0000 0.131106062
C   C3        1.0  0.69940  0.07580  0.20530  1.0000 0.131106062
C   C4        1.0  0.07580  0.69940  0.29470  1.0000 0.131106062
C   C5        1.0  0.27430  0.90390  0.67190  1.0000 0.122053804
C   C6        1.0  0.90390  0.27430  0.82810  1.0000 0.122053804
C   C7        1.0  0.72570  0.09610  0.32810  1.0000 0.122053804
C   C8        1.0  0.09610  0.72570  0.17190  1.0000 0.122053804
C   C9        1.0  0.36670  0.88630  0.59930  1.0000 -0.1695763114
C   C10       1.0  0.88630  0.36670  0.90070  1.0000 -0.1695763114
C   C11       1.0  0.63330  0.11370  0.40070  1.0000 -0.1695763114
C   C12       1.0  0.11370  0.63330  0.09930  1.0000 -0.1695763114
C   C13       1.0  0.48250  0.88790  0.65480  1.0000 -0.1203983369
C   C14       1.0  0.88790  0.48250  0.84520  1.0000 -0.1203983369
C   C15       1.0  0.51750  0.11210  0.34520  1.0000 -0.1203983369
C   C16       1.0  0.11210  0.51750  0.15480  1.0000 -0.1203983369
C   C17       1.0  0.50960  0.90640  0.77970  1.0000 -0.018045931
C   C18       1.0  0.90640  0.50960  0.72030  1.0000 -0.018045931
C   C19       1.0  0.49040  0.09360  0.22030  1.0000 -0.018045931
C   C20       1.0  0.09360  0.49040  0.27970  1.0000 -0.018045931
C   C21       1.0  0.41960  0.92560  0.85090  1.0000 -0.1695763114
C   C22       1.0  0.92560  0.41960  0.64910  1.0000 -0.1695763114
C   C23       1.0  0.58040  0.07440  0.14910  1.0000 -0.1695763114
C   C24       1.0  0.07440  0.58040  0.35090  1.0000 -0.1695763114
C   C25       1.0  0.64040  0.90640  0.83170  1.0000 0.5884274152
C   C26       1.0  0.90640  0.64040  0.66830  1.0000 0.5884274152
C   C27       1.0  0.35960  0.09360  0.16830  1.0000 0.5884274152
C   C28       1.0  0.09360  0.35960  0.33170  1.0000 0.5884274152
N   N1        1.0  0.19134  0.93926  0.83760  1.0000 -0.2447371575
N   N2        1.0  0.93926  0.19134  0.66240  1.0000 -0.2452647927
N   N3        1.0  0.80866  0.06074  0.16240  1.0000 -0.2452647927
N   N4        1.0  0.06074  0.80866  0.33760  1.0000 -0.2447371575
N   N5        1.0  0.10598  0.92782  0.74400  1.0000 -0.0374936293
N   N6        1.0  0.92782  0.10598  0.75600  1.0000 -0.0374936293
N   N7        1.0  0.89402  0.07218  0.25600  1.0000 -0.0374936293
N   N8        1.0  0.07218  0.89402  0.24400  1.0000 -0.0374936293
N   N9        1.0  0.15247  0.90693  0.64370  1.0000 -0.2447371575
N   N10       1.0  0.90693  0.15247  0.85630  1.0000 -0.2452647927
N   N11       1.0  0.84753  0.09307  0.35630  1.0000 -0.2452647927
N   N12       1.0  0.09307  0.84753  0.14370  1.0000 -0.2447371575
O   O1        1.0  0.89911  0.93969  0.56810  1.0000 -0.8367073926
O   O2        1.0  0.93969  0.89911  0.93190  1.0000 -0.8367073926
O   O3        1.0  0.10089  0.06031  0.43190  1.0000 -0.8367073926
O   O4        1.0  0.06031  0.10089  0.06810  1.0000 -0.8367073926
O   O5        1.0  0.67386  0.94554  0.93710  1.0000 -0.5612138006
O   O6        1.0  0.94554  0.67386  0.56290  1.0000 -0.5612138006
O   O7        1.0  0.32614  0.05446  0.06290  1.0000 -0.5612138006
O   O8        1.0  0.05446  0.32614  0.43710  1.0000 -0.5612138006
O   O9        1.0  0.70662  0.86858  0.76500  1.0000 -0.5483528468
O   O10       1.0  0.86858  0.70662  0.73500  1.0000 -0.5483528468
O   O11       1.0  0.29338  0.13142  0.23500  1.0000 -0.5483528468
O   O12       1.0  0.13142  0.29338  0.26500  1.0000 -0.5483528468
