# DDEC6 charges by PACMAN v1.1 (https://github.com/mtap-research/PACMAN-charge/)
data_2016[Cu][nbo]3[ASR]23
_chemical_formula_sum              "Cu6 H90 C132 O30"
_cell_length_a       21.5459
_cell_length_b       21.5459
_cell_length_c       21.5459
_cell_angle_alpha    109.852
_cell_angle_beta     109.852
_cell_angle_gamma    109.852

_symmetry_space_group_name_H-M    "P 1"
_symmetry_Int_Tables_number       1

loop_
  _symmetry_equiv_pos_as_xyz
  'x, y, z'

loop_
  _atom_site_type_symbol
  _atom_site_label
  _atom_site_symmetry_multiplicity
  _atom_site_fract_x
  _atom_site_fract_y
  _atom_site_fract_z
  _atom_site_occupancy
  _atom_site_charge
Cu  Cu1       1.0  0.44813  0.92684  0.44813  1.0000 0.8645034147
Cu  Cu2       1.0  0.92684  0.44813  0.44813  1.0000 0.8645034147
Cu  Cu3       1.0  0.44813  0.44813  0.92684  1.0000 0.8645034147
Cu  Cu4       1.0  0.07316  0.55187  0.55187  1.0000 0.8656205488
Cu  Cu5       1.0  0.55187  0.07316  0.55187  1.0000 0.8645034147
Cu  Cu6       1.0  0.55187  0.55187  0.07316  1.0000 0.8645034147
H   H1        1.0  0.57820  0.15790  0.40020  1.0000 0.1280913343
H   H2        1.0  0.15790  0.40020  0.57820  1.0000 0.1280913343
H   H3        1.0  0.40020  0.57820  0.15790  1.0000 0.1280913343
H   H4        1.0  0.84210  0.42180  0.59980  1.0000 0.1280913343
H   H5        1.0  0.59980  0.84210  0.42180  1.0000 0.1280913343
H   H6        1.0  0.42180  0.59980  0.84210  1.0000 0.1280913343
H   H7        1.0  0.42180  0.84210  0.59980  1.0000 0.1280913343
H   H8        1.0  0.84210  0.59980  0.42180  1.0000 0.1280913343
H   H9        1.0  0.59980  0.42180  0.84210  1.0000 0.1280913343
H   H10       1.0  0.15790  0.57820  0.40020  1.0000 0.1280913343
H   H11       1.0  0.40020  0.15790  0.57820  1.0000 0.1280913343
H   H12       1.0  0.57820  0.40020  0.15790  1.0000 0.1280913343
H   H13       1.0  0.57770  0.17810  0.30130  1.0000 0.1280913343
H   H14       1.0  0.17810  0.30130  0.57770  1.0000 0.1280913343
H   H15       1.0  0.30130  0.57770  0.17810  1.0000 0.1280913343
H   H16       1.0  0.82190  0.42230  0.69870  1.0000 0.1280913343
H   H17       1.0  0.69870  0.82190  0.42230  1.0000 0.1280913343
H   H18       1.0  0.42230  0.69870  0.82190  1.0000 0.1280913343
H   H19       1.0  0.42230  0.82190  0.69870  1.0000 0.1280913343
H   H20       1.0  0.82190  0.69870  0.42230  1.0000 0.1280913343
H   H21       1.0  0.69870  0.42230  0.82190  1.0000 0.1280913343
H   H22       1.0  0.17810  0.57770  0.30130  1.0000 0.1280913343
H   H23       1.0  0.30130  0.17810  0.57770  1.0000 0.1280913343
H   H24       1.0  0.57770  0.30130  0.17810  1.0000 0.1280913343
H   H25       1.0  0.41440  0.95720  0.14670  1.0000 0.1166261537
H   H26       1.0  0.95720  0.14670  0.41440  1.0000 0.1166261537
H   H27       1.0  0.14670  0.41440  0.95720  1.0000 0.1166261537
H   H28       1.0  0.04280  0.58560  0.85330  1.0000 0.1166261537
H   H29       1.0  0.85330  0.04280  0.58560  1.0000 0.1166261537
H   H30       1.0  0.58560  0.85330  0.04280  1.0000 0.1166261537
H   H31       1.0  0.58560  0.04280  0.85330  1.0000 0.1166261537
H   H32       1.0  0.04280  0.85330  0.58560  1.0000 0.1166261537
H   H33       1.0  0.85330  0.58560  0.04280  1.0000 0.1166261537
H   H34       1.0  0.95720  0.41440  0.14670  1.0000 0.1166261537
H   H35       1.0  0.14670  0.95720  0.41440  1.0000 0.1166261537
H   H36       1.0  0.41440  0.14670  0.95720  1.0000 0.1166261537
H   H37       1.0  0.41640  0.93630  0.24570  1.0000 0.1280913343
H   H38       1.0  0.93630  0.24570  0.41640  1.0000 0.1280913343
H   H39       1.0  0.24570  0.41640  0.93630  1.0000 0.1280913343
H   H40       1.0  0.06370  0.58360  0.75430  1.0000 0.1280913343
H   H41       1.0  0.75430  0.06370  0.58360  1.0000 0.1280913343
H   H42       1.0  0.58360  0.75430  0.06370  1.0000 0.1280913343
H   H43       1.0  0.58360  0.06370  0.75430  1.0000 0.1280913343
H   H44       1.0  0.06370  0.75430  0.58360  1.0000 0.1280913343
H   H45       1.0  0.75430  0.58360  0.06370  1.0000 0.1280913343
H   H46       1.0  0.93630  0.41640  0.24570  1.0000 0.1280913343
H   H47       1.0  0.24570  0.93630  0.41640  1.0000 0.1280913343
H   H48       1.0  0.41640  0.24570  0.93630  1.0000 0.1280913343
H   H49       1.0  0.49890  0.98390  0.09670  1.0000 0.1166261537
H   H50       1.0  0.98390  0.09670  0.49890  1.0000 0.1166261537
H   H51       1.0  0.09670  0.49890  0.98390  1.0000 0.1166261537
H   H52       1.0  0.01610  0.50110  0.90330  1.0000 0.1166261537
H   H53       1.0  0.90330  0.01610  0.50110  1.0000 0.1166261537
H   H54       1.0  0.50110  0.90330  0.01610  1.0000 0.1166261537
H   H55       1.0  0.50110  0.01610  0.90330  1.0000 0.1166261537
H   H56       1.0  0.01610  0.90330  0.50110  1.0000 0.1166261537
H   H57       1.0  0.90330  0.50110  0.01610  1.0000 0.1166261537
H   H58       1.0  0.98390  0.49890  0.09670  1.0000 0.1166261537
H   H59       1.0  0.09670  0.98390  0.49890  1.0000 0.1166261537
H   H60       1.0  0.49890  0.09670  0.98390  1.0000 0.1166261537
H   H61       1.0  0.39520  0.18010  0.13560  1.0000 0.072362107
H   H62       1.0  0.18010  0.13560  0.39520  1.0000 0.072362107
H   H63       1.0  0.13560  0.39520  0.18010  1.0000 0.072362107
H   H64       1.0  0.81990  0.60480  0.86440  1.0000 0.072362107
H   H65       1.0  0.86440  0.81990  0.60480  1.0000 0.072362107
H   H66       1.0  0.60480  0.86440  0.81990  1.0000 0.072362107
H   H67       1.0  0.60480  0.81990  0.86440  1.0000 0.072362107
H   H68       1.0  0.81990  0.86440  0.60480  1.0000 0.072362107
H   H69       1.0  0.86440  0.60480  0.81990  1.0000 0.072362107
H   H70       1.0  0.18010  0.39520  0.13560  1.0000 0.072362107
H   H71       1.0  0.13560  0.18010  0.39520  1.0000 0.072362107
H   H72       1.0  0.39520  0.13560  0.18010  1.0000 0.072362107
H   H73       1.0  0.37910  0.23760  0.23760  1.0000 0.105536717
H   H74       1.0  0.23760  0.23760  0.37910  1.0000 0.105536717
H   H75       1.0  0.23760  0.37910  0.23760  1.0000 0.105536717
H   H76       1.0  0.76240  0.62090  0.76240  1.0000 0.105536717
H   H77       1.0  0.76240  0.76240  0.62090  1.0000 0.105536717
H   H78       1.0  0.62090  0.76240  0.76240  1.0000 0.1042314601
H   H79       1.0  0.45700  0.29600  0.25160  1.0000 0.1042314601
H   H80       1.0  0.29600  0.25160  0.45700  1.0000 0.1042314601
H   H81       1.0  0.25160  0.45700  0.29600  1.0000 0.1042314601
H   H82       1.0  0.70400  0.54300  0.74840  1.0000 0.1042314601
H   H83       1.0  0.74840  0.70400  0.54300  1.0000 0.1042314601
H   H84       1.0  0.54300  0.74840  0.70400  1.0000 0.1042314601
H   H85       1.0  0.54300  0.70400  0.74840  1.0000 0.1042314601
H   H86       1.0  0.70400  0.74840  0.54300  1.0000 0.1042314601
H   H87       1.0  0.74840  0.54300  0.70400  1.0000 0.1042314601
H   H88       1.0  0.29600  0.45700  0.25160  1.0000 0.1042314601
H   H89       1.0  0.25160  0.29600  0.45700  1.0000 0.1042314601
H   H90       1.0  0.45700  0.25160  0.29600  1.0000 0.1042314601
C   C1        1.0  0.49786  0.02957  0.39611  1.0000 0.5799855792
C   C2        1.0  0.02957  0.39611  0.49786  1.0000 0.5799855792
C   C3        1.0  0.39611  0.49786  0.02957  1.0000 0.5799855792
C   C4        1.0  0.97043  0.50214  0.60389  1.0000 0.5799855792
C   C5        1.0  0.60389  0.97043  0.50214  1.0000 0.5799855792
C   C6        1.0  0.50214  0.60389  0.97043  1.0000 0.5799855792
C   C7        1.0  0.50214  0.97043  0.60389  1.0000 0.5799855792
C   C8        1.0  0.97043  0.60389  0.50214  1.0000 0.5799855792
C   C9        1.0  0.60389  0.50214  0.97043  1.0000 0.5799855792
C   C10       1.0  0.02957  0.49786  0.39611  1.0000 0.5799855792
C   C11       1.0  0.39611  0.02957  0.49786  1.0000 0.5799855792
C   C12       1.0  0.49786  0.39611  0.02957  1.0000 0.5799855792
C   C13       1.0  0.49637  0.04406  0.33235  1.0000 -0.0333276403
C   C14       1.0  0.04406  0.33235  0.49637  1.0000 -0.0333276403
C   C15       1.0  0.33235  0.49637  0.04406  1.0000 -0.0333276403
C   C16       1.0  0.95594  0.50363  0.66765  1.0000 -0.0333276403
C   C17       1.0  0.66765  0.95594  0.50363  1.0000 -0.0333276403
C   C18       1.0  0.50363  0.66765  0.95594  1.0000 -0.0333276403
C   C19       1.0  0.50363  0.95594  0.66765  1.0000 -0.0333276403
C   C20       1.0  0.95594  0.66765  0.50363  1.0000 -0.0333276403
C   C21       1.0  0.66765  0.50363  0.95594  1.0000 -0.0333276403
C   C22       1.0  0.04406  0.49637  0.33235  1.0000 -0.0333276403
C   C23       1.0  0.33235  0.04406  0.49637  1.0000 -0.0333276403
C   C24       1.0  0.49637  0.33235  0.04406  1.0000 -0.0333276403
C   C25       1.0  0.54553  0.11745  0.34936  1.0000 -0.0869950407
C   C26       1.0  0.11745  0.34936  0.54553  1.0000 -0.0869950407
C   C27       1.0  0.34936  0.54553  0.11745  1.0000 -0.0869950407
C   C28       1.0  0.88255  0.45447  0.65064  1.0000 -0.0869950407
C   C29       1.0  0.65064  0.88255  0.45447  1.0000 -0.0869950407
C   C30       1.0  0.45447  0.65064  0.88255  1.0000 -0.0869950407
C   C31       1.0  0.45447  0.88255  0.65064  1.0000 -0.08466125
C   C32       1.0  0.88255  0.65064  0.45447  1.0000 -0.0869950407
C   C33       1.0  0.65064  0.45447  0.88255  1.0000 -0.0869950407
C   C34       1.0  0.11745  0.54553  0.34936  1.0000 -0.0869950407
C   C35       1.0  0.34936  0.11745  0.54553  1.0000 -0.0869950407
C   C36       1.0  0.54553  0.34936  0.11745  1.0000 -0.0869950407
C   C37       1.0  0.54512  0.12929  0.28975  1.0000 -0.1488133417
C   C38       1.0  0.12929  0.28975  0.54512  1.0000 -0.1488133417
C   C39       1.0  0.28975  0.54512  0.12929  1.0000 -0.1488133417
C   C40       1.0  0.87071  0.45488  0.71025  1.0000 -0.1488133417
C   C41       1.0  0.71025  0.87071  0.45488  1.0000 -0.1488133417
C   C42       1.0  0.45488  0.71025  0.87071  1.0000 -0.1488133417
C   C43       1.0  0.45488  0.87071  0.71025  1.0000 -0.1488133417
C   C44       1.0  0.87071  0.71025  0.45488  1.0000 -0.1488133417
C   C45       1.0  0.71025  0.45488  0.87071  1.0000 -0.1488133417
C   C46       1.0  0.12929  0.54512  0.28975  1.0000 -0.1488133417
C   C47       1.0  0.28975  0.12929  0.54512  1.0000 -0.1488133417
C   C48       1.0  0.54512  0.28975  0.12929  1.0000 -0.1488133417
C   C49       1.0  0.49782  0.07073  0.21438  1.0000 0.0839638402
C   C50       1.0  0.07073  0.21438  0.49782  1.0000 0.0839638402
C   C51       1.0  0.21438  0.49782  0.07073  1.0000 0.0839638402
C   C52       1.0  0.92927  0.50218  0.78562  1.0000 0.0839638402
C   C53       1.0  0.78562  0.92927  0.50218  1.0000 0.0839638402
C   C54       1.0  0.50218  0.78562  0.92927  1.0000 0.0839638402
C   C55       1.0  0.50218  0.92927  0.78562  1.0000 0.0839638402
C   C56       1.0  0.92927  0.78562  0.50218  1.0000 0.0839638402
C   C57       1.0  0.78562  0.50218  0.92927  1.0000 0.0839638402
C   C58       1.0  0.07073  0.49782  0.21438  1.0000 0.0839638402
C   C59       1.0  0.21438  0.07073  0.49782  1.0000 0.0839638402
C   C60       1.0  0.49782  0.21438  0.07073  1.0000 0.0839638402
C   C61       1.0  0.44793  0.99747  0.19752  1.0000 -0.1642587939
C   C62       1.0  0.99747  0.19752  0.44793  1.0000 -0.1642587939
C   C63       1.0  0.19752  0.44793  0.99747  1.0000 -0.1642587939
C   C64       1.0  0.00253  0.55207  0.80248  1.0000 -0.1642587939
C   C65       1.0  0.80248  0.00253  0.55207  1.0000 -0.1642587939
C   C66       1.0  0.55207  0.80248  0.00253  1.0000 -0.1642587939
C   C67       1.0  0.55207  0.00253  0.80248  1.0000 -0.1642587939
C   C68       1.0  0.00253  0.80248  0.55207  1.0000 -0.1642587939
C   C69       1.0  0.80248  0.55207  0.00253  1.0000 -0.1642587939
C   C70       1.0  0.99747  0.44793  0.19752  1.0000 -0.1642587939
C   C71       1.0  0.19752  0.99747  0.44793  1.0000 -0.1642587939
C   C72       1.0  0.44793  0.19752  0.99747  1.0000 -0.1642587939
C   C73       1.0  0.44875  0.98520  0.25715  1.0000 -0.0869950407
C   C74       1.0  0.98520  0.25715  0.44875  1.0000 -0.0869950407
C   C75       1.0  0.25715  0.44875  0.98520  1.0000 -0.0869950407
C   C76       1.0  0.01480  0.55125  0.74285  1.0000 -0.0869950407
C   C77       1.0  0.74285  0.01480  0.55125  1.0000 -0.0869950407
C   C78       1.0  0.55125  0.74285  0.01480  1.0000 -0.0869950407
C   C79       1.0  0.55125  0.01480  0.74285  1.0000 -0.0869950407
C   C80       1.0  0.01480  0.74285  0.55125  1.0000 -0.0869950407
C   C81       1.0  0.74285  0.55125  0.01480  1.0000 -0.0869950407
C   C82       1.0  0.98520  0.44875  0.25715  1.0000 -0.0869950407
C   C83       1.0  0.25715  0.98520  0.44875  1.0000 -0.0869950407
C   C84       1.0  0.44875  0.25715  0.98520  1.0000 -0.0869950407
C   C85       1.0  0.49878  0.08000  0.14904  1.0000 -0.0203853433
C   C86       1.0  0.08000  0.14904  0.49878  1.0000 -0.0203853433
C   C87       1.0  0.14904  0.49878  0.08000  1.0000 -0.0203853433
C   C88       1.0  0.92000  0.50122  0.85096  1.0000 -0.0203853433
C   C89       1.0  0.85096  0.92000  0.50122  1.0000 -0.0203853433
C   C90       1.0  0.50122  0.85096  0.92000  1.0000 -0.0203853433
C   C91       1.0  0.50122  0.92000  0.85096  1.0000 -0.0203853433
C   C92       1.0  0.92000  0.85096  0.50122  1.0000 -0.0203853433
C   C93       1.0  0.85096  0.50122  0.92000  1.0000 -0.0203853433
C   C94       1.0  0.08000  0.49878  0.14904  1.0000 -0.0203853433
C   C95       1.0  0.14904  0.08000  0.49878  1.0000 -0.0203853433
C   C96       1.0  0.49878  0.14904  0.08000  1.0000 -0.0203853433
C   C97       1.0  0.49908  0.02555  0.09264  1.0000 -0.1943740593
C   C98       1.0  0.02555  0.09264  0.49908  1.0000 -0.1943740593
C   C99       1.0  0.09264  0.49908  0.02555  1.0000 -0.1950979428
C   C100      1.0  0.97445  0.50092  0.90736  1.0000 -0.1950979428
C   C101      1.0  0.90736  0.97445  0.50092  1.0000 -0.1943740593
C   C102      1.0  0.50092  0.90736  0.97445  1.0000 -0.1950979428
C   C103      1.0  0.50092  0.97445  0.90736  1.0000 -0.1943740593
C   C104      1.0  0.97445  0.90736  0.50092  1.0000 -0.1950979428
C   C105      1.0  0.90736  0.50092  0.97445  1.0000 -0.1950979428
C   C106      1.0  0.02555  0.49908  0.09264  1.0000 -0.1943740593
C   C107      1.0  0.09264  0.02555  0.49908  1.0000 -0.1943740593
C   C108      1.0  0.49908  0.09264  0.02555  1.0000 -0.1943740593
C   C109      1.0  0.49960  0.02975  0.02975  1.0000 0.072362107
C   C110      1.0  0.02975  0.02975  0.49960  1.0000 0.072362107
C   C111      1.0  0.02975  0.49960  0.02975  1.0000 0.072362107
C   C112      1.0  0.97025  0.50040  0.97025  1.0000 0.072362107
C   C113      1.0  0.97025  0.97025  0.50040  1.0000 0.072362107
C   C114      1.0  0.50040  0.97025  0.97025  1.0000 0.072362107
C   C115      1.0  0.49938  0.14341  0.14341  1.0000 0.1791289427
C   C116      1.0  0.14341  0.14341  0.49938  1.0000 0.1791289427
C   C117      1.0  0.14341  0.49938  0.14341  1.0000 0.1791289427
C   C118      1.0  0.85659  0.50062  0.85659  1.0000 0.1791289427
C   C119      1.0  0.85659  0.85659  0.50062  1.0000 0.1791289427
C   C120      1.0  0.50062  0.85659  0.85659  1.0000 0.1791289427
C   C121      1.0  0.42338  0.18411  0.18411  1.0000 0.0056829527
C   C122      1.0  0.18411  0.18411  0.42338  1.0000 0.0056829527
C   C123      1.0  0.18411  0.42338  0.18411  1.0000 0.004904517
C   C124      1.0  0.81589  0.57662  0.81589  1.0000 0.0056829527
C   C125      1.0  0.81589  0.81589  0.57662  1.0000 0.0056829527
C   C126      1.0  0.57662  0.81589  0.81589  1.0000 0.0056829527
C   C127      1.0  0.42970  0.24815  0.24815  1.0000 -0.3688962904
C   C128      1.0  0.24815  0.24815  0.42970  1.0000 -0.3688962904
C   C129      1.0  0.24815  0.42970  0.24815  1.0000 -0.3688962904
C   C130      1.0  0.75185  0.57030  0.75185  1.0000 -0.3688962904
C   C131      1.0  0.75185  0.75185  0.57030  1.0000 -0.3688962904
C   C132      1.0  0.57030  0.75185  0.75185  1.0000 -0.3688962904
O   O1        1.0  0.45392  0.96070  0.37566  1.0000 -0.525253241
O   O2        1.0  0.96070  0.37566  0.45392  1.0000 -0.5245438861
O   O3        1.0  0.37566  0.45392  0.96070  1.0000 -0.5245438861
O   O4        1.0  0.03930  0.54608  0.62434  1.0000 -0.525253241
O   O5        1.0  0.62434  0.03930  0.54608  1.0000 -0.5245438861
O   O6        1.0  0.54608  0.62434  0.03930  1.0000 -0.525253241
O   O7        1.0  0.54608  0.03930  0.62434  1.0000 -0.525253241
O   O8        1.0  0.03930  0.62434  0.54608  1.0000 -0.525253241
O   O9        1.0  0.62434  0.54608  0.03930  1.0000 -0.5245438861
O   O10       1.0  0.96070  0.45392  0.37566  1.0000 -0.5245438861
O   O11       1.0  0.37566  0.96070  0.45392  1.0000 -0.525253241
O   O12       1.0  0.45392  0.37566  0.96070  1.0000 -0.5245438861
O   O13       1.0  0.54208  0.08585  0.46367  1.0000 -0.5123888301
O   O14       1.0  0.08585  0.46367  0.54208  1.0000 -0.5123888301
O   O15       1.0  0.46367  0.54208  0.08585  1.0000 -0.5123888301
O   O16       1.0  0.91415  0.45792  0.53633  1.0000 -0.5123888301
O   O17       1.0  0.53633  0.91415  0.45792  1.0000 -0.5123888301
O   O18       1.0  0.45792  0.53633  0.91415  1.0000 -0.5123888301
O   O19       1.0  0.45792  0.91415  0.53633  1.0000 -0.5123888301
O   O20       1.0  0.91415  0.53633  0.45792  1.0000 -0.5123888301
O   O21       1.0  0.53633  0.45792  0.91415  1.0000 -0.5123888301
O   O22       1.0  0.08585  0.54208  0.46367  1.0000 -0.5123888301
O   O23       1.0  0.46367  0.08585  0.54208  1.0000 -0.5123888301
O   O24       1.0  0.54208  0.46367  0.08585  1.0000 -0.5123888301
O   O25       1.0  0.50046  0.19948  0.19948  1.0000 -0.2292077663
O   O26       1.0  0.19948  0.19948  0.50046  1.0000 -0.2292077663
O   O27       1.0  0.19948  0.50046  0.19948  1.0000 -0.2292077663
O   O28       1.0  0.80052  0.49954  0.80052  1.0000 -0.2292077663
O   O29       1.0  0.80052  0.80052  0.49954  1.0000 -0.2292077663
O   O30       1.0  0.49954  0.80052  0.80052  1.0000 -0.2292077663
