# DDEC6 charges by PACMAN v1.1 (https://github.com/mtap-research/PACMAN-charge/)
data_2016[Zn][nan]3[ASR]38
_chemical_formula_sum              "Zn8 H32 C60 N32 O16"
_cell_length_a       11.8988
_cell_length_b       11.8988
_cell_length_c       17.699
_cell_angle_alpha    78.3605
_cell_angle_beta     101.639
_cell_angle_gamma    122.952

_symmetry_space_group_name_H-M    "P 1"
_symmetry_Int_Tables_number       1

loop_
  _symmetry_equiv_pos_as_xyz
  'x, y, z'

loop_
  _atom_site_type_symbol
  _atom_site_label
  _atom_site_symmetry_multiplicity
  _atom_site_fract_x
  _atom_site_fract_y
  _atom_site_fract_z
  _atom_site_occupancy
  _atom_site_charge
Zn  Zn1       1.0  0.08303  0.18943  0.64179  1.0000 0.7961779347
Zn  Zn2       1.0  0.18943  0.08303  0.85821  1.0000 0.7961779347
Zn  Zn3       1.0  0.91697  0.81057  0.35821  1.0000 0.7961779347
Zn  Zn4       1.0  0.81057  0.91697  0.14179  1.0000 0.7961779347
Zn  Zn5       1.0  0.85454  0.31094  0.31424  1.0000 0.7095973005
Zn  Zn6       1.0  0.31094  0.85454  0.18576  1.0000 0.7095973005
Zn  Zn7       1.0  0.14546  0.68906  0.68576  1.0000 0.7095973005
Zn  Zn8       1.0  0.68906  0.14546  0.81424  1.0000 0.7095973005
H   H1        1.0  0.14860  0.56580  0.48210  1.0000 0.1293491444
H   H2        1.0  0.56580  0.14860  0.01790  1.0000 0.1293491444
H   H3        1.0  0.85140  0.43420  0.51790  1.0000 0.1293491444
H   H4        1.0  0.43420  0.85140  0.98210  1.0000 0.1293491444
H   H5        1.0  0.36710  0.72710  0.45710  1.0000 0.1293491444
H   H6        1.0  0.72710  0.36710  0.04290  1.0000 0.1293491444
H   H7        1.0  0.63290  0.27290  0.54290  1.0000 0.1293491444
H   H8        1.0  0.27290  0.63290  0.95710  1.0000 0.1293491444
H   H9        1.0  0.40490  0.44790  0.39760  1.0000 0.1293491444
H   H10       1.0  0.44790  0.40490  0.10240  1.0000 0.1293491444
H   H11       1.0  0.59510  0.55210  0.60240  1.0000 0.1293491444
H   H12       1.0  0.55210  0.59510  0.89760  1.0000 0.1293491444
H   H13       1.0  0.18640  0.28840  0.42120  1.0000 0.1293491444
H   H14       1.0  0.28840  0.18640  0.07880  1.0000 0.1293491444
H   H15       1.0  0.81360  0.71160  0.57880  1.0000 0.1293491444
H   H16       1.0  0.71160  0.81360  0.92120  1.0000 0.1293491444
H   H17       1.0  0.59340  0.86840  0.46560  1.0000 0.135843139
H   H18       1.0  0.86840  0.59340  0.03440  1.0000 0.135843139
H   H19       1.0  0.40660  0.13160  0.53440  1.0000 0.135843139
H   H20       1.0  0.13160  0.40660  0.96560  1.0000 0.135843139
H   H21       1.0  0.60680  0.61460  0.35870  1.0000 0.1213235841
H   H22       1.0  0.61460  0.60680  0.14130  1.0000 0.1213235841
H   H23       1.0  0.39320  0.38540  0.64130  1.0000 0.1213235841
H   H24       1.0  0.38540  0.39320  0.85870  1.0000 0.1213235841
H   H25       1.0  0.15420  0.52280  0.24060  1.0000 0.1213235841
H   H26       1.0  0.52280  0.15420  0.25940  1.0000 0.1213235841
H   H27       1.0  0.84580  0.47720  0.75940  1.0000 0.1213235841
H   H28       1.0  0.47720  0.84580  0.74060  1.0000 0.1213235841
H   H29       1.0  0.82270  0.96690  0.43550  1.0000 0.1293491444
H   H30       1.0  0.96690  0.82270  0.06450  1.0000 0.1293491444
H   H31       1.0  0.17730  0.03310  0.56450  1.0000 0.1293491444
H   H32       1.0  0.03310  0.17730  0.93550  1.0000 0.1293491444
C   C1        1.0  0.00810  0.30470  0.47680  1.0000 0.2858691773
C   C2        1.0  0.30470  0.00810  0.02320  1.0000 0.2858691773
C   C3        1.0  0.99190  0.69530  0.52320  1.0000 0.2858691773
C   C4        1.0  0.69530  0.99190  0.97680  1.0000 0.2858691773
C   C5        1.0  0.14650  0.40950  0.45740  1.0000 0.0217808446
C   C6        1.0  0.40950  0.14650  0.04260  1.0000 0.0217808446
C   C7        1.0  0.85350  0.59050  0.54260  1.0000 0.0217808446
C   C8        1.0  0.59050  0.85350  0.95740  1.0000 0.0217808446
C   C9        1.0  0.20050  0.54030  0.46590  1.0000 -0.0945505613
C   C10       1.0  0.54030  0.20050  0.03410  1.0000 -0.0945505613
C   C11       1.0  0.79950  0.45970  0.53410  1.0000 -0.0945505613
C   C12       1.0  0.45970  0.79950  0.96590  1.0000 -0.0945505613
C   C13       1.0  0.33210  0.63770  0.45090  1.0000 -0.1587860176
C   C14       1.0  0.63770  0.33210  0.04910  1.0000 -0.1587860176
C   C15       1.0  0.66790  0.36230  0.54910  1.0000 -0.1587860176
C   C16       1.0  0.36230  0.66790  0.95090  1.0000 -0.1587860176
C   C17       1.0  0.40960  0.60300  0.42740  1.0000 0.1533792576
C   C18       1.0  0.60300  0.40960  0.07260  1.0000 0.1533792576
C   C19       1.0  0.59040  0.39700  0.57260  1.0000 0.1533792576
C   C20       1.0  0.39700  0.59040  0.92740  1.0000 0.1533792576
C   C21       1.0  0.35420  0.47280  0.41560  1.0000 -0.1918964574
C   C22       1.0  0.47280  0.35420  0.08440  1.0000 -0.1918964574
C   C23       1.0  0.64580  0.52720  0.58440  1.0000 -0.1918964574
C   C24       1.0  0.52720  0.64580  0.91560  1.0000 -0.1918964574
C   C25       1.0  0.22300  0.37700  0.43020  1.0000 -0.1052395778
C   C26       1.0  0.37700  0.22300  0.06980  1.0000 -0.1052395778
C   C27       1.0  0.77700  0.62300  0.56980  1.0000 -0.1052395778
C   C28       1.0  0.62300  0.77700  0.93020  1.0000 -0.1052395778
C   C29       1.0  0.62320  0.82860  0.44120  1.0000 -0.0803186194
C   C30       1.0  0.82860  0.62320  0.05880  1.0000 -0.0803186194
C   C31       1.0  0.37680  0.17140  0.55880  1.0000 -0.0803186194
C   C32       1.0  0.17140  0.37680  0.94120  1.0000 -0.0803186194
C   C33       1.0  0.63270  0.68990  0.38190  1.0000 0.1213235841
C   C34       1.0  0.68990  0.63270  0.11810  1.0000 0.1213235841
C   C35       1.0  0.36730  0.31010  0.61810  1.0000 0.1213235841
C   C36       1.0  0.31010  0.36730  0.88190  1.0000 0.1213235841
C   C37       1.0  0.83180  0.54320  0.31050  1.0000 0.5685669293
C   C38       1.0  0.54320  0.83180  0.18950  1.0000 0.5685669293
C   C39       1.0  0.16820  0.45680  0.68950  1.0000 0.5685669293
C   C40       1.0  0.45680  0.16820  0.81050  1.0000 0.5685669293
C   C41       1.0  0.96350  0.59210  0.28390  1.0000 -0.0248438326
C   C42       1.0  0.59210  0.96350  0.21610  1.0000 -0.0248438326
C   C43       1.0  0.03650  0.40790  0.71610  1.0000 -0.0248438326
C   C44       1.0  0.40790  0.03650  0.78390  1.0000 -0.0248438326
C   C45       1.0  0.06940  0.71520  0.25920  1.0000 -0.026804133
C   C46       1.0  0.71520  0.06940  0.24080  1.0000 -0.026804133
C   C47       1.0  0.93060  0.28480  0.74080  1.0000 -0.026804133
C   C48       1.0  0.28480  0.93060  0.75920  1.0000 -0.026804133
C   C49       1.0  0.10050  0.85430  0.24900  1.0000 0.5685669293
C   C50       1.0  0.85430  0.10050  0.25100  1.0000 0.5685669293
C   C51       1.0  0.89950  0.14570  0.75100  1.0000 0.5685669293
C   C52       1.0  0.14570  0.89950  0.74900  1.0000 0.5685669293
C   C53       1.0  0.11090  0.56330  0.25010  1.0000 0.1796390822
C   C54       1.0  0.56330  0.11090  0.24990  1.0000 0.1796390822
C   C55       1.0  0.88910  0.43670  0.74990  1.0000 0.1796390822
C   C56       1.0  0.43670  0.88910  0.75010  1.0000 0.1796390822
C   C57       1.0  0.74980  0.88280  0.42370  1.0000 -0.026804133
C   C58       1.0  0.88280  0.74980  0.07630  1.0000 -0.026804133
C   C59       1.0  0.25020  0.11720  0.57630  1.0000 -0.026804133
C   C60       1.0  0.11720  0.25020  0.92370  1.0000 -0.026804133
N   N1        1.0  0.75500  0.79520  0.38590  1.0000 -0.2923106356
N   N2        1.0  0.79520  0.75500  0.11410  1.0000 -0.2923106356
N   N3        1.0  0.24500  0.20480  0.61410  1.0000 -0.2923106356
N   N4        1.0  0.20480  0.24500  0.88590  1.0000 -0.2923106356
N   N5        1.0  0.97860  0.23400  0.54650  1.0000 -0.2923106356
N   N6        1.0  0.23400  0.97860  0.95350  1.0000 -0.2923106356
N   N7        1.0  0.02140  0.76600  0.45350  1.0000 -0.2923106356
N   N8        1.0  0.76600  0.02140  0.04650  1.0000 -0.3024079093
N   N9        1.0  0.84050  0.15590  0.54150  1.0000 -0.0803186194
N   N10       1.0  0.15590  0.84050  0.95850  1.0000 -0.0803186194
N   N11       1.0  0.15950  0.84410  0.45850  1.0000 -0.0803186194
N   N12       1.0  0.84410  0.15950  0.04150  1.0000 -0.0803186194
N   N13       1.0  0.79130  0.18030  0.47190  1.0000 -0.0803186194
N   N14       1.0  0.18030  0.79130  0.02810  1.0000 -0.0803186194
N   N15       1.0  0.20870  0.81970  0.52810  1.0000 -0.0803186194
N   N16       1.0  0.81970  0.20870  0.97190  1.0000 -0.0803186194
N   N17       1.0  0.89600  0.27420  0.43010  1.0000 -0.2584571728
N   N18       1.0  0.27420  0.89600  0.06990  1.0000 -0.2584571728
N   N19       1.0  0.10400  0.72580  0.56990  1.0000 -0.2584571728
N   N20       1.0  0.72580  0.10400  0.93010  1.0000 -0.2584571728
N   N21       1.0  0.54720  0.70260  0.41540  1.0000 0.0014049517
N   N22       1.0  0.70260  0.54720  0.08460  1.0000 0.0014049517
N   N23       1.0  0.45280  0.29740  0.58460  1.0000 0.0014049517
N   N24       1.0  0.29740  0.45280  0.91540  1.0000 0.0014049517
N   N25       1.0  0.99169  0.49551  0.27760  1.0000 -0.3171300554
N   N26       1.0  0.49551  0.99169  0.22240  1.0000 -0.3171300554
N   N27       1.0  0.00831  0.50449  0.72240  1.0000 -0.3171300554
N   N28       1.0  0.50449  0.00831  0.77760  1.0000 -0.3171300554
N   N29       1.0  0.16131  0.69609  0.23750  1.0000 -0.3024079093
N   N30       1.0  0.69609  0.16131  0.26250  1.0000 -0.3024079093
N   N31       1.0  0.83869  0.30391  0.76250  1.0000 -0.3024079093
N   N32       1.0  0.30391  0.83869  0.73750  1.0000 -0.3024079093
O   O1        1.0  0.75484  0.41576  0.31990  1.0000 -0.5282233769
O   O2        1.0  0.41576  0.75484  0.18010  1.0000 -0.5282233769
O   O3        1.0  0.24516  0.58424  0.68010  1.0000 -0.5282233769
O   O4        1.0  0.58424  0.24516  0.81990  1.0000 -0.5282233769
O   O5        1.0  0.80131  0.62309  0.32160  1.0000 -0.5282233769
O   O6        1.0  0.62309  0.80131  0.17840  1.0000 -0.5282233769
O   O7        1.0  0.19869  0.37691  0.67840  1.0000 -0.5282233769
O   O8        1.0  0.37691  0.19869  0.82160  1.0000 -0.5282233769
O   O9        1.0  0.02466  0.88394  0.26890  1.0000 -0.5200369844
O   O10       1.0  0.88394  0.02466  0.23110  1.0000 -0.5200369844
O   O11       1.0  0.97534  0.11606  0.73110  1.0000 -0.5200369844
O   O12       1.0  0.11606  0.97534  0.76890  1.0000 -0.5200369844
O   O13       1.0  0.20364  0.94236  0.21590  1.0000 -0.5200369844
O   O14       1.0  0.94236  0.20364  0.28410  1.0000 -0.5200369844
O   O15       1.0  0.79636  0.05764  0.78410  1.0000 -0.5200369844
O   O16       1.0  0.05764  0.79636  0.71590  1.0000 -0.5200369844
