# DDEC6 charges by PACMAN v1.1 (https://github.com/mtap-research/PACMAN-charge/)
data_2016[Mg][nan]3[ASR]5
_chemical_formula_sum              "Mg6 H6 C24 O18"
_cell_length_a       15.1098
_cell_length_b       15.1098
_cell_length_c       15.1098
_cell_angle_alpha    117.719
_cell_angle_beta     117.719
_cell_angle_gamma    117.719

_symmetry_space_group_name_H-M    "P 1"
_symmetry_Int_Tables_number       1

loop_
  _symmetry_equiv_pos_as_xyz
  'x, y, z'

loop_
  _atom_site_type_symbol
  _atom_site_label
  _atom_site_symmetry_multiplicity
  _atom_site_fract_x
  _atom_site_fract_y
  _atom_site_fract_z
  _atom_site_occupancy
  _atom_site_charge
Mg  Mg1       1.0  0.70841  0.39184  0.97268  1.0000 1.3627856456
Mg  Mg2       1.0  0.39184  0.97268  0.70841  1.0000 1.3627856456
Mg  Mg3       1.0  0.97268  0.70841  0.39184  1.0000 1.3627856456
Mg  Mg4       1.0  0.29159  0.60816  0.02732  1.0000 1.3627856456
Mg  Mg5       1.0  0.60816  0.02732  0.29159  1.0000 1.3627856456
Mg  Mg6       1.0  0.02732  0.29159  0.60816  1.0000 1.3627856456
H   H1        1.0  0.15620  0.17190  0.70140  1.0000 0.1356104596
H   H2        1.0  0.17190  0.70140  0.15620  1.0000 0.1356104596
H   H3        1.0  0.70140  0.15620  0.17190  1.0000 0.1356104596
H   H4        1.0  0.84380  0.82810  0.29860  1.0000 0.1356104596
H   H5        1.0  0.82810  0.29860  0.84380  1.0000 0.1356104596
H   H6        1.0  0.29860  0.84380  0.82810  1.0000 0.1356104596
C   C1        1.0  0.33100  0.15271  0.76629  1.0000 0.6514215354
C   C2        1.0  0.15271  0.76629  0.33100  1.0000 0.6514215354
C   C3        1.0  0.76629  0.33100  0.15271  1.0000 0.6514215354
C   C4        1.0  0.66900  0.84729  0.23371  1.0000 0.6514215354
C   C5        1.0  0.84729  0.23371  0.66900  1.0000 0.6514215354
C   C6        1.0  0.23371  0.66900  0.84729  1.0000 0.6514215354
C   C7        1.0  0.42588  0.33731  0.89061  1.0000 -0.1473407265
C   C8        1.0  0.33731  0.89061  0.42588  1.0000 -0.1473407265
C   C9        1.0  0.89061  0.42588  0.33731  1.0000 -0.1473407265
C   C10       1.0  0.57412  0.66269  0.10939  1.0000 -0.1473407265
C   C11       1.0  0.66269  0.10939  0.57412  1.0000 -0.1473407265
C   C12       1.0  0.10939  0.57412  0.66269  1.0000 -0.1473407265
C   C13       1.0  0.29727  0.30714  0.82469  1.0000 -0.2129584617
C   C14       1.0  0.30714  0.82469  0.29727  1.0000 -0.2129584617
C   C15       1.0  0.82469  0.29727  0.30714  1.0000 -0.2129584617
C   C16       1.0  0.70273  0.69286  0.17531  1.0000 -0.2129584617
C   C17       1.0  0.69286  0.17531  0.70273  1.0000 -0.2129584617
C   C18       1.0  0.17531  0.70273  0.69286  1.0000 -0.2129584617
C   C19       1.0  0.36180  0.46233  0.92777  1.0000 0.3297073825
C   C20       1.0  0.46233  0.92777  0.36180  1.0000 0.3297073825
C   C21       1.0  0.92777  0.36180  0.46233  1.0000 0.3297073825
C   C22       1.0  0.63820  0.53767  0.07223  1.0000 0.3297073825
C   C23       1.0  0.53767  0.07223  0.63820  1.0000 0.3297073825
C   C24       1.0  0.07223  0.63820  0.53767  1.0000 0.3297073825
O   O1        1.0  0.44510  0.17544  0.82536  1.0000 -0.7031871494
O   O2        1.0  0.17544  0.82536  0.44510  1.0000 -0.7031871494
O   O3        1.0  0.82536  0.44510  0.17544  1.0000 -0.7031871494
O   O4        1.0  0.55490  0.82456  0.17464  1.0000 -0.7031871494
O   O5        1.0  0.82456  0.17464  0.55490  1.0000 -0.7031871494
O   O6        1.0  0.17464  0.55490  0.82456  1.0000 -0.7031871494
O   O7        1.0  0.22304  0.41396  0.85150  1.0000 -0.801095388
O   O8        1.0  0.41396  0.85150  0.22304  1.0000 -0.801095388
O   O9        1.0  0.85150  0.22304  0.41396  1.0000 -0.801095388
O   O10       1.0  0.77696  0.58604  0.14850  1.0000 -0.801095388
O   O11       1.0  0.58604  0.14850  0.77696  1.0000 -0.801095388
O   O12       1.0  0.14850  0.77696  0.58604  1.0000 -0.801095388
O   O13       1.0  0.14284  0.98242  0.60934  1.0000 -0.615552278
O   O14       1.0  0.98242  0.60934  0.14284  1.0000 -0.615552278
O   O15       1.0  0.60934  0.14284  0.98242  1.0000 -0.615552278
O   O16       1.0  0.85716  0.01758  0.39066  1.0000 -0.6143343167
O   O17       1.0  0.01758  0.39066  0.85716  1.0000 -0.6143343167
O   O18       1.0  0.39066  0.85716  0.01758  1.0000 -0.6143343167
