# DDEC6 charges by PACMAN v1.1 (https://github.com/mtap-research/PACMAN-charge/)
data_2016[Ni][neb]3[ASR]1
_chemical_formula_sum              "Ni4 H64 C72 N8 O16"
_cell_length_a       19.0344
_cell_length_b       19.0344
_cell_length_c       9.4516
_cell_angle_alpha    79.1294
_cell_angle_beta     100.871
_cell_angle_gamma    137.039

_symmetry_space_group_name_H-M    "P 1"
_symmetry_Int_Tables_number       1

loop_
  _symmetry_equiv_pos_as_xyz
  'x, y, z'

loop_
  _atom_site_type_symbol
  _atom_site_label
  _atom_site_symmetry_multiplicity
  _atom_site_fract_x
  _atom_site_fract_y
  _atom_site_fract_z
  _atom_site_occupancy
  _atom_site_charge
Ni  Ni1       1.0  0.84181  0.56967  0.83817  1.0000 0.7034560448
Ni  Ni2       1.0  0.56967  0.84181  0.66183  1.0000 0.7034560448
Ni  Ni3       1.0  0.15819  0.43033  0.16183  1.0000 0.7034560448
Ni  Ni4       1.0  0.43033  0.15819  0.33817  1.0000 0.7034560448
H   H1        1.0  0.02640  0.52360  0.22640  1.0000 0.1360282829
H   H2        1.0  0.52360  0.02640  0.27360  1.0000 0.1360282829
H   H3        1.0  0.97360  0.47640  0.77360  1.0000 0.1360282829
H   H4        1.0  0.47640  0.97360  0.72640  1.0000 0.1360282829
H   H5        1.0  0.26170  0.68310  0.91700  1.0000 0.1294548467
H   H6        1.0  0.68310  0.26170  0.58300  1.0000 0.1294548467
H   H7        1.0  0.73830  0.31690  0.08300  1.0000 0.1294548467
H   H8        1.0  0.31690  0.73830  0.41700  1.0000 0.1294548467
H   H9        1.0  0.14270  0.69530  0.83910  1.0000 0.1102362877
H   H10       1.0  0.69530  0.14270  0.66090  1.0000 0.1102362877
H   H11       1.0  0.85730  0.30470  0.16090  1.0000 0.1102362877
H   H12       1.0  0.30470  0.85730  0.33910  1.0000 0.1102362877
H   H13       1.0  0.97290  0.54190  0.99670  1.0000 0.1102362877
H   H14       1.0  0.54190  0.97290  0.50330  1.0000 0.1102362877
H   H15       1.0  0.02710  0.45810  0.00330  1.0000 0.1102362877
H   H16       1.0  0.45810  0.02710  0.49670  1.0000 0.1102362877
H   H17       1.0  0.16460  0.79160  0.57010  1.0000 0.1294548467
H   H18       1.0  0.79160  0.16460  0.92990  1.0000 0.1294548467
H   H19       1.0  0.83540  0.20840  0.42990  1.0000 0.1294548467
H   H20       1.0  0.20840  0.83540  0.07010  1.0000 0.1294548467
H   H21       1.0  0.30080  0.79300  0.65640  1.0000 0.1102362877
H   H22       1.0  0.79300  0.30080  0.84360  1.0000 0.1102362877
H   H23       1.0  0.69920  0.20700  0.34360  1.0000 0.1102362877
H   H24       1.0  0.20700  0.69920  0.15640  1.0000 0.1102362877
H   H25       1.0  0.80380  0.55200  0.14450  1.0000 0.1102362877
H   H26       1.0  0.55200  0.80380  0.35550  1.0000 0.1102362877
H   H27       1.0  0.19620  0.44800  0.85550  1.0000 0.1102362877
H   H28       1.0  0.44800  0.19620  0.64450  1.0000 0.1102362877
H   H29       1.0  0.84780  0.53000  0.37730  1.0000 0.1583056604
H   H30       1.0  0.53000  0.84780  0.12270  1.0000 0.1583056604
H   H31       1.0  0.15220  0.47000  0.62270  1.0000 0.1583056604
H   H32       1.0  0.47000  0.15220  0.87730  1.0000 0.1583056604
H   H33       1.0  0.75200  0.65020  0.85400  1.0000 0.1023761636
H   H34       1.0  0.65020  0.75200  0.64600  1.0000 0.1023761636
H   H35       1.0  0.24800  0.34980  0.14600  1.0000 0.1023761636
H   H36       1.0  0.34980  0.24800  0.35400  1.0000 0.1023761636
H   H37       1.0  0.03120  0.77960  0.94200  1.0000 0.1175328182
H   H38       1.0  0.77960  0.03120  0.55800  1.0000 0.1175328182
H   H39       1.0  0.96880  0.22040  0.05800  1.0000 0.1175328182
H   H40       1.0  0.22040  0.96880  0.44200  1.0000 0.1175328182
H   H41       1.0  0.08560  0.92020  0.01710  1.0000 0.1583056604
H   H42       1.0  0.92020  0.08560  0.48290  1.0000 0.1583056604
H   H43       1.0  0.91440  0.07980  0.98290  1.0000 0.1583056604
H   H44       1.0  0.07980  0.91440  0.51710  1.0000 0.1583056604
H   H45       1.0  0.90170  0.43890  0.52290  1.0000 0.1175328182
H   H46       1.0  0.43890  0.90170  0.97710  1.0000 0.1175328182
H   H47       1.0  0.09830  0.56110  0.47710  1.0000 0.1175328182
H   H48       1.0  0.56110  0.09830  0.02290  1.0000 0.1175328182
H   H49       1.0  0.99210  0.55750  0.53970  1.0000 0.1175328182
H   H50       1.0  0.55750  0.99210  0.96030  1.0000 0.1175328182
H   H51       1.0  0.00790  0.44250  0.46030  1.0000 0.1175328182
H   H52       1.0  0.44250  0.00790  0.03970  1.0000 0.1175328182
H   H53       1.0  0.79940  0.79080  0.92030  1.0000 0.1294548467
H   H54       1.0  0.79080  0.79940  0.57970  1.0000 0.1294548467
H   H55       1.0  0.20060  0.20920  0.07970  1.0000 0.1294548467
H   H56       1.0  0.20920  0.20060  0.42030  1.0000 0.1294548467
H   H57       1.0  0.02810  0.98230  0.13840  1.0000 0.1175328182
H   H58       1.0  0.98230  0.02810  0.36160  1.0000 0.1175328182
H   H59       1.0  0.97190  0.01770  0.86160  1.0000 0.1175328182
H   H60       1.0  0.01770  0.97190  0.63840  1.0000 0.1175328182
H   H61       1.0  0.91750  0.93530  0.08780  1.0000 0.1175328182
H   H62       1.0  0.93530  0.91750  0.41220  1.0000 0.1175328182
H   H63       1.0  0.08250  0.06470  0.91220  1.0000 0.1175328182
H   H64       1.0  0.06470  0.08250  0.58780  1.0000 0.1175328182
C   C1        1.0  0.98028  0.52832  0.21240  1.0000 -0.2088368939
C   C2        1.0  0.52832  0.98028  0.28760  1.0000 -0.2088368939
C   C3        1.0  0.01972  0.47168  0.78760  1.0000 -0.2088368939
C   C4        1.0  0.47168  0.01972  0.71240  1.0000 -0.2088368939
C   C5        1.0  0.29777  0.72183  0.83470  1.0000 -0.2283842664
C   C6        1.0  0.72183  0.29777  0.66530  1.0000 -0.2247634673
C   C7        1.0  0.70223  0.27817  0.16530  1.0000 -0.2283842664
C   C8        1.0  0.27817  0.70223  0.33470  1.0000 -0.2283842664
C   C9        1.0  0.94191  0.52369  0.33010  1.0000 0.1828737413
C   C10       1.0  0.52369  0.94191  0.16990  1.0000 0.1828737413
C   C11       1.0  0.05809  0.47631  0.66990  1.0000 0.1828737413
C   C12       1.0  0.47631  0.05809  0.83010  1.0000 0.1828737413
C   C13       1.0  0.17371  0.72889  0.75210  1.0000 -0.0571102913
C   C14       1.0  0.72889  0.17371  0.74790  1.0000 -0.0571102913
C   C15       1.0  0.82629  0.27111  0.24790  1.0000 -0.0571102913
C   C16       1.0  0.27111  0.82629  0.25210  1.0000 -0.0571102913
C   C17       1.0  0.94823  0.54017  0.07480  1.0000 0.0799227396
C   C18       1.0  0.54017  0.94823  0.42520  1.0000 0.0799227396
C   C19       1.0  0.05177  0.45983  0.92520  1.0000 0.0799227396
C   C20       1.0  0.45983  0.05177  0.57480  1.0000 0.0799227396
C   C21       1.0  0.13032  0.74988  0.65270  1.0000 -0.2564095352
C   C22       1.0  0.74988  0.13032  0.84730  1.0000 -0.2549220616
C   C23       1.0  0.86968  0.25012  0.34730  1.0000 -0.2564095352
C   C24       1.0  0.25012  0.86968  0.15270  1.0000 -0.2564095352
C   C25       1.0  0.26443  0.75317  0.73820  1.0000 -0.0728115061
C   C26       1.0  0.75317  0.26443  0.76180  1.0000 -0.0728115061
C   C27       1.0  0.73557  0.24683  0.26180  1.0000 -0.0728115061
C   C28       1.0  0.24683  0.73557  0.23820  1.0000 -0.0728115061
C   C29       1.0  0.02937  0.70943  0.66870  1.0000 0.5968032932
C   C30       1.0  0.70943  0.02937  0.83130  1.0000 0.5968032932
C   C31       1.0  0.97063  0.29057  0.33130  1.0000 0.5968032932
C   C32       1.0  0.29057  0.97063  0.16870  1.0000 0.5968032932
C   C33       1.0  0.84863  0.54557  0.16170  1.0000 0.0799227396
C   C34       1.0  0.54557  0.84863  0.33830  1.0000 0.0799227396
C   C35       1.0  0.15137  0.45443  0.83830  1.0000 0.0799227396
C   C36       1.0  0.45443  0.15137  0.66170  1.0000 0.0799227396
C   C37       1.0  0.39002  0.74418  0.82190  1.0000 0.5968032932
C   C38       1.0  0.74418  0.39002  0.67810  1.0000 0.5968032932
C   C39       1.0  0.60998  0.25582  0.17810  1.0000 0.5968032932
C   C40       1.0  0.25582  0.60998  0.32190  1.0000 0.5968032932
C   C41       1.0  0.87488  0.53272  0.30180  1.0000 -0.172283485
C   C42       1.0  0.53272  0.87488  0.19820  1.0000 -0.172283485
C   C43       1.0  0.12512  0.46728  0.69820  1.0000 -0.172283485
C   C44       1.0  0.46728  0.12512  0.80180  1.0000 -0.172283485
C   C45       1.0  0.82007  0.70533  0.88800  1.0000 0.0598554747
C   C46       1.0  0.70533  0.82007  0.61200  1.0000 0.0598554747
C   C47       1.0  0.17993  0.29467  0.11200  1.0000 0.0598554747
C   C48       1.0  0.29467  0.17993  0.38800  1.0000 0.0598554747
C   C49       1.0  0.98317  0.78083  0.94050  1.0000 0.0799227396
C   C50       1.0  0.78083  0.98317  0.55950  1.0000 0.0851872122
C   C51       1.0  0.01683  0.21917  0.05950  1.0000 0.0851872122
C   C52       1.0  0.21917  0.01683  0.44050  1.0000 0.0851872122
C   C53       1.0  0.01640  0.86540  0.98650  1.0000 -0.1977027575
C   C54       1.0  0.86540  0.01640  0.51350  1.0000 -0.1977027575
C   C55       1.0  0.98360  0.13460  0.01350  1.0000 -0.1977027575
C   C56       1.0  0.13460  0.98360  0.48650  1.0000 -0.1977027575
C   C57       1.0  0.96654  0.50326  0.48490  1.0000 -0.2088368939
C   C58       1.0  0.50326  0.96654  0.01510  1.0000 -0.2088368939
C   C59       1.0  0.03346  0.49674  0.51510  1.0000 -0.2088368939
C   C60       1.0  0.49674  0.03346  0.98490  1.0000 -0.2088368939
C   C61       1.0  0.84747  0.78873  0.93020  1.0000 -0.2088368939
C   C62       1.0  0.78873  0.84747  0.56980  1.0000 -0.2088368939
C   C63       1.0  0.15253  0.21127  0.06980  1.0000 -0.2088368939
C   C64       1.0  0.21127  0.15253  0.43020  1.0000 -0.2088368939
C   C65       1.0  0.94790  0.86970  0.98770  1.0000 0.166699004
C   C66       1.0  0.86970  0.94790  0.51230  1.0000 0.166699004
C   C67       1.0  0.05210  0.13030  0.01230  1.0000 0.166699004
C   C68       1.0  0.13030  0.05210  0.48770  1.0000 0.166699004
C   C69       1.0  0.97810  0.95890  0.05610  1.0000 -0.235165059
C   C70       1.0  0.95890  0.97810  0.44390  1.0000 -0.235165059
C   C71       1.0  0.02190  0.04110  0.94390  1.0000 -0.235165059
C   C72       1.0  0.04110  0.02190  0.55610  1.0000 -0.235165059
N   N1        1.0  0.88400  0.54920  0.04820  1.0000 -0.2088368939
N   N2        1.0  0.54920  0.88400  0.45180  1.0000 -0.2088368939
N   N3        1.0  0.11600  0.45080  0.95180  1.0000 -0.2088368939
N   N4        1.0  0.45080  0.11600  0.54820  1.0000 -0.2088368939
N   N5        1.0  0.88591  0.69989  0.89340  1.0000 -0.2283842664
N   N6        1.0  0.69989  0.88591  0.60660  1.0000 -0.2283842664
N   N7        1.0  0.11409  0.30011  0.10660  1.0000 -0.2283842664
N   N8        1.0  0.30011  0.11409  0.39340  1.0000 -0.2283842664
O   O1        1.0  0.98786  0.65794  0.78420  1.0000 -0.5447094435
O   O2        1.0  0.65794  0.98786  0.71580  1.0000 -0.5457142841
O   O3        1.0  0.01214  0.34206  0.21580  1.0000 -0.5457142841
O   O4        1.0  0.34206  0.01214  0.28420  1.0000 -0.5457142841
O   O5        1.0  0.44227  0.80153  0.71460  1.0000 -0.5457142841
O   O6        1.0  0.80153  0.44227  0.78540  1.0000 -0.5457142841
O   O7        1.0  0.55773  0.19847  0.28540  1.0000 -0.5457142841
O   O8        1.0  0.19847  0.55773  0.21460  1.0000 -0.5457142841
O   O9        1.0  0.40895  0.70485  0.92010  1.0000 -0.5596753353
O   O10       1.0  0.70485  0.40895  0.57990  1.0000 -0.5596753353
O   O11       1.0  0.59105  0.29515  0.07990  1.0000 -0.5596753353
O   O12       1.0  0.29515  0.59105  0.42010  1.0000 -0.5596753353
O   O13       1.0  0.99132  0.72748  0.56530  1.0000 -0.5890226061
O   O14       1.0  0.72748  0.99132  0.93470  1.0000 -0.5890226061
O   O15       1.0  0.00868  0.27252  0.43470  1.0000 -0.5890226061
O   O16       1.0  0.27252  0.00868  0.06530  1.0000 -0.5890226061
