# DDEC6 charges by PACMAN v1.1 (https://github.com/mtap-research/PACMAN-charge/)
data_2016[Tb][nan]3[ASR]2
_chemical_formula_sum              "Tb4 H44 C84 O24"
_cell_length_a       17.9011
_cell_length_b       17.9011
_cell_length_c       14.049
_cell_angle_alpha    79.5311
_cell_angle_beta     100.469
_cell_angle_gamma    135.446

_symmetry_space_group_name_H-M    "P 1"
_symmetry_Int_Tables_number       1

loop_
  _symmetry_equiv_pos_as_xyz
  'x, y, z'

loop_
  _atom_site_type_symbol
  _atom_site_label
  _atom_site_symmetry_multiplicity
  _atom_site_fract_x
  _atom_site_fract_y
  _atom_site_fract_z
  _atom_site_occupancy
  _atom_site_charge
Tb  Tb1       1.0  0.89830  0.51388  0.95476  1.0000 2.0525144877
Tb  Tb2       1.0  0.51388  0.89830  0.54524  1.0000 2.0525144877
Tb  Tb3       1.0  0.10170  0.48612  0.04524  1.0000 2.0525144877
Tb  Tb4       1.0  0.48612  0.10170  0.45476  1.0000 2.0525144877
H   H1        1.0  0.68860  0.21900  0.20560  1.0000 0.1361249329
H   H2        1.0  0.21900  0.68860  0.29440  1.0000 0.1361249329
H   H3        1.0  0.31140  0.78100  0.79440  1.0000 0.1361249329
H   H4        1.0  0.78100  0.31140  0.70560  1.0000 0.1361249329
H   H5        1.0  0.66030  0.97370  0.28660  1.0000 0.1102490955
H   H6        1.0  0.97370  0.66030  0.21340  1.0000 0.1102490955
H   H7        1.0  0.33970  0.02630  0.71340  1.0000 0.1102490955
H   H8        1.0  0.02630  0.33970  0.78660  1.0000 0.1102490955
H   H9        1.0  0.85860  0.19640  0.08520  1.0000 0.1267675848
H   H10       1.0  0.19640  0.85860  0.41480  1.0000 0.1267675848
H   H11       1.0  0.14140  0.80360  0.91480  1.0000 0.1267675848
H   H12       1.0  0.80360  0.14140  0.58520  1.0000 0.1267675848
H   H13       1.0  0.63830  0.86450  0.19910  1.0000 0.1102490955
H   H14       1.0  0.86450  0.63830  0.30090  1.0000 0.1102490955
H   H15       1.0  0.36170  0.13550  0.80090  1.0000 0.1102490955
H   H16       1.0  0.13550  0.36170  0.69910  1.0000 0.1102490955
H   H17       1.0  0.66720  0.76500  0.16790  1.0000 0.1102490955
H   H18       1.0  0.76500  0.66720  0.33210  1.0000 0.1102490955
H   H19       1.0  0.33280  0.23500  0.83210  1.0000 0.1102490955
H   H20       1.0  0.23500  0.33280  0.66790  1.0000 0.1102490955
H   H21       1.0  0.96210  0.03190  0.09800  1.0000 0.1029240599
H   H22       1.0  0.03190  0.96210  0.40200  1.0000 0.1029240599
H   H23       1.0  0.03790  0.96810  0.90200  1.0000 0.1029240599
H   H24       1.0  0.96810  0.03790  0.59800  1.0000 0.1029240599
H   H25       1.0  0.93440  0.13280  0.13290  1.0000 0.1194264334
H   H26       1.0  0.13280  0.93440  0.36710  1.0000 0.1194264334
H   H27       1.0  0.06560  0.86720  0.86710  1.0000 0.1194264334
H   H28       1.0  0.86720  0.06560  0.63290  1.0000 0.1194264334
H   H29       1.0  0.67780  0.69020  0.07760  1.0000 0.1102490955
H   H30       1.0  0.69020  0.67780  0.42240  1.0000 0.1102490955
H   H31       1.0  0.32220  0.30980  0.92240  1.0000 0.1102490955
H   H32       1.0  0.30980  0.32220  0.57760  1.0000 0.1102490955
H   H33       1.0  0.69990  0.58790  0.03780  1.0000 0.1194264334
H   H34       1.0  0.58790  0.69990  0.46220  1.0000 0.1194264334
H   H35       1.0  0.30010  0.41210  0.96220  1.0000 0.1194264334
H   H36       1.0  0.41210  0.30010  0.53780  1.0000 0.1194264334
H   H37       1.0  0.01310  0.83230  0.06700  1.0000 0.1194264334
H   H38       1.0  0.83230  0.01310  0.43300  1.0000 0.1194264334
H   H39       1.0  0.98690  0.16770  0.93300  1.0000 0.1194264334
H   H40       1.0  0.16770  0.98690  0.56700  1.0000 0.1194264334
H   H41       1.0  0.99290  0.93370  0.11550  1.0000 0.1102490955
H   H42       1.0  0.93370  0.99290  0.38450  1.0000 0.1102490955
H   H43       1.0  0.00710  0.06630  0.88450  1.0000 0.1102490955
H   H44       1.0  0.06630  0.00710  0.61550  1.0000 0.1102490955
C   C1        1.0  0.82846  0.32314  0.07400  1.0000 0.6293477358
C   C2        1.0  0.32314  0.82846  0.42600  1.0000 0.6293477358
C   C3        1.0  0.17154  0.67686  0.92600  1.0000 0.6293477358
C   C4        1.0  0.67686  0.17154  0.57400  1.0000 0.6293477358
C   C5        1.0  0.78141  0.22359  0.13640  1.0000 -0.0215291849
C   C6        1.0  0.22359  0.78141  0.36360  1.0000 -0.0215291849
C   C7        1.0  0.21859  0.77641  0.86360  1.0000 -0.0215291849
C   C8        1.0  0.77641  0.21859  0.63640  1.0000 -0.0215291849
C   C9        1.0  0.70842  0.18398  0.20110  1.0000 -0.0984709346
C   C10       1.0  0.18398  0.70842  0.29890  1.0000 -0.0984709346
C   C11       1.0  0.29158  0.81602  0.79890  1.0000 -0.0984709346
C   C12       1.0  0.81602  0.29158  0.70110  1.0000 -0.0984709346
C   C13       1.0  0.66512  0.09168  0.25910  1.0000 -0.0215291849
C   C14       1.0  0.09168  0.66512  0.24090  1.0000 -0.0215291849
C   C15       1.0  0.33488  0.90832  0.74090  1.0000 -0.0215291849
C   C16       1.0  0.90832  0.33488  0.75910  1.0000 -0.0215291849
C   C17       1.0  0.69098  0.03662  0.24820  1.0000 -0.1419585648
C   C18       1.0  0.03662  0.69098  0.25180  1.0000 -0.1419585648
C   C19       1.0  0.30902  0.96338  0.75180  1.0000 -0.1419585648
C   C20       1.0  0.96338  0.30902  0.74820  1.0000 -0.1419585648
C   C21       1.0  0.76085  0.07295  0.18200  1.0000 0.0607972087
C   C22       1.0  0.07295  0.76085  0.31800  1.0000 0.0607972087
C   C23       1.0  0.23915  0.92705  0.81800  1.0000 0.0607972087
C   C24       1.0  0.92705  0.23915  0.68200  1.0000 0.0607972087
C   C25       1.0  0.80828  0.16852  0.12780  1.0000 -0.1505224837
C   C26       1.0  0.16852  0.80828  0.37220  1.0000 -0.1505224837
C   C27       1.0  0.19172  0.83148  0.87220  1.0000 -0.1505224837
C   C28       1.0  0.83148  0.19172  0.62780  1.0000 -0.1505224837
C   C29       1.0  0.59216  0.05164  0.33570  1.0000 0.6442763151
C   C30       1.0  0.05164  0.59216  0.16430  1.0000 0.6442763151
C   C31       1.0  0.40784  0.94836  0.66430  1.0000 0.6442763151
C   C32       1.0  0.94836  0.40784  0.83570  1.0000 0.6442763151
C   C33       1.0  0.78349  0.01071  0.16680  1.0000 0.0690478662
C   C34       1.0  0.01071  0.78349  0.33320  1.0000 0.0690478662
C   C35       1.0  0.21651  0.98929  0.83320  1.0000 0.0690478662
C   C36       1.0  0.98929  0.21651  0.66680  1.0000 0.0690478662
C   C37       1.0  0.70366  0.89894  0.17840  1.0000 -0.1419585648
C   C38       1.0  0.89894  0.70366  0.32160  1.0000 -0.1419585648
C   C39       1.0  0.29634  0.10106  0.82160  1.0000 -0.1419585648
C   C40       1.0  0.10106  0.29634  0.67840  1.0000 -0.1419585648
C   C41       1.0  0.72118  0.83902  0.15930  1.0000 -0.1419585648
C   C42       1.0  0.83902  0.72118  0.34070  1.0000 -0.1419585648
C   C43       1.0  0.27882  0.16098  0.84070  1.0000 -0.1419585648
C   C44       1.0  0.16098  0.27882  0.65930  1.0000 -0.1419585648
C   C45       1.0  0.81461  0.88559  0.12860  1.0000 0.0607972087
C   C46       1.0  0.88559  0.81461  0.37140  1.0000 0.0607972087
C   C47       1.0  0.18539  0.11441  0.87140  1.0000 0.0607972087
C   C48       1.0  0.11441  0.18539  0.62860  1.0000 0.0607972087
C   C49       1.0  0.89668  0.99792  0.11830  1.0000 -0.1505224837
C   C50       1.0  0.99792  0.89668  0.38170  1.0000 -0.1505224837
C   C51       1.0  0.10332  0.00208  0.88170  1.0000 -0.1505224837
C   C52       1.0  0.00208  0.10332  0.61830  1.0000 -0.1505224837
C   C53       1.0  0.87946  0.05874  0.13870  1.0000 -0.1419585648
C   C54       1.0  0.05874  0.87946  0.36130  1.0000 -0.1419585648
C   C55       1.0  0.12054  0.94126  0.86130  1.0000 -0.1419585648
C   C56       1.0  0.94126  0.12054  0.63870  1.0000 -0.1419585648
C   C57       1.0  0.83110  0.82190  0.09960  1.0000 0.0690478662
C   C58       1.0  0.82190  0.83110  0.40040  1.0000 0.0690478662
C   C59       1.0  0.16890  0.17810  0.90040  1.0000 0.0690478662
C   C60       1.0  0.17810  0.16890  0.59960  1.0000 0.0690478662
C   C61       1.0  0.74650  0.72010  0.07620  1.0000 -0.1505224837
C   C62       1.0  0.72010  0.74650  0.42380  1.0000 -0.1505224837
C   C63       1.0  0.25350  0.27990  0.92380  1.0000 -0.1505224837
C   C64       1.0  0.27990  0.25350  0.57620  1.0000 -0.1505224837
C   C65       1.0  0.75960  0.65900  0.05010  1.0000 -0.0984709346
C   C66       1.0  0.65900  0.75960  0.44990  1.0000 -0.0984709346
C   C67       1.0  0.24040  0.34100  0.94990  1.0000 -0.0984709346
C   C68       1.0  0.34100  0.24040  0.55010  1.0000 -0.0984709346
C   C69       1.0  0.85972  0.70228  0.04240  1.0000 -0.0268808531
C   C70       1.0  0.70228  0.85972  0.45760  1.0000 -0.0268808531
C   C71       1.0  0.14028  0.29772  0.95760  1.0000 -0.0268808531
C   C72       1.0  0.29772  0.14028  0.54240  1.0000 -0.0268808531
C   C73       1.0  0.94475  0.80305  0.06850  1.0000 -0.0984709346
C   C74       1.0  0.80305  0.94475  0.43150  1.0000 -0.0984709346
C   C75       1.0  0.05525  0.19695  0.93150  1.0000 -0.0984709346
C   C76       1.0  0.19695  0.05525  0.56850  1.0000 -0.0984709346
C   C77       1.0  0.93307  0.86473  0.09760  1.0000 -0.1602315663
C   C78       1.0  0.86473  0.93307  0.40240  1.0000 -0.1602315663
C   C79       1.0  0.06693  0.13527  0.90240  1.0000 -0.1602315663
C   C80       1.0  0.13527  0.06693  0.59760  1.0000 -0.1602315663
C   C81       1.0  0.87296  0.63804  0.00810  1.0000 0.5638590695
C   C82       1.0  0.63804  0.87296  0.49190  1.0000 0.5638590695
C   C83       1.0  0.12704  0.36196  0.99190  1.0000 0.5638590695
C   C84       1.0  0.36196  0.12704  0.50810  1.0000 0.5638590695
O   O1        1.0  0.77620  0.34680  0.05130  1.0000 -0.5897475539
O   O2        1.0  0.34680  0.77620  0.44870  1.0000 -0.5897475539
O   O3        1.0  0.22380  0.65320  0.94870  1.0000 -0.5897475539
O   O4        1.0  0.65320  0.22380  0.55130  1.0000 -0.5897475539
O   O5        1.0  0.92108  0.38272  0.04440  1.0000 -0.7621884106
O   O6        1.0  0.38272  0.92108  0.45560  1.0000 -0.7621884106
O   O7        1.0  0.07892  0.61728  0.95560  1.0000 -0.7621884106
O   O8        1.0  0.61728  0.07892  0.54440  1.0000 -0.7621884106
O   O9        1.0  0.96261  0.68679  0.98170  1.0000 -0.6194082258
O   O10       1.0  0.68679  0.96261  0.51830  1.0000 -0.6194082258
O   O11       1.0  0.03739  0.31321  0.01830  1.0000 -0.6194082258
O   O12       1.0  0.31321  0.03739  0.48170  1.0000 -0.6194082258
O   O13       1.0  0.79732  0.54008  0.00660  1.0000 -0.6040350853
O   O14       1.0  0.54008  0.79732  0.49340  1.0000 -0.6040350853
O   O15       1.0  0.20268  0.45992  0.99340  1.0000 -0.6040350853
O   O16       1.0  0.45992  0.20268  0.50660  1.0000 -0.6040350853
O   O17       1.0  0.55113  0.96507  0.38230  1.0000 -0.6288216768
O   O18       1.0  0.96507  0.55113  0.11770  1.0000 -0.6288216768
O   O19       1.0  0.44887  0.03493  0.61770  1.0000 -0.6288216768
O   O20       1.0  0.03493  0.44887  0.88230  1.0000 -0.6288216768
O   O21       1.0  0.57600  0.10780  0.34470  1.0000 -0.6758428572
O   O22       1.0  0.10780  0.57600  0.15530  1.0000 -0.6758428572
O   O23       1.0  0.42400  0.89220  0.65530  1.0000 -0.6758428572
O   O24       1.0  0.89220  0.42400  0.84470  1.0000 -0.6758428572
