# DDEC6 charges by PACMAN v1.1 (https://github.com/mtap-research/PACMAN-charge/)
data_2016[Cu][bey]2[ASR]1
_chemical_formula_sum              "Cu2 H32 C54 N12 O12"
_cell_length_a       10.4923
_cell_length_b       12.858
_cell_length_c       15.332
_cell_angle_alpha    91.11
_cell_angle_beta     102.696
_cell_angle_gamma    111.711

_symmetry_space_group_name_H-M    "P 1"
_symmetry_Int_Tables_number       1

loop_
  _symmetry_equiv_pos_as_xyz
  'x, y, z'

loop_
  _atom_site_type_symbol
  _atom_site_label
  _atom_site_symmetry_multiplicity
  _atom_site_fract_x
  _atom_site_fract_y
  _atom_site_fract_z
  _atom_site_occupancy
  _atom_site_charge
Cu  Cu1       1.0  0.61022  0.75610  0.79037  1.0000 0.6864553131
Cu  Cu2       1.0  0.38978  0.24390  0.20963  1.0000 0.6864553131
H   H1        1.0  0.20240  0.09680  0.47330  1.0000 0.1689819656
H   H2        1.0  0.79760  0.90320  0.52670  1.0000 0.1689819656
H   H3        1.0  0.49720  0.08660  0.87550  1.0000 0.1515864111
H   H4        1.0  0.50280  0.91340  0.12450  1.0000 0.1515864111
H   H5        1.0  0.43490  0.05750  0.58480  1.0000 0.1573390998
H   H6        1.0  0.56510  0.94250  0.41520  1.0000 0.1573390998
H   H7        1.0  0.54540  0.39250  0.58330  1.0000 0.1324024436
H   H8        1.0  0.45460  0.60750  0.41670  1.0000 0.1324024436
H   H9        1.0  0.65690  0.26630  0.81310  1.0000 0.1689819656
H   H10       1.0  0.34310  0.73370  0.18690  1.0000 0.1689819656
H   H11       1.0  0.53700  0.52920  0.68280  1.0000 0.1094405241
H   H12       1.0  0.46300  0.47080  0.31720  1.0000 0.1094405241
H   H13       1.0  0.82240  0.46210  0.86380  1.0000 0.1515864111
H   H14       1.0  0.17760  0.53790  0.13620  1.0000 0.1515864111
H   H15       1.0  0.83260  0.65010  0.90680  1.0000 0.1515864111
H   H16       1.0  0.16740  0.34990  0.09320  1.0000 0.1515864111
H   H17       1.0  0.15550  0.11830  0.31250  1.0000 0.1515864111
H   H18       1.0  0.84450  0.88170  0.68750  1.0000 0.1515864111
H   H19       1.0  0.55560  0.30530  0.41780  1.0000 0.1208444573
H   H20       1.0  0.44440  0.69470  0.58220  1.0000 0.1208444573
H   H21       1.0  0.58370  0.95200  0.67200  1.0000 0.1040904634
H   H22       1.0  0.41630  0.04800  0.32800  1.0000 0.1040904634
H   H23       1.0  0.50960  0.90520  0.91110  1.0000 0.1515864111
H   H24       1.0  0.49040  0.09480  0.08890  1.0000 0.1515864111
H   H25       1.0  0.83900  0.98470  0.11400  1.0000 0.1324024436
H   H26       1.0  0.16100  0.01530  0.88600  1.0000 0.1324024436
H   H27       1.0  0.75650  0.80860  0.32140  1.0000 0.1094405241
H   H28       1.0  0.24350  0.19140  0.67860  1.0000 0.1094405241
H   H29       1.0  0.64050  0.64560  0.22290  1.0000 0.1094405241
H   H30       1.0  0.35950  0.35440  0.77710  1.0000 0.1094405241
H   H31       1.0  0.28170  0.45840  0.90330  1.0000 0.1324024436
H   H32       1.0  0.71830  0.54160  0.09670  1.0000 0.1324024436
C   C1        1.0  0.26700  0.14060  0.44270  1.0000 -0.0501688458
C   C2        1.0  0.73300  0.85940  0.55730  1.0000 -0.0501688458
C   C3        1.0  0.51610  0.03800  0.83930  1.0000 -0.0501688458
C   C4        1.0  0.48390  0.96200  0.16070  1.0000 -0.0501688458
C   C5        1.0  0.47870  0.12970  0.61520  1.0000 -0.2469233238
C   C6        1.0  0.52130  0.87030  0.38480  1.0000 -0.2469233238
C   C7        1.0  0.54510  0.14760  0.70630  1.0000 0.2240848876
C   C8        1.0  0.45490  0.85240  0.29370  1.0000 0.2240848876
C   C9        1.0  0.47980  0.22280  0.57107  1.0000 0.2109074183
C   C10       1.0  0.52020  0.77720  0.42893  1.0000 0.2109074183
C   C11       1.0  0.54450  0.33100  0.61456  1.0000 -0.280648347
C   C12       1.0  0.45550  0.66900  0.38544  1.0000 -0.280648347
C   C13       1.0  0.61140  0.25530  0.75230  1.0000 -0.2185620926
C   C14       1.0  0.38860  0.74470  0.24770  1.0000 -0.2185620926
C   C15       1.0  0.60820  0.34600  0.70590  1.0000 0.2109074183
C   C16       1.0  0.39180  0.65400  0.29410  1.0000 0.2109074183
C   C17       1.0  0.60930  0.53630  0.73300  1.0000 0.0705007464
C   C18       1.0  0.39070  0.46370  0.26700  1.0000 0.0705007464
C   C19       1.0  0.76680  0.49800  0.83270  1.0000 -0.068315126
C   C20       1.0  0.23320  0.50200  0.16730  1.0000 -0.068315126
C   C21       1.0  0.77170  0.60210  0.85610  1.0000 0.0104197939
C   C22       1.0  0.22830  0.39790  0.14390  1.0000 0.0104197939
C   C23       1.0  0.24210  0.15290  0.35410  1.0000 -0.0235799855
C   C24       1.0  0.75790  0.84710  0.64590  1.0000 -0.0235799855
C   C25       1.0  0.46230  0.25590  0.41100  1.0000 0.0705007464
C   C26       1.0  0.53770  0.74410  0.58900  1.0000 0.0705007464
C   C27       1.0  0.56440  0.96260  0.72710  1.0000 0.0902084671
C   C28       1.0  0.43560  0.03740  0.27290  1.0000 0.0902084671
C   C29       1.0  0.52360  0.93770  0.85860  1.0000 0.0104197939
C   C30       1.0  0.47640  0.06230  0.14140  1.0000 0.0104197939
C   C31       1.0  0.72650  0.83090  0.97720  1.0000 0.5406573154
C   C32       1.0  0.27350  0.16910  0.02280  1.0000 0.5406573154
C   C33       1.0  0.72370  0.81950  0.07473  1.0000 -0.0501688458
C   C34       1.0  0.27630  0.18050  0.92527  1.0000 -0.0501688458
C   C35       1.0  0.79460  0.91660  0.13510  1.0000 -0.0881324932
C   C36       1.0  0.20540  0.08340  0.86490  1.0000 -0.0881324932
C   C37       1.0  0.80030  0.91380  0.22670  1.0000 -0.0235799855
C   C38       1.0  0.19970  0.08620  0.77330  1.0000 -0.0302695551
C   C39       1.0  0.86050  0.02220  0.28640  1.0000 0.5290953852
C   C40       1.0  0.13950  0.97780  0.71360  1.0000 0.5290953852
C   C41       1.0  0.74600  0.81190  0.25980  1.0000 -0.1036958508
C   C42       1.0  0.25400  0.18810  0.74020  1.0000 -0.1036958508
C   C43       1.0  0.67570  0.71450  0.20040  1.0000 -0.1574353241
C   C44       1.0  0.32430  0.28550  0.79960  1.0000 -0.1574353241
C   C45       1.0  0.65660  0.71740  0.10731  1.0000 0.0705007464
C   C46       1.0  0.34340  0.28260  0.89269  1.0000 0.0705007464
C   C47       1.0  0.57240  0.60700  0.05048  1.0000 0.0490657855
C   C48       1.0  0.42760  0.39300  0.94952  1.0000 0.0490657855
C   C49       1.0  0.43900  0.58030  0.99260  1.0000 -0.0302695551
C   C50       1.0  0.56100  0.41970  0.00740  1.0000 -0.0302695551
C   C51       1.0  0.36960  0.47470  0.94260  1.0000 -0.1503571086
C   C52       1.0  0.63040  0.52530  0.05740  1.0000 -0.1503571086
C   C53       1.0  0.36630  0.66130  0.98350  1.0000 0.5492022969
C   C54       1.0  0.63370  0.33870  0.01650  1.0000 0.5492022969
N   N1        1.0  0.67290  0.62580  0.79343  1.0000 -0.2469233238
N   N2        1.0  0.32710  0.37420  0.20657  1.0000 -0.2448675744
N   N3        1.0  0.66280  0.45610  0.75345  1.0000 0.0104197939
N   N4        1.0  0.33720  0.54390  0.24655  1.0000 0.0104197939
N   N5        1.0  0.40730  0.20590  0.47840  1.0000 0.0104197939
N   N6        1.0  0.59270  0.79410  0.52160  1.0000 0.0104197939
N   N7        1.0  0.54200  0.05360  0.75508  1.0000 0.0104197939
N   N8        1.0  0.45800  0.94640  0.24492  1.0000 0.0104197939
N   N9        1.0  0.36550  0.22480  0.33462  1.0000 -0.280648347
N   N10       1.0  0.63450  0.77520  0.66538  1.0000 -0.280648347
N   N11       1.0  0.55550  0.89090  0.78817  1.0000 -0.266478505
N   N12       1.0  0.44450  0.10910  0.21183  1.0000 -0.266478505
O   O1        1.0  0.87360  0.01010  0.37203  1.0000 -0.6099982522
O   O2        1.0  0.12640  0.98990  0.62797  1.0000 -0.6099982522
O   O3        1.0  0.89380  0.11410  0.25771  1.0000 -0.520289626
O   O4        1.0  0.10620  0.88590  0.74229  1.0000 -0.520289626
O   O5        1.0  0.39370  0.73720  0.04045  1.0000 -0.535829749
O   O6        1.0  0.60630  0.26280  0.95955  1.0000 -0.535829749
O   O7        1.0  0.26560  0.63890  0.90898  1.0000 -0.5605709814
O   O8        1.0  0.73440  0.36110  0.09102  1.0000 -0.5605709814
O   O9        1.0  0.62650  0.75659  0.91925  1.0000 -0.5129802488
O   O10       1.0  0.37350  0.24341  0.08075  1.0000 -0.5129802488
O   O11       1.0  0.82410  0.90990  0.96050  1.0000 -0.4798427336
O   O12       1.0  0.17590  0.09010  0.03950  1.0000 -0.4798427336
