# DDEC6 charges by PACMAN v1.1 (https://github.com/mtap-research/PACMAN-charge/)
data_2016[Cu][nbo]3[ASR]39
_chemical_formula_sum              "Cu6 H90 C132 O30"
_cell_length_a       21.5917
_cell_length_b       21.5917
_cell_length_c       21.5917
_cell_angle_alpha    109.052
_cell_angle_beta     109.052
_cell_angle_gamma    109.052

_symmetry_space_group_name_H-M    "P 1"
_symmetry_Int_Tables_number       1

loop_
  _symmetry_equiv_pos_as_xyz
  'x, y, z'

loop_
  _atom_site_type_symbol
  _atom_site_label
  _atom_site_symmetry_multiplicity
  _atom_site_fract_x
  _atom_site_fract_y
  _atom_site_fract_z
  _atom_site_occupancy
  _atom_site_charge
Cu  Cu1       1.0  0.42877  0.95238  0.95238  1.0000 0.858344256
Cu  Cu2       1.0  0.95238  0.95238  0.42877  1.0000 0.858344256
Cu  Cu3       1.0  0.95238  0.42877  0.95238  1.0000 0.858344256
Cu  Cu4       1.0  0.04762  0.57123  0.04762  1.0000 0.858344256
Cu  Cu5       1.0  0.04762  0.04762  0.57123  1.0000 0.858344256
Cu  Cu6       1.0  0.57123  0.04762  0.04762  1.0000 0.858344256
H   H1        1.0  0.65130  0.06800  0.89170  1.0000 0.1283725958
H   H2        1.0  0.06800  0.89170  0.65130  1.0000 0.1283725958
H   H3        1.0  0.89170  0.65130  0.06800  1.0000 0.1283725958
H   H4        1.0  0.93200  0.34870  0.10830  1.0000 0.1283725958
H   H5        1.0  0.10830  0.93200  0.34870  1.0000 0.1283725958
H   H6        1.0  0.34870  0.10830  0.93200  1.0000 0.1283725958
H   H7        1.0  0.34870  0.93200  0.10830  1.0000 0.1283725958
H   H8        1.0  0.93200  0.10830  0.34870  1.0000 0.1283725958
H   H9        1.0  0.10830  0.34870  0.93200  1.0000 0.1283725958
H   H10       1.0  0.06800  0.65130  0.89170  1.0000 0.1283725958
H   H11       1.0  0.89170  0.06800  0.65130  1.0000 0.1283725958
H   H12       1.0  0.65130  0.89170  0.06800  1.0000 0.1283725958
H   H13       1.0  0.67220  0.06360  0.79150  1.0000 0.1240763941
H   H14       1.0  0.06360  0.79150  0.67220  1.0000 0.1240763941
H   H15       1.0  0.79150  0.67220  0.06360  1.0000 0.1240763941
H   H16       1.0  0.93640  0.32780  0.20850  1.0000 0.1240763941
H   H17       1.0  0.20850  0.93640  0.32780  1.0000 0.1240763941
H   H18       1.0  0.32780  0.20850  0.93640  1.0000 0.1240763941
H   H19       1.0  0.32780  0.93640  0.20850  1.0000 0.1240763941
H   H20       1.0  0.93640  0.20850  0.32780  1.0000 0.1240763941
H   H21       1.0  0.20850  0.32780  0.93640  1.0000 0.1240763941
H   H22       1.0  0.06360  0.67220  0.79150  1.0000 0.1240763941
H   H23       1.0  0.79150  0.06360  0.67220  1.0000 0.1240763941
H   H24       1.0  0.67220  0.79150  0.06360  1.0000 0.1240763941
H   H25       1.0  0.45350  0.91560  0.64700  1.0000 0.1125093928
H   H26       1.0  0.91560  0.64700  0.45350  1.0000 0.1125093928
H   H27       1.0  0.64700  0.45350  0.91560  1.0000 0.1125093928
H   H28       1.0  0.08440  0.54650  0.35300  1.0000 0.1125093928
H   H29       1.0  0.35300  0.08440  0.54650  1.0000 0.1125093928
H   H30       1.0  0.54650  0.35300  0.08440  1.0000 0.1125093928
H   H31       1.0  0.54650  0.08440  0.35300  1.0000 0.1125093928
H   H32       1.0  0.08440  0.35300  0.54650  1.0000 0.1125093928
H   H33       1.0  0.35300  0.54650  0.08440  1.0000 0.1125093928
H   H34       1.0  0.91560  0.45350  0.64700  1.0000 0.1125093928
H   H35       1.0  0.64700  0.91560  0.45350  1.0000 0.1125093928
H   H36       1.0  0.45350  0.64700  0.91560  1.0000 0.1125093928
H   H37       1.0  0.43310  0.91910  0.74760  1.0000 0.1283725958
H   H38       1.0  0.91910  0.74760  0.43310  1.0000 0.1283725958
H   H39       1.0  0.74760  0.43310  0.91910  1.0000 0.1283725958
H   H40       1.0  0.08090  0.56690  0.25240  1.0000 0.1283725958
H   H41       1.0  0.25240  0.08090  0.56690  1.0000 0.1283725958
H   H42       1.0  0.56690  0.25240  0.08090  1.0000 0.1283725958
H   H43       1.0  0.56690  0.08090  0.25240  1.0000 0.1283725958
H   H44       1.0  0.08090  0.25240  0.56690  1.0000 0.1283725958
H   H45       1.0  0.25240  0.56690  0.08090  1.0000 0.1283725958
H   H46       1.0  0.91910  0.43310  0.74760  1.0000 0.1283725958
H   H47       1.0  0.74760  0.91910  0.43310  1.0000 0.1283725958
H   H48       1.0  0.43310  0.74760  0.91910  1.0000 0.1283725958
H   H49       1.0  0.48140  0.99660  0.59570  1.0000 0.1125093928
H   H50       1.0  0.99660  0.59570  0.48140  1.0000 0.1125093928
H   H51       1.0  0.59570  0.48140  0.99660  1.0000 0.1125093928
H   H52       1.0  0.00340  0.51860  0.40430  1.0000 0.1125093928
H   H53       1.0  0.40430  0.00340  0.51860  1.0000 0.1125093928
H   H54       1.0  0.51860  0.40430  0.00340  1.0000 0.1125093928
H   H55       1.0  0.51860  0.00340  0.40430  1.0000 0.1125093928
H   H56       1.0  0.00340  0.40430  0.51860  1.0000 0.1125093928
H   H57       1.0  0.40430  0.51860  0.00340  1.0000 0.1125093928
H   H58       1.0  0.99660  0.48140  0.59570  1.0000 0.1125093928
H   H59       1.0  0.59570  0.99660  0.48140  1.0000 0.1125093928
H   H60       1.0  0.48140  0.59570  0.99660  1.0000 0.1125093928
H   H61       1.0  0.62600  0.88330  0.67180  1.0000 0.0797948531
H   H62       1.0  0.88330  0.67180  0.62600  1.0000 0.0797948531
H   H63       1.0  0.67180  0.62600  0.88330  1.0000 0.0797948531
H   H64       1.0  0.11670  0.37400  0.32820  1.0000 0.0797948531
H   H65       1.0  0.32820  0.11670  0.37400  1.0000 0.0797948531
H   H66       1.0  0.37400  0.32820  0.11670  1.0000 0.0797948531
H   H67       1.0  0.37400  0.11670  0.32820  1.0000 0.0797948531
H   H68       1.0  0.11670  0.32820  0.37400  1.0000 0.0797948531
H   H69       1.0  0.32820  0.37400  0.11670  1.0000 0.0797948531
H   H70       1.0  0.88330  0.62600  0.67180  1.0000 0.0797948531
H   H71       1.0  0.67180  0.88330  0.62600  1.0000 0.0797948531
H   H72       1.0  0.62600  0.67180  0.88330  1.0000 0.0797948531
H   H73       1.0  0.72665  0.86730  0.72665  1.0000 0.1125093928
H   H74       1.0  0.86730  0.72665  0.72665  1.0000 0.1125093928
H   H75       1.0  0.72665  0.72665  0.86730  1.0000 0.1125093928
H   H76       1.0  0.13270  0.27335  0.27335  1.0000 0.1125093928
H   H77       1.0  0.27335  0.13270  0.27335  1.0000 0.1125093928
H   H78       1.0  0.27335  0.27335  0.13270  1.0000 0.1125093928
H   H79       1.0  0.78220  0.94470  0.73680  1.0000 0.1125093928
H   H80       1.0  0.94470  0.73680  0.78220  1.0000 0.1125093928
H   H81       1.0  0.73680  0.78220  0.94470  1.0000 0.1125093928
H   H82       1.0  0.05530  0.21780  0.26320  1.0000 0.1125093928
H   H83       1.0  0.26320  0.05530  0.21780  1.0000 0.1125093928
H   H84       1.0  0.21780  0.26320  0.05530  1.0000 0.1125093928
H   H85       1.0  0.21780  0.05530  0.26320  1.0000 0.1125093928
H   H86       1.0  0.05530  0.26320  0.21780  1.0000 0.1125093928
H   H87       1.0  0.26320  0.21780  0.05530  1.0000 0.1125093928
H   H88       1.0  0.94470  0.78220  0.73680  1.0000 0.1125093928
H   H89       1.0  0.73680  0.94470  0.78220  1.0000 0.1125093928
H   H90       1.0  0.78220  0.73680  0.94470  1.0000 0.1125093928
C   C1        1.0  0.52695  0.99654  0.89437  1.0000 0.5799564214
C   C2        1.0  0.99654  0.89437  0.52695  1.0000 0.5799564214
C   C3        1.0  0.89437  0.52695  0.99654  1.0000 0.5799564214
C   C4        1.0  0.00346  0.47305  0.10563  1.0000 0.5799564214
C   C5        1.0  0.10563  0.00346  0.47305  1.0000 0.5799564214
C   C6        1.0  0.47305  0.10563  0.00346  1.0000 0.5799564214
C   C7        1.0  0.47305  0.00346  0.10563  1.0000 0.5799564214
C   C8        1.0  0.00346  0.10563  0.47305  1.0000 0.5799564214
C   C9        1.0  0.10563  0.47305  0.00346  1.0000 0.5799564214
C   C10       1.0  0.99654  0.52695  0.89437  1.0000 0.5799564214
C   C11       1.0  0.89437  0.99654  0.52695  1.0000 0.5799564214
C   C12       1.0  0.52695  0.89437  0.99654  1.0000 0.5799564214
C   C13       1.0  0.53995  0.99270  0.82893  1.0000 -0.0255617597
C   C14       1.0  0.99270  0.82893  0.53995  1.0000 -0.0255617597
C   C15       1.0  0.82893  0.53995  0.99270  1.0000 -0.0255617597
C   C16       1.0  0.00730  0.46005  0.17107  1.0000 -0.0255617597
C   C17       1.0  0.17107  0.00730  0.46005  1.0000 -0.0255617597
C   C18       1.0  0.46005  0.17107  0.00730  1.0000 -0.0255617597
C   C19       1.0  0.46005  0.00730  0.17107  1.0000 -0.0255617597
C   C20       1.0  0.00730  0.17107  0.46005  1.0000 -0.0255617597
C   C21       1.0  0.17107  0.46005  0.00730  1.0000 -0.0255617597
C   C22       1.0  0.99270  0.53995  0.82893  1.0000 -0.0200553464
C   C23       1.0  0.82893  0.99270  0.53995  1.0000 -0.0255617597
C   C24       1.0  0.53995  0.82893  0.99270  1.0000 -0.0255617597
C   C25       1.0  0.61091  0.03651  0.84190  1.0000 -0.0899463177
C   C26       1.0  0.03651  0.84190  0.61091  1.0000 -0.0899463177
C   C27       1.0  0.84190  0.61091  0.03651  1.0000 -0.0899463177
C   C28       1.0  0.96349  0.38909  0.15810  1.0000 -0.0899463177
C   C29       1.0  0.15810  0.96349  0.38909  1.0000 -0.0899463177
C   C30       1.0  0.38909  0.15810  0.96349  1.0000 -0.0899463177
C   C31       1.0  0.38909  0.96349  0.15810  1.0000 -0.0899463177
C   C32       1.0  0.96349  0.15810  0.38909  1.0000 -0.0899463177
C   C33       1.0  0.15810  0.38909  0.96349  1.0000 -0.0899463177
C   C34       1.0  0.03651  0.61091  0.84190  1.0000 -0.0899463177
C   C35       1.0  0.84190  0.03651  0.61091  1.0000 -0.0899463177
C   C36       1.0  0.61091  0.84190  0.03651  1.0000 -0.0899463177
C   C37       1.0  0.62303  0.03431  0.78209  1.0000 -0.1506854192
C   C38       1.0  0.03431  0.78209  0.62303  1.0000 -0.1506854192
C   C39       1.0  0.78209  0.62303  0.03431  1.0000 -0.1506854192
C   C40       1.0  0.96569  0.37697  0.21791  1.0000 -0.1506854192
C   C41       1.0  0.21791  0.96569  0.37697  1.0000 -0.1506854192
C   C42       1.0  0.37697  0.21791  0.96569  1.0000 -0.1506854192
C   C43       1.0  0.37697  0.96569  0.21791  1.0000 -0.1506854192
C   C44       1.0  0.96569  0.21791  0.37697  1.0000 -0.1506854192
C   C45       1.0  0.21791  0.37697  0.96569  1.0000 -0.1506854192
C   C46       1.0  0.03431  0.62303  0.78209  1.0000 -0.1506854192
C   C47       1.0  0.78209  0.03431  0.62303  1.0000 -0.1506854192
C   C48       1.0  0.62303  0.78209  0.03431  1.0000 -0.1506854192
C   C49       1.0  0.56494  0.99032  0.70903  1.0000 0.0892945942
C   C50       1.0  0.99032  0.70903  0.56494  1.0000 0.0892945942
C   C51       1.0  0.70903  0.56494  0.99032  1.0000 0.0892945942
C   C52       1.0  0.00968  0.43506  0.29097  1.0000 0.0892945942
C   C53       1.0  0.29097  0.00968  0.43506  1.0000 0.0892945942
C   C54       1.0  0.43506  0.29097  0.00968  1.0000 0.0892945942
C   C55       1.0  0.43506  0.00968  0.29097  1.0000 0.0892945942
C   C56       1.0  0.00968  0.29097  0.43506  1.0000 0.0892945942
C   C57       1.0  0.29097  0.43506  0.00968  1.0000 0.0892945942
C   C58       1.0  0.99032  0.56494  0.70903  1.0000 0.0892945942
C   C59       1.0  0.70903  0.99032  0.56494  1.0000 0.0892945942
C   C60       1.0  0.56494  0.70903  0.99032  1.0000 0.0892945942
C   C61       1.0  0.49402  0.94681  0.69671  1.0000 -0.1620196274
C   C62       1.0  0.94681  0.69671  0.49402  1.0000 -0.1620196274
C   C63       1.0  0.69671  0.49402  0.94681  1.0000 -0.1620196274
C   C64       1.0  0.05319  0.50598  0.30329  1.0000 -0.1620196274
C   C65       1.0  0.30329  0.05319  0.50598  1.0000 -0.1620196274
C   C66       1.0  0.50598  0.30329  0.05319  1.0000 -0.1620196274
C   C67       1.0  0.50598  0.05319  0.30329  1.0000 -0.1620196274
C   C68       1.0  0.05319  0.30329  0.50598  1.0000 -0.1620196274
C   C69       1.0  0.30329  0.50598  0.05319  1.0000 -0.1620196274
C   C70       1.0  0.94681  0.49402  0.69671  1.0000 -0.1620196274
C   C71       1.0  0.69671  0.94681  0.49402  1.0000 -0.1620196274
C   C72       1.0  0.49402  0.69671  0.94681  1.0000 -0.1620196274
C   C73       1.0  0.48200  0.94869  0.75674  1.0000 -0.0899463177
C   C74       1.0  0.94869  0.75674  0.48200  1.0000 -0.0899463177
C   C75       1.0  0.75674  0.48200  0.94869  1.0000 -0.0899463177
C   C76       1.0  0.05131  0.51800  0.24326  1.0000 -0.0899463177
C   C77       1.0  0.24326  0.05131  0.51800  1.0000 -0.0899463177
C   C78       1.0  0.51800  0.24326  0.05131  1.0000 -0.0899463177
C   C79       1.0  0.51800  0.05131  0.24326  1.0000 -0.0899463177
C   C80       1.0  0.05131  0.24326  0.51800  1.0000 -0.0899463177
C   C81       1.0  0.24326  0.51800  0.05131  1.0000 -0.0899463177
C   C82       1.0  0.94869  0.48200  0.75674  1.0000 -0.0899463177
C   C83       1.0  0.75674  0.94869  0.48200  1.0000 -0.0899463177
C   C84       1.0  0.48200  0.75674  0.94869  1.0000 -0.0899463177
C   C85       1.0  0.57566  0.99229  0.64489  1.0000 -0.0200553464
C   C86       1.0  0.99229  0.64489  0.57566  1.0000 -0.0200553464
C   C87       1.0  0.64489  0.57566  0.99229  1.0000 -0.0200553464
C   C88       1.0  0.00771  0.42434  0.35511  1.0000 -0.0200553464
C   C89       1.0  0.35511  0.00771  0.42434  1.0000 -0.0200553464
C   C90       1.0  0.42434  0.35511  0.00771  1.0000 -0.0200553464
C   C91       1.0  0.42434  0.00771  0.35511  1.0000 -0.0200553464
C   C92       1.0  0.00771  0.35511  0.42434  1.0000 -0.0200553464
C   C93       1.0  0.35511  0.42434  0.00771  1.0000 -0.0200553464
C   C94       1.0  0.99229  0.57566  0.64489  1.0000 -0.0200553464
C   C95       1.0  0.64489  0.99229  0.57566  1.0000 -0.0200553464
C   C96       1.0  0.57566  0.64489  0.99229  1.0000 -0.0200553464
C   C97       1.0  0.52328  0.99570  0.59066  1.0000 -0.1933761633
C   C98       1.0  0.99570  0.59066  0.52328  1.0000 -0.1933761633
C   C99       1.0  0.59066  0.52328  0.99570  1.0000 -0.1933761633
C   C100      1.0  0.00430  0.47672  0.40934  1.0000 -0.1933761633
C   C101      1.0  0.40934  0.00430  0.47672  1.0000 -0.1933761633
C   C102      1.0  0.47672  0.40934  0.00430  1.0000 -0.1933761633
C   C103      1.0  0.47672  0.00430  0.40934  1.0000 -0.1933761633
C   C104      1.0  0.00430  0.40934  0.47672  1.0000 -0.1933761633
C   C105      1.0  0.40934  0.47672  0.00430  1.0000 -0.1933761633
C   C106      1.0  0.99570  0.52328  0.59066  1.0000 -0.1933761633
C   C107      1.0  0.59066  0.99570  0.52328  1.0000 -0.1933761633
C   C108      1.0  0.52328  0.59066  0.99570  1.0000 -0.1933761633
C   C109      1.0  0.52886  0.99792  0.52886  1.0000 0.0724846265
C   C110      1.0  0.99792  0.52886  0.52886  1.0000 0.0724846265
C   C111      1.0  0.52886  0.52886  0.99792  1.0000 0.0724846265
C   C112      1.0  0.00208  0.47114  0.47114  1.0000 0.0724846265
C   C113      1.0  0.47114  0.00208  0.47114  1.0000 0.0724846265
C   C114      1.0  0.47114  0.47114  0.00208  1.0000 0.0724846265
C   C115      1.0  0.63658  0.98925  0.63658  1.0000 0.1627052617
C   C116      1.0  0.98925  0.63658  0.63658  1.0000 0.1627052617
C   C117      1.0  0.63657  0.63657  0.98925  1.0000 0.1627052617
C   C118      1.0  0.01075  0.36342  0.36342  1.0000 0.1627052617
C   C119      1.0  0.36342  0.01075  0.36342  1.0000 0.1627052617
C   C120      1.0  0.36342  0.36342  0.01075  1.0000 0.1627052617
C   C121      1.0  0.67449  0.91071  0.67449  1.0000 -0.0047642929
C   C122      1.0  0.91071  0.67449  0.67449  1.0000 -0.0047642929
C   C123      1.0  0.67449  0.67449  0.91071  1.0000 -0.0047642929
C   C124      1.0  0.08929  0.32550  0.32550  1.0000 -0.005678122
C   C125      1.0  0.32550  0.08929  0.32550  1.0000 -0.005678122
C   C126      1.0  0.32550  0.32550  0.08929  1.0000 -0.005678122
C   C127      1.0  0.73480  0.91730  0.73480  1.0000 -0.3713655629
C   C128      1.0  0.91730  0.73480  0.73480  1.0000 -0.3713655629
C   C129      1.0  0.73480  0.73480  0.91730  1.0000 -0.3713655629
C   C130      1.0  0.08270  0.26520  0.26520  1.0000 -0.3713655629
C   C131      1.0  0.26520  0.08270  0.26520  1.0000 -0.3713655629
C   C132      1.0  0.26520  0.26520  0.08270  1.0000 -0.3713655629
O   O1        1.0  0.45968  0.95558  0.87711  1.0000 -0.5267556269
O   O2        1.0  0.95558  0.87711  0.45968  1.0000 -0.5267556269
O   O3        1.0  0.87711  0.45968  0.95558  1.0000 -0.5267556269
O   O4        1.0  0.04442  0.54032  0.12289  1.0000 -0.5267556269
O   O5        1.0  0.12289  0.04442  0.54032  1.0000 -0.5267556269
O   O6        1.0  0.54032  0.12289  0.04442  1.0000 -0.5267556269
O   O7        1.0  0.54032  0.04442  0.12289  1.0000 -0.5267556269
O   O8        1.0  0.04442  0.12289  0.54032  1.0000 -0.5267556269
O   O9        1.0  0.12289  0.54032  0.04442  1.0000 -0.5267556269
O   O10       1.0  0.95558  0.45968  0.87711  1.0000 -0.5267556269
O   O11       1.0  0.87711  0.95558  0.45968  1.0000 -0.5267556269
O   O12       1.0  0.45968  0.87711  0.95558  1.0000 -0.5267556269
O   O13       1.0  0.58150  0.03687  0.95825  1.0000 -0.4998039686
O   O14       1.0  0.03687  0.95825  0.58150  1.0000 -0.4998039686
O   O15       1.0  0.95825  0.58150  0.03687  1.0000 -0.4998039686
O   O16       1.0  0.96313  0.41850  0.04175  1.0000 -0.4998039686
O   O17       1.0  0.04175  0.96313  0.41850  1.0000 -0.4998039686
O   O18       1.0  0.41850  0.04175  0.96313  1.0000 -0.4998039686
O   O19       1.0  0.41850  0.96313  0.04175  1.0000 -0.4998039686
O   O20       1.0  0.96313  0.04175  0.41850  1.0000 -0.4998039686
O   O21       1.0  0.04175  0.41850  0.96313  1.0000 -0.4998039686
O   O22       1.0  0.03687  0.58150  0.95825  1.0000 -0.4998039686
O   O23       1.0  0.95825  0.03687  0.58150  1.0000 -0.4998039686
O   O24       1.0  0.58150  0.95825  0.03687  1.0000 -0.4998039686
O   O25       1.0  0.69022  0.98522  0.69022  1.0000 -0.2488646739
O   O26       1.0  0.98522  0.69022  0.69022  1.0000 -0.2488646739
O   O27       1.0  0.69022  0.69022  0.98522  1.0000 -0.2488646739
O   O28       1.0  0.01478  0.30978  0.30978  1.0000 -0.2488646739
O   O29       1.0  0.30978  0.01478  0.30978  1.0000 -0.2488646739
O   O30       1.0  0.30978  0.30978  0.01478  1.0000 -0.2488646739
