# DDEC6 charges by PACMAN v1.1 (https://github.com/mtap-research/PACMAN-charge/)
data_2016[Cu][nbo]3[ASR]22
_chemical_formula_sum              "Cu6 H90 C132 O30"
_cell_length_a       21.5816
_cell_length_b       21.5816
_cell_length_c       21.5816
_cell_angle_alpha    108.922
_cell_angle_beta     108.922
_cell_angle_gamma    108.922

_symmetry_space_group_name_H-M    "P 1"
_symmetry_Int_Tables_number       1

loop_
  _symmetry_equiv_pos_as_xyz
  'x, y, z'

loop_
  _atom_site_type_symbol
  _atom_site_label
  _atom_site_symmetry_multiplicity
  _atom_site_fract_x
  _atom_site_fract_y
  _atom_site_fract_z
  _atom_site_occupancy
  _atom_site_charge
Cu  Cu1       1.0  0.95200  0.42892  0.95199  1.0000 0.8657720424
Cu  Cu2       1.0  0.42892  0.95200  0.95199  1.0000 0.8657720424
Cu  Cu3       1.0  0.95200  0.95200  0.42892  1.0000 0.8657720424
Cu  Cu4       1.0  0.57108  0.04801  0.04800  1.0000 0.8657720424
Cu  Cu5       1.0  0.04801  0.57108  0.04800  1.0000 0.8657720424
Cu  Cu6       1.0  0.04800  0.04801  0.57108  1.0000 0.8657720424
H   H1        1.0  0.10800  0.34830  0.92860  1.0000 0.1275618068
H   H2        1.0  0.34830  0.92860  0.10800  1.0000 0.1275618068
H   H3        1.0  0.92860  0.10800  0.34830  1.0000 0.1275618068
H   H4        1.0  0.65170  0.89200  0.07140  1.0000 0.1275618068
H   H5        1.0  0.07140  0.65170  0.89200  1.0000 0.1275618068
H   H6        1.0  0.89200  0.07140  0.65170  1.0000 0.1275618068
H   H7        1.0  0.89200  0.65170  0.07140  1.0000 0.1275618068
H   H8        1.0  0.65170  0.07140  0.89200  1.0000 0.1275618068
H   H9        1.0  0.07140  0.89200  0.65170  1.0000 0.1275618068
H   H10       1.0  0.34830  0.10800  0.92860  1.0000 0.1275618068
H   H11       1.0  0.92860  0.34830  0.10800  1.0000 0.1275618068
H   H12       1.0  0.10800  0.92860  0.34830  1.0000 0.1275618068
H   H13       1.0  0.20740  0.32840  0.93340  1.0000 0.1275618068
H   H14       1.0  0.32840  0.93340  0.20740  1.0000 0.1275618068
H   H15       1.0  0.93340  0.20740  0.32840  1.0000 0.1275618068
H   H16       1.0  0.67160  0.79260  0.06660  1.0000 0.1275618068
H   H17       1.0  0.06660  0.67160  0.79260  1.0000 0.1275618068
H   H18       1.0  0.79260  0.06660  0.67160  1.0000 0.1275618068
H   H19       1.0  0.79260  0.67160  0.06660  1.0000 0.1275618068
H   H20       1.0  0.67160  0.06660  0.79260  1.0000 0.1275618068
H   H21       1.0  0.06660  0.79260  0.67160  1.0000 0.1275618068
H   H22       1.0  0.32840  0.20740  0.93340  1.0000 0.1275618068
H   H23       1.0  0.93340  0.32840  0.20740  1.0000 0.1275618068
H   H24       1.0  0.20740  0.93340  0.32840  1.0000 0.1275618068
H   H25       1.0  0.35100  0.54340  0.08360  1.0000 0.11581348
H   H26       1.0  0.54340  0.08360  0.35100  1.0000 0.11581348
H   H27       1.0  0.08360  0.35100  0.54340  1.0000 0.11581348
H   H28       1.0  0.45660  0.64900  0.91640  1.0000 0.11581348
H   H29       1.0  0.91640  0.45660  0.64900  1.0000 0.11581348
H   H30       1.0  0.64900  0.91640  0.45660  1.0000 0.11581348
H   H31       1.0  0.64900  0.45660  0.91640  1.0000 0.11581348
H   H32       1.0  0.45660  0.91640  0.64900  1.0000 0.11581348
H   H33       1.0  0.91640  0.64900  0.45660  1.0000 0.11581348
H   H34       1.0  0.54340  0.35100  0.08360  1.0000 0.11581348
H   H35       1.0  0.08360  0.54340  0.35100  1.0000 0.11581348
H   H36       1.0  0.35100  0.08360  0.54340  1.0000 0.11581348
H   H37       1.0  0.25060  0.56290  0.08020  1.0000 0.1275618068
H   H38       1.0  0.56290  0.08020  0.25060  1.0000 0.1275618068
H   H39       1.0  0.08020  0.25060  0.56290  1.0000 0.1275618068
H   H40       1.0  0.43710  0.74940  0.91980  1.0000 0.1275618068
H   H41       1.0  0.91980  0.43710  0.74940  1.0000 0.1275618068
H   H42       1.0  0.74940  0.91980  0.43710  1.0000 0.1275618068
H   H43       1.0  0.74940  0.43710  0.91980  1.0000 0.1275618068
H   H44       1.0  0.43710  0.91980  0.74940  1.0000 0.1275618068
H   H45       1.0  0.91980  0.74940  0.43710  1.0000 0.1275618068
H   H46       1.0  0.56290  0.25060  0.08020  1.0000 0.1275618068
H   H47       1.0  0.08020  0.56290  0.25060  1.0000 0.1275618068
H   H48       1.0  0.25060  0.08020  0.56290  1.0000 0.1275618068
H   H49       1.0  0.40400  0.51720  0.00220  1.0000 0.1098077075
H   H50       1.0  0.51720  0.00220  0.40400  1.0000 0.1098077075
H   H51       1.0  0.00220  0.40400  0.51720  1.0000 0.1098077075
H   H52       1.0  0.48280  0.59600  0.99780  1.0000 0.1098077075
H   H53       1.0  0.99780  0.48280  0.59600  1.0000 0.1098077075
H   H54       1.0  0.59600  0.99780  0.48280  1.0000 0.1098077075
H   H55       1.0  0.59600  0.48280  0.99780  1.0000 0.1098077075
H   H56       1.0  0.48280  0.99780  0.59600  1.0000 0.1098077075
H   H57       1.0  0.99780  0.59600  0.48280  1.0000 0.1098077075
H   H58       1.0  0.51720  0.40400  0.00220  1.0000 0.1098077075
H   H59       1.0  0.00220  0.51720  0.40400  1.0000 0.1098077075
H   H60       1.0  0.40400  0.00220  0.51720  1.0000 0.1098077075
H   H61       1.0  0.37060  0.32570  0.11190  1.0000 0.0727096849
H   H62       1.0  0.32570  0.11190  0.37060  1.0000 0.0727096849
H   H63       1.0  0.11190  0.37060  0.32570  1.0000 0.0727096849
H   H64       1.0  0.67430  0.62940  0.88810  1.0000 0.0727096849
H   H65       1.0  0.88810  0.67430  0.62940  1.0000 0.0727096849
H   H66       1.0  0.62940  0.88810  0.67430  1.0000 0.0727096849
H   H67       1.0  0.62940  0.67430  0.88810  1.0000 0.0727096849
H   H68       1.0  0.67430  0.88810  0.62940  1.0000 0.0727096849
H   H69       1.0  0.88810  0.62940  0.67430  1.0000 0.0727096849
H   H70       1.0  0.32570  0.37060  0.11190  1.0000 0.0727096849
H   H71       1.0  0.11190  0.32570  0.37060  1.0000 0.0727096849
H   H72       1.0  0.37060  0.11190  0.32570  1.0000 0.0727096849
H   H73       1.0  0.26920  0.26920  0.12910  1.0000 0.1098077075
H   H74       1.0  0.26920  0.12910  0.26920  1.0000 0.1098077075
H   H75       1.0  0.12910  0.26920  0.26920  1.0000 0.1098077075
H   H76       1.0  0.73080  0.73080  0.87090  1.0000 0.1098077075
H   H77       1.0  0.87090  0.73080  0.73080  1.0000 0.1098077075
H   H78       1.0  0.73080  0.87090  0.73080  1.0000 0.1098077075
H   H79       1.0  0.25870  0.21410  0.05340  1.0000 0.1098077075
H   H80       1.0  0.21410  0.05340  0.25870  1.0000 0.1098077075
H   H81       1.0  0.05340  0.25870  0.21410  1.0000 0.1098077075
H   H82       1.0  0.78590  0.74130  0.94660  1.0000 0.1098077075
H   H83       1.0  0.94660  0.78590  0.74130  1.0000 0.1098077075
H   H84       1.0  0.74130  0.94660  0.78590  1.0000 0.1098077075
H   H85       1.0  0.74130  0.78590  0.94660  1.0000 0.1098077075
H   H86       1.0  0.78590  0.94660  0.74130  1.0000 0.1098077075
H   H87       1.0  0.94660  0.74130  0.78590  1.0000 0.1098077075
H   H88       1.0  0.21410  0.25870  0.05340  1.0000 0.1098077075
H   H89       1.0  0.05340  0.21410  0.25870  1.0000 0.1098077075
H   H90       1.0  0.25870  0.05340  0.21410  1.0000 0.1098077075
C   C1        1.0  0.10530  0.47216  0.00313  1.0000 0.5801014639
C   C2        1.0  0.47216  0.00313  0.10530  1.0000 0.5801014639
C   C3        1.0  0.00313  0.10530  0.47216  1.0000 0.5801014639
C   C4        1.0  0.52784  0.89470  0.99687  1.0000 0.5801014639
C   C5        1.0  0.99687  0.52784  0.89470  1.0000 0.5801014639
C   C6        1.0  0.89470  0.99687  0.52784  1.0000 0.5801014639
C   C7        1.0  0.89470  0.52784  0.99687  1.0000 0.5801014639
C   C8        1.0  0.52784  0.99687  0.89470  1.0000 0.5801014639
C   C9        1.0  0.99687  0.89470  0.52784  1.0000 0.5801014639
C   C10       1.0  0.47216  0.10530  0.00313  1.0000 0.5801014639
C   C11       1.0  0.00313  0.47216  0.10530  1.0000 0.5801014639
C   C12       1.0  0.10530  0.00313  0.47216  1.0000 0.5801014639
C   C13       1.0  0.16989  0.45909  0.00570  1.0000 -0.0330950982
C   C14       1.0  0.45909  0.00570  0.16989  1.0000 -0.0330950982
C   C15       1.0  0.00570  0.16989  0.45909  1.0000 -0.0330950982
C   C16       1.0  0.54091  0.83011  0.99430  1.0000 -0.0330950982
C   C17       1.0  0.99430  0.54091  0.83011  1.0000 -0.0330950982
C   C18       1.0  0.83011  0.99430  0.54091  1.0000 -0.0330950982
C   C19       1.0  0.83011  0.54091  0.99430  1.0000 -0.0330950982
C   C20       1.0  0.54091  0.99430  0.83011  1.0000 -0.0330950982
C   C21       1.0  0.99430  0.83011  0.54091  1.0000 -0.0330950982
C   C22       1.0  0.45909  0.16989  0.00570  1.0000 -0.0330950982
C   C23       1.0  0.00570  0.45909  0.16989  1.0000 -0.0330950982
C   C24       1.0  0.16989  0.00570  0.45909  1.0000 -0.0330950982
C   C25       1.0  0.15656  0.38751  0.95996  1.0000 -0.0872422349
C   C26       1.0  0.38751  0.95996  0.15656  1.0000 -0.0872422349
C   C27       1.0  0.95996  0.15656  0.38751  1.0000 -0.0872422349
C   C28       1.0  0.61249  0.84344  0.04004  1.0000 -0.0872422349
C   C29       1.0  0.04004  0.61249  0.84344  1.0000 -0.0872422349
C   C30       1.0  0.84344  0.04004  0.61249  1.0000 -0.0872422349
C   C31       1.0  0.84344  0.61249  0.04004  1.0000 -0.0872422349
C   C32       1.0  0.61249  0.04004  0.84344  1.0000 -0.0872422349
C   C33       1.0  0.04004  0.84344  0.61249  1.0000 -0.0872422349
C   C34       1.0  0.38751  0.15656  0.95996  1.0000 -0.0872422349
C   C35       1.0  0.95996  0.38751  0.15656  1.0000 -0.0872422349
C   C36       1.0  0.15656  0.95996  0.38751  1.0000 -0.0872422349
C   C37       1.0  0.21640  0.37614  0.96219  1.0000 -0.1398573705
C   C38       1.0  0.37614  0.96219  0.21640  1.0000 -0.1398573705
C   C39       1.0  0.96219  0.21640  0.37614  1.0000 -0.1398573705
C   C40       1.0  0.62386  0.78360  0.03781  1.0000 -0.1398573705
C   C41       1.0  0.03781  0.62386  0.78360  1.0000 -0.1398573705
C   C42       1.0  0.78360  0.03781  0.62386  1.0000 -0.1398573705
C   C43       1.0  0.78360  0.62386  0.03781  1.0000 -0.1398573705
C   C44       1.0  0.62386  0.03781  0.78360  1.0000 -0.1398573705
C   C45       1.0  0.03781  0.78360  0.62386  1.0000 -0.1398573705
C   C46       1.0  0.37614  0.21640  0.96219  1.0000 -0.1398573705
C   C47       1.0  0.96219  0.37614  0.21640  1.0000 -0.1398573705
C   C48       1.0  0.21640  0.96219  0.37614  1.0000 -0.1398573705
C   C49       1.0  0.28774  0.43218  0.00497  1.0000 0.0853114736
C   C50       1.0  0.43218  0.00497  0.28774  1.0000 0.0853114736
C   C51       1.0  0.00497  0.28774  0.43218  1.0000 0.0849614677
C   C52       1.0  0.56782  0.71226  0.99503  1.0000 0.0849614677
C   C53       1.0  0.99503  0.56782  0.71226  1.0000 0.0853114736
C   C54       1.0  0.71226  0.99503  0.56782  1.0000 0.0853114736
C   C55       1.0  0.71226  0.56782  0.99503  1.0000 0.0849614677
C   C56       1.0  0.56782  0.99503  0.71226  1.0000 0.0849614677
C   C57       1.0  0.99503  0.71226  0.56782  1.0000 0.0853114736
C   C58       1.0  0.43218  0.28774  0.00497  1.0000 0.0853114736
C   C59       1.0  0.00497  0.43218  0.28774  1.0000 0.0849614677
C   C60       1.0  0.28774  0.00497  0.43218  1.0000 0.0849614677
C   C61       1.0  0.30226  0.50441  0.05217  1.0000 -0.1659159053
C   C62       1.0  0.50441  0.05217  0.30226  1.0000 -0.1659159053
C   C63       1.0  0.05217  0.30226  0.50441  1.0000 -0.1659159053
C   C64       1.0  0.49559  0.69774  0.94783  1.0000 -0.1659159053
C   C65       1.0  0.94783  0.49559  0.69774  1.0000 -0.1659159053
C   C66       1.0  0.69774  0.94783  0.49559  1.0000 -0.1659159053
C   C67       1.0  0.69774  0.49559  0.94783  1.0000 -0.1659159053
C   C68       1.0  0.49559  0.94783  0.69774  1.0000 -0.1659159053
C   C69       1.0  0.94783  0.69774  0.49559  1.0000 -0.1659159053
C   C70       1.0  0.50441  0.30226  0.05217  1.0000 -0.1659159053
C   C71       1.0  0.05217  0.50441  0.30226  1.0000 -0.1659159053
C   C72       1.0  0.30226  0.05217  0.50441  1.0000 -0.1659159053
C   C73       1.0  0.24170  0.51555  0.05023  1.0000 -0.0872422349
C   C74       1.0  0.51555  0.05023  0.24170  1.0000 -0.0872422349
C   C75       1.0  0.05023  0.24170  0.51555  1.0000 -0.0872422349
C   C76       1.0  0.48445  0.75830  0.94977  1.0000 -0.0872422349
C   C77       1.0  0.94977  0.48445  0.75830  1.0000 -0.0872422349
C   C78       1.0  0.75830  0.94977  0.48445  1.0000 -0.0872422349
C   C79       1.0  0.75830  0.48445  0.94977  1.0000 -0.0872422349
C   C80       1.0  0.48445  0.94977  0.75830  1.0000 -0.0872422349
C   C81       1.0  0.94977  0.75830  0.48445  1.0000 -0.0872422349
C   C82       1.0  0.51555  0.24170  0.05023  1.0000 -0.0872422349
C   C83       1.0  0.05023  0.51555  0.24170  1.0000 -0.0872422349
C   C84       1.0  0.24170  0.05023  0.51555  1.0000 -0.0872422349
C   C85       1.0  0.35382  0.42298  0.00461  1.0000 -0.017357677
C   C86       1.0  0.42298  0.00461  0.35382  1.0000 -0.017357677
C   C87       1.0  0.00461  0.35382  0.42298  1.0000 -0.017357677
C   C88       1.0  0.57702  0.64618  0.99539  1.0000 -0.017357677
C   C89       1.0  0.99539  0.57702  0.64618  1.0000 -0.017357677
C   C90       1.0  0.64618  0.99539  0.57702  1.0000 -0.017357677
C   C91       1.0  0.64618  0.57702  0.99539  1.0000 -0.017357677
C   C92       1.0  0.57702  0.99539  0.64618  1.0000 -0.017357677
C   C93       1.0  0.99539  0.64618  0.57702  1.0000 -0.017357677
C   C94       1.0  0.42298  0.35382  0.00461  1.0000 -0.017357677
C   C95       1.0  0.00461  0.42298  0.35382  1.0000 -0.017357677
C   C96       1.0  0.35382  0.00461  0.42298  1.0000 -0.017357677
C   C97       1.0  0.40877  0.47602  0.00270  1.0000 -0.1945262316
C   C98       1.0  0.47602  0.00270  0.40877  1.0000 -0.1945262316
C   C99       1.0  0.00270  0.40877  0.47602  1.0000 -0.1945262316
C   C100      1.0  0.52398  0.59123  0.99730  1.0000 -0.1950917009
C   C101      1.0  0.99730  0.52398  0.59123  1.0000 -0.1950917009
C   C102      1.0  0.59123  0.99730  0.52398  1.0000 -0.1950917009
C   C103      1.0  0.59123  0.52398  0.99730  1.0000 -0.1950917009
C   C104      1.0  0.52398  0.99730  0.59123  1.0000 -0.1950917009
C   C105      1.0  0.99730  0.59123  0.52398  1.0000 -0.1950917009
C   C106      1.0  0.47602  0.40877  0.00270  1.0000 -0.1945262316
C   C107      1.0  0.00270  0.47602  0.40877  1.0000 -0.1945262316
C   C108      1.0  0.40877  0.00270  0.47602  1.0000 -0.1945262316
C   C109      1.0  0.47099  0.47100  0.00151  1.0000 0.0727096849
C   C110      1.0  0.47099  0.00151  0.47099  1.0000 0.0727096849
C   C111      1.0  0.00151  0.47100  0.47099  1.0000 0.0727096849
C   C112      1.0  0.52900  0.52900  0.99849  1.0000 0.0727096849
C   C113      1.0  0.99849  0.52900  0.52900  1.0000 0.0727096849
C   C114      1.0  0.52900  0.99849  0.52900  1.0000 0.0727096849
C   C115      1.0  0.36133  0.36133  0.00635  1.0000 0.1683980164
C   C116      1.0  0.36133  0.00635  0.36133  1.0000 0.1683980164
C   C117      1.0  0.00635  0.36133  0.36133  1.0000 0.1683980164
C   C118      1.0  0.63867  0.63868  0.99365  1.0000 0.1683980164
C   C119      1.0  0.99365  0.63868  0.63867  1.0000 0.1683980164
C   C120      1.0  0.63867  0.99365  0.63867  1.0000 0.1683980164
C   C121      1.0  0.32322  0.32322  0.08525  1.0000 0.007065303
C   C122      1.0  0.32322  0.08525  0.32322  1.0000 0.007065303
C   C123      1.0  0.08525  0.32322  0.32322  1.0000 0.007065303
C   C124      1.0  0.67678  0.67678  0.91475  1.0000 0.007065303
C   C125      1.0  0.91475  0.67678  0.67678  1.0000 0.007065303
C   C126      1.0  0.67678  0.91475  0.67678  1.0000 0.007065303
C   C127      1.0  0.26060  0.26060  0.07970  1.0000 -0.3730973217
C   C128      1.0  0.26060  0.07970  0.26060  1.0000 -0.3730973217
C   C129      1.0  0.07970  0.26060  0.26060  1.0000 -0.3730973217
C   C130      1.0  0.73940  0.73940  0.92030  1.0000 -0.3730973217
C   C131      1.0  0.92030  0.73940  0.73940  1.0000 -0.3730973217
C   C132      1.0  0.73940  0.92030  0.73940  1.0000 -0.3730973217
O   O1        1.0  0.12225  0.53923  0.04367  1.0000 -0.527282885
O   O2        1.0  0.53923  0.04367  0.12225  1.0000 -0.527282885
O   O3        1.0  0.04367  0.12225  0.53923  1.0000 -0.527282885
O   O4        1.0  0.46077  0.87775  0.95633  1.0000 -0.527282885
O   O5        1.0  0.95633  0.46077  0.87775  1.0000 -0.527282885
O   O6        1.0  0.87775  0.95633  0.46077  1.0000 -0.527282885
O   O7        1.0  0.87775  0.46077  0.95633  1.0000 -0.527282885
O   O8        1.0  0.46077  0.95633  0.87775  1.0000 -0.527282885
O   O9        1.0  0.95633  0.87775  0.46077  1.0000 -0.527282885
O   O10       1.0  0.53923  0.12225  0.04367  1.0000 -0.527282885
O   O11       1.0  0.04367  0.53923  0.12225  1.0000 -0.527282885
O   O12       1.0  0.12225  0.04367  0.53923  1.0000 -0.527282885
O   O13       1.0  0.04105  0.41807  0.96265  1.0000 -0.5061829799
O   O14       1.0  0.41807  0.96265  0.04105  1.0000 -0.5061829799
O   O15       1.0  0.96265  0.04105  0.41807  1.0000 -0.5061829799
O   O16       1.0  0.58193  0.95895  0.03735  1.0000 -0.5061829799
O   O17       1.0  0.03735  0.58193  0.95895  1.0000 -0.5061829799
O   O18       1.0  0.95895  0.03735  0.58193  1.0000 -0.5061829799
O   O19       1.0  0.95895  0.58193  0.03735  1.0000 -0.5061829799
O   O20       1.0  0.58193  0.03735  0.95895  1.0000 -0.5061829799
O   O21       1.0  0.03735  0.95895  0.58193  1.0000 -0.5061829799
O   O22       1.0  0.41807  0.04105  0.96265  1.0000 -0.5061829799
O   O23       1.0  0.96265  0.41807  0.04105  1.0000 -0.5061829799
O   O24       1.0  0.04105  0.96265  0.41807  1.0000 -0.5061829799
O   O25       1.0  0.30762  0.30762  0.00938  1.0000 -0.2443720314
O   O26       1.0  0.30762  0.00938  0.30762  1.0000 -0.2456817318
O   O27       1.0  0.00938  0.30762  0.30762  1.0000 -0.2456817318
O   O28       1.0  0.69237  0.69237  0.99062  1.0000 -0.2443720314
O   O29       1.0  0.99062  0.69237  0.69237  1.0000 -0.2443720314
O   O30       1.0  0.69237  0.99062  0.69237  1.0000 -0.2443720314
