# DDEC6 charges by PACMAN v1.1 (https://github.com/mtap-research/PACMAN-charge/)
data_2016[Cu][nan]3[ASR]8
_chemical_formula_sum              "Cu12 H104 C184 N8 O48"
_cell_length_a       33.5052
_cell_length_b       33.5052
_cell_length_c       33.5052
_cell_angle_alpha    146.595
_cell_angle_beta     146.595
_cell_angle_gamma    47.964

_symmetry_space_group_name_H-M    "P 1"
_symmetry_Int_Tables_number       1

loop_
  _symmetry_equiv_pos_as_xyz
  'x, y, z'

loop_
  _atom_site_type_symbol
  _atom_site_label
  _atom_site_symmetry_multiplicity
  _atom_site_fract_x
  _atom_site_fract_y
  _atom_site_fract_z
  _atom_site_occupancy
  _atom_site_charge
Cu  Cu1       1.0  0.93983  0.12277  0.81706  1.0000 0.7577867019
Cu  Cu2       1.0  0.87277  0.55571  0.68294  1.0000 0.7577867019
Cu  Cu3       1.0  0.81017  0.12723  0.68294  1.0000 0.7577867019
Cu  Cu4       1.0  0.30571  0.12277  0.18294  1.0000 0.7577867019
Cu  Cu5       1.0  0.87723  0.06017  0.18294  1.0000 0.7577867019
Cu  Cu6       1.0  0.87723  0.69429  0.81706  1.0000 0.7577867019
Cu  Cu7       1.0  0.87277  0.18983  0.31706  1.0000 0.7577867019
Cu  Cu8       1.0  0.44429  0.12723  0.31706  1.0000 0.7577867019
Cu  Cu9       1.0  0.22829  0.72829  0.50000  1.0000 0.8667518902
Cu  Cu10      1.0  0.47829  0.47829  0.00000  1.0000 0.8667518902
Cu  Cu11      1.0  0.52171  0.52171  0.00000  1.0000 0.8667518902
Cu  Cu12      1.0  0.27171  0.77171  0.50000  1.0000 0.8667518902
H   H1        1.0  0.96640  0.46640  0.93280  1.0000 0.1128705801
H   H2        1.0  0.21640  0.78360  0.00000  1.0000 0.1128705801
H   H3        1.0  0.78360  0.21640  0.00000  1.0000 0.1128705801
H   H4        1.0  0.53360  0.03360  0.06720  1.0000 0.1128705801
H   H5        1.0  0.78360  0.78360  0.56720  1.0000 0.1128705801
H   H6        1.0  0.53360  0.46640  0.50000  1.0000 0.1128705801
H   H7        1.0  0.96640  0.03360  0.50000  1.0000 0.1128705801
H   H8        1.0  0.21640  0.21640  0.43280  1.0000 0.1128705801
H   H9        1.0  0.08530  0.54120  0.18970  1.0000 0.1288172561
H   H10       1.0  0.29120  0.60150  0.95590  1.0000 0.1288172561
H   H11       1.0  0.66470  0.35440  0.95590  1.0000 0.1288172561
H   H12       1.0  0.35150  0.89560  0.81030  1.0000 0.1288172561
H   H13       1.0  0.45880  0.91470  0.81030  1.0000 0.1288172561
H   H14       1.0  0.10440  0.64850  0.18970  1.0000 0.1288172561
H   H15       1.0  0.64560  0.33530  0.04410  1.0000 0.1288172561
H   H16       1.0  0.39850  0.70880  0.04410  1.0000 0.1288172561
H   H17       1.0  0.66470  0.70880  0.31030  1.0000 0.1288172561
H   H18       1.0  0.45880  0.64850  0.54410  1.0000 0.1288172561
H   H19       1.0  0.08530  0.89560  0.54410  1.0000 0.1288172561
H   H20       1.0  0.39850  0.35440  0.68970  1.0000 0.1288172561
H   H21       1.0  0.29120  0.33530  0.68970  1.0000 0.1288172561
H   H22       1.0  0.64560  0.60150  0.31030  1.0000 0.1288172561
H   H23       1.0  0.10440  0.91470  0.45590  1.0000 0.1288172561
H   H24       1.0  0.35150  0.54120  0.45590  1.0000 0.1288172561
H   H25       1.0  0.08720  0.41590  0.09530  1.0000 0.1159282881
H   H26       1.0  0.16590  0.57060  0.82870  1.0000 0.1159282881
H   H27       1.0  0.66280  0.25810  0.82870  1.0000 0.1159282881
H   H28       1.0  0.32060  0.99190  0.90470  1.0000 0.1159282881
H   H29       1.0  0.58410  0.91280  0.90470  1.0000 0.1159282881
H   H30       1.0  0.00810  0.67940  0.09530  1.0000 0.1159282881
H   H31       1.0  0.74190  0.33720  0.17130  1.0000 0.1159282881
H   H32       1.0  0.42940  0.83410  0.17130  1.0000 0.1159282881
H   H33       1.0  0.66280  0.83410  0.40470  1.0000 0.1159282881
H   H34       1.0  0.58410  0.67940  0.67130  1.0000 0.1159282881
H   H35       1.0  0.08720  0.99190  0.67130  1.0000 0.1159282881
H   H36       1.0  0.42940  0.25810  0.59530  1.0000 0.1159282881
H   H37       1.0  0.16590  0.33720  0.59530  1.0000 0.1159282881
H   H38       1.0  0.74190  0.57060  0.40470  1.0000 0.1159282881
H   H39       1.0  0.00810  0.91280  0.32870  1.0000 0.1159282881
H   H40       1.0  0.32060  0.41590  0.32870  1.0000 0.1159282881
H   H41       1.0  0.04260  0.31520  0.01240  1.0000 0.1288172561
H   H42       1.0  0.06520  0.55280  0.77260  1.0000 0.1288172561
H   H43       1.0  0.70740  0.21980  0.77260  1.0000 0.1288172561
H   H44       1.0  0.30280  0.03020  0.98760  1.0000 0.1288172561
H   H45       1.0  0.68480  0.95740  0.98760  1.0000 0.1288172561
H   H46       1.0  0.96980  0.69720  0.01240  1.0000 0.1288172561
H   H47       1.0  0.78020  0.29260  0.22740  1.0000 0.1288172561
H   H48       1.0  0.44720  0.93480  0.22740  1.0000 0.1288172561
H   H49       1.0  0.70740  0.93480  0.48760  1.0000 0.1288172561
H   H50       1.0  0.68480  0.69720  0.72740  1.0000 0.1288172561
H   H51       1.0  0.04260  0.03020  0.72740  1.0000 0.1288172561
H   H52       1.0  0.44720  0.21980  0.51240  1.0000 0.1288172561
H   H53       1.0  0.06520  0.29260  0.51240  1.0000 0.1288172561
H   H54       1.0  0.78020  0.55280  0.48760  1.0000 0.1288172561
H   H55       1.0  0.96980  0.95740  0.27260  1.0000 0.1288172561
H   H56       1.0  0.30280  0.31520  0.27260  1.0000 0.1288172561
H   H57       1.0  0.84280  0.32570  0.80590  1.0000 0.1288172561
H   H58       1.0  0.07570  0.76980  0.98290  1.0000 0.1288172561
H   H59       1.0  0.90720  0.21310  0.98290  1.0000 0.1288172561
H   H60       1.0  0.51980  0.03690  0.19410  1.0000 0.1288172561
H   H61       1.0  0.67430  0.15720  0.19410  1.0000 0.1288172561
H   H62       1.0  0.96310  0.48020  0.80590  1.0000 0.1288172561
H   H63       1.0  0.78690  0.09280  0.01710  1.0000 0.1288172561
H   H64       1.0  0.23020  0.92430  0.01710  1.0000 0.1288172561
H   H65       1.0  0.90720  0.92430  0.69410  1.0000 0.1288172561
H   H66       1.0  0.67430  0.48020  0.51710  1.0000 0.1288172561
H   H67       1.0  0.84280  0.03690  0.51710  1.0000 0.1288172561
H   H68       1.0  0.23020  0.21310  0.30590  1.0000 0.1288172561
H   H69       1.0  0.07570  0.09280  0.30590  1.0000 0.1288172561
H   H70       1.0  0.78690  0.76980  0.69410  1.0000 0.1288172561
H   H71       1.0  0.96310  0.15720  0.48290  1.0000 0.1288172561
H   H72       1.0  0.51980  0.32570  0.48290  1.0000 0.1288172561
H   H73       1.0  0.88760  0.42530  0.88770  1.0000 0.1128705801
H   H74       1.0  0.17530  0.78760  0.03770  1.0000 0.1128705801
H   H75       1.0  0.86240  0.25010  0.03770  1.0000 0.1128705801
H   H76       1.0  0.53760  0.99990  0.11230  1.0000 0.1128705801
H   H77       1.0  0.57470  0.11240  0.11230  1.0000 0.1128705801
H   H78       1.0  0.00010  0.46240  0.88770  1.0000 0.1128705801
H   H79       1.0  0.74990  0.13760  0.96230  1.0000 0.1128705801
H   H80       1.0  0.21240  0.82470  0.96230  1.0000 0.1128705801
H   H81       1.0  0.86240  0.82470  0.61230  1.0000 0.1128705801
H   H82       1.0  0.57470  0.46240  0.46230  1.0000 0.1128705801
H   H83       1.0  0.88760  0.99990  0.46230  1.0000 0.1128705801
H   H84       1.0  0.21240  0.25010  0.38770  1.0000 0.1128705801
H   H85       1.0  0.17530  0.13760  0.38770  1.0000 0.1128705801
H   H86       1.0  0.74990  0.78760  0.61230  1.0000 0.1128705801
H   H87       1.0  0.00010  0.11240  0.53770  1.0000 0.1128705801
H   H88       1.0  0.53760  0.42530  0.53770  1.0000 0.1128705801
H   H89       1.0  0.06140  0.22220  0.04140  1.0000 0.1288172561
H   H90       1.0  0.97220  0.43080  0.66080  1.0000 0.1288172561
H   H91       1.0  0.68860  0.23000  0.66080  1.0000 0.1288172561
H   H92       1.0  0.18080  0.02000  0.95860  1.0000 0.1288172561
H   H93       1.0  0.77780  0.93860  0.95860  1.0000 0.1288172561
H   H94       1.0  0.98000  0.81920  0.04140  1.0000 0.1288172561
H   H95       1.0  0.77000  0.31140  0.33920  1.0000 0.1288172561
H   H96       1.0  0.56920  0.02780  0.33920  1.0000 0.1288172561
H   H97       1.0  0.68860  0.02780  0.45860  1.0000 0.1288172561
H   H98       1.0  0.77780  0.81920  0.83920  1.0000 0.1288172561
H   H99       1.0  0.06140  0.02000  0.83920  1.0000 0.1288172561
H   H100      1.0  0.56920  0.23000  0.54140  1.0000 0.1288172561
H   H101      1.0  0.97220  0.31140  0.54140  1.0000 0.1288172561
H   H102      1.0  0.77000  0.43080  0.45860  1.0000 0.1288172561
H   H103      1.0  0.98000  0.93860  0.16080  1.0000 0.1288172561
H   H104      1.0  0.18080  0.22220  0.16080  1.0000 0.1288172561
C   C1        1.0  0.00129  0.50129  0.00258  1.0000 -0.1887662602
C   C2        1.0  0.25129  0.74871  0.00000  1.0000 -0.1887662602
C   C3        1.0  0.74871  0.25129  0.00000  1.0000 -0.1887662602
C   C4        1.0  0.49871  0.99871  0.99742  1.0000 -0.1887662602
C   C5        1.0  0.74871  0.74871  0.49742  1.0000 -0.1887662602
C   C6        1.0  0.49871  0.50129  0.50000  1.0000 -0.1887662602
C   C7        1.0  0.00129  0.99871  0.50000  1.0000 -0.1887662602
C   C8        1.0  0.25129  0.25129  0.50258  1.0000 -0.1887662602
C   C9        1.0  0.02152  0.49324  0.05234  1.0000 0.0781282082
C   C10       1.0  0.24324  0.69090  0.97172  1.0000 0.0781282082
C   C11       1.0  0.72848  0.28082  0.97172  1.0000 0.0781282082
C   C12       1.0  0.44090  0.96918  0.94766  1.0000 0.0749179679
C   C13       1.0  0.50676  0.97848  0.94766  1.0000 0.0781282082
C   C14       1.0  0.03082  0.55910  0.05234  1.0000 0.0781282082
C   C15       1.0  0.71918  0.27152  0.02828  1.0000 0.0749179679
C   C16       1.0  0.30910  0.75676  0.02828  1.0000 0.0749179679
C   C17       1.0  0.72848  0.75676  0.44766  1.0000 0.0749179679
C   C18       1.0  0.50676  0.55910  0.52828  1.0000 0.0749179679
C   C19       1.0  0.02152  0.96918  0.52828  1.0000 0.0781282082
C   C20       1.0  0.30910  0.28082  0.55234  1.0000 0.0781282082
C   C21       1.0  0.24324  0.27152  0.55234  1.0000 0.0781282082
C   C22       1.0  0.71918  0.69090  0.44766  1.0000 0.0749179679
C   C23       1.0  0.03082  0.97848  0.47172  1.0000 0.0781282082
C   C24       1.0  0.44090  0.49324  0.47172  1.0000 0.0749179679
C   C25       1.0  0.93836  0.31060  0.90040  1.0000 -0.0328891023
C   C26       1.0  0.06060  0.66020  0.87224  1.0000 -0.0328891023
C   C27       1.0  0.81164  0.21204  0.87224  1.0000 -0.0328891023
C   C28       1.0  0.41020  0.03796  0.09960  1.0000 -0.0328891023
C   C29       1.0  0.68940  0.06164  0.09960  1.0000 -0.0328891023
C   C30       1.0  0.96204  0.58980  0.90040  1.0000 -0.0328891023
C   C31       1.0  0.78796  0.18836  0.12776  1.0000 -0.0328891023
C   C32       1.0  0.33980  0.93940  0.12776  1.0000 -0.0328891023
C   C33       1.0  0.81164  0.93940  0.59960  1.0000 -0.0328891023
C   C34       1.0  0.68940  0.58980  0.62776  1.0000 -0.0328891023
C   C35       1.0  0.93836  0.03796  0.62776  1.0000 -0.0328891023
C   C36       1.0  0.33980  0.21204  0.40040  1.0000 -0.0328891023
C   C37       1.0  0.06060  0.18836  0.40040  1.0000 -0.0328891023
C   C38       1.0  0.78796  0.66020  0.59960  1.0000 -0.0328891023
C   C39       1.0  0.96204  0.06164  0.37224  1.0000 -0.0328891023
C   C40       1.0  0.41020  0.31060  0.37224  1.0000 -0.0328891023
C   C41       1.0  0.99193  0.43045  0.99962  1.0000 0.0781282082
C   C42       1.0  0.18045  0.68083  0.93852  1.0000 0.0781282082
C   C43       1.0  0.75807  0.25769  0.93852  1.0000 0.0781282082
C   C44       1.0  0.43083  0.99231  0.00038  1.0000 0.0781282082
C   C45       1.0  0.56955  0.00807  0.00038  1.0000 0.0781282082
C   C46       1.0  0.00769  0.56917  0.99962  1.0000 0.0781282082
C   C47       1.0  0.74231  0.24193  0.06148  1.0000 0.0781282082
C   C48       1.0  0.31917  0.81955  0.06148  1.0000 0.0781282082
C   C49       1.0  0.75807  0.81955  0.50038  1.0000 0.0781282082
C   C50       1.0  0.56955  0.56917  0.56148  1.0000 0.0781282082
C   C51       1.0  0.99193  0.99231  0.56148  1.0000 0.0781282082
C   C52       1.0  0.31917  0.25769  0.49962  1.0000 0.0781282082
C   C53       1.0  0.18045  0.24193  0.49962  1.0000 0.0781282082
C   C54       1.0  0.74231  0.68083  0.50038  1.0000 0.0781282082
C   C55       1.0  0.00769  0.00807  0.43852  1.0000 0.0781282082
C   C56       1.0  0.43083  0.43045  0.43852  1.0000 0.0781282082
C   C57       1.0  0.91158  0.24454  0.84596  1.0000 0.5653197277
C   C58       1.0  0.99454  0.64858  0.83296  1.0000 0.564926933
C   C59       1.0  0.83842  0.18438  0.83296  1.0000 0.5653197277
C   C60       1.0  0.39858  0.06562  0.15404  1.0000 0.564926933
C   C61       1.0  0.75546  0.08842  0.15404  1.0000 0.5653197277
C   C62       1.0  0.93438  0.60142  0.84596  1.0000 0.5653197277
C   C63       1.0  0.81562  0.16158  0.16704  1.0000 0.564926933
C   C64       1.0  0.35142  0.00546  0.16704  1.0000 0.564926933
C   C65       1.0  0.83842  0.00546  0.65404  1.0000 0.5653197277
C   C66       1.0  0.75546  0.60142  0.66704  1.0000 0.564926933
C   C67       1.0  0.91158  0.06562  0.66704  1.0000 0.5653197277
C   C68       1.0  0.35142  0.18438  0.34596  1.0000 0.564926933
C   C69       1.0  0.99454  0.16158  0.34596  1.0000 0.564926933
C   C70       1.0  0.81562  0.64858  0.65404  1.0000 0.5653197277
C   C71       1.0  0.93438  0.08842  0.33296  1.0000 0.564926933
C   C72       1.0  0.39858  0.24454  0.33296  1.0000 0.564926933
C   C73       1.0  0.10301  0.60301  0.20602  1.0000 -0.0126772458
C   C74       1.0  0.35301  0.64699  0.00000  1.0000 -0.0126772458
C   C75       1.0  0.64699  0.35301  0.00000  1.0000 -0.0126772458
C   C76       1.0  0.39699  0.89699  0.79398  1.0000 -0.0126772458
C   C77       1.0  0.64699  0.64699  0.29398  1.0000 -0.0126772458
C   C78       1.0  0.39699  0.60301  0.50000  1.0000 -0.0126772458
C   C79       1.0  0.10301  0.89699  0.50000  1.0000 -0.0126772458
C   C80       1.0  0.35301  0.35301  0.70602  1.0000 -0.0126772458
C   C81       1.0  0.07197  0.54523  0.15470  1.0000 -0.1702407463
C   C82       1.0  0.29523  0.64053  0.97326  1.0000 -0.1702407463
C   C83       1.0  0.67803  0.33273  0.97326  1.0000 -0.1702407463
C   C84       1.0  0.39053  0.91727  0.84530  1.0000 -0.1702407463
C   C85       1.0  0.45477  0.92803  0.84530  1.0000 -0.1702407463
C   C86       1.0  0.08273  0.60947  0.15470  1.0000 -0.1702407463
C   C87       1.0  0.66727  0.32197  0.02674  1.0000 -0.1702407463
C   C88       1.0  0.35947  0.70477  0.02674  1.0000 -0.1702407463
C   C89       1.0  0.67803  0.70477  0.34530  1.0000 -0.1702407463
C   C90       1.0  0.45477  0.60947  0.52674  1.0000 -0.1702407463
C   C91       1.0  0.07197  0.91727  0.52674  1.0000 -0.1702407463
C   C92       1.0  0.35947  0.33273  0.65470  1.0000 -0.1702407463
C   C93       1.0  0.29523  0.32197  0.65470  1.0000 -0.1702407463
C   C94       1.0  0.66727  0.64053  0.34530  1.0000 -0.1702407463
C   C95       1.0  0.08273  0.92803  0.47326  1.0000 -0.1702407463
C   C96       1.0  0.39053  0.54523  0.47326  1.0000 -0.1702407463
C   C97       1.0  0.03756  0.39749  0.03625  1.0000 -0.1579724517
C   C98       1.0  0.14749  0.61124  0.85993  1.0000 -0.1579724517
C   C99       1.0  0.71244  0.24869  0.85993  1.0000 -0.1579724517
C   C100      1.0  0.36124  0.00131  0.96375  1.0000 -0.1579724517
C   C101      1.0  0.60251  0.96244  0.96375  1.0000 -0.1579724517
C   C102      1.0  0.99869  0.63876  0.03625  1.0000 -0.1579724517
C   C103      1.0  0.75131  0.28756  0.14007  1.0000 -0.1579724517
C   C104      1.0  0.38876  0.85251  0.14007  1.0000 -0.1579724517
C   C105      1.0  0.71244  0.85251  0.46375  1.0000 -0.1579724517
C   C106      1.0  0.60251  0.63876  0.64007  1.0000 -0.1579724517
C   C107      1.0  0.03756  0.00131  0.64007  1.0000 -0.1579724517
C   C108      1.0  0.38876  0.24869  0.53625  1.0000 -0.1579724517
C   C109      1.0  0.14749  0.28756  0.53625  1.0000 -0.1579724517
C   C110      1.0  0.75131  0.61124  0.46375  1.0000 -0.1579724517
C   C111      1.0  0.99869  0.96244  0.35993  1.0000 -0.1579724517
C   C112      1.0  0.36124  0.39749  0.35993  1.0000 -0.1579724517
C   C113      1.0  0.01112  0.33747  0.98701  1.0000 -0.0953835057
C   C114      1.0  0.08747  0.60046  0.82635  1.0000 -0.0953835057
C   C115      1.0  0.73888  0.22589  0.82635  1.0000 -0.0946281445
C   C116      1.0  0.35046  0.02411  0.01299  1.0000 -0.0946281445
C   C117      1.0  0.66253  0.98888  0.01299  1.0000 -0.0953835057
C   C118      1.0  0.97589  0.64954  0.98701  1.0000 -0.0953835057
C   C119      1.0  0.77411  0.26112  0.17365  1.0000 -0.0953835057
C   C120      1.0  0.39954  0.91253  0.17365  1.0000 -0.0953835057
C   C121      1.0  0.73888  0.91253  0.51299  1.0000 -0.0953835057
C   C122      1.0  0.66253  0.64954  0.67365  1.0000 -0.0953835057
C   C123      1.0  0.01112  0.02411  0.67365  1.0000 -0.0953835057
C   C124      1.0  0.39954  0.22589  0.48701  1.0000 -0.0946281445
C   C125      1.0  0.08747  0.26112  0.48701  1.0000 -0.0953835057
C   C126      1.0  0.77411  0.60046  0.51299  1.0000 -0.0953835057
C   C127      1.0  0.97589  0.98888  0.32635  1.0000 -0.0953835057
C   C128      1.0  0.35046  0.33747  0.32635  1.0000 -0.0953835057
C   C129      1.0  0.89268  0.34367  0.86439  1.0000 -0.0953835057
C   C130      1.0  0.09367  0.72928  0.95099  1.0000 -0.0953835057
C   C131      1.0  0.85732  0.22171  0.95099  1.0000 -0.0953835057
C   C132      1.0  0.47928  0.02829  0.13561  1.0000 -0.0953835057
C   C133      1.0  0.65633  0.10732  0.13561  1.0000 -0.0946281445
C   C134      1.0  0.97171  0.52072  0.86439  1.0000 -0.0953835057
C   C135      1.0  0.77829  0.14268  0.04901  1.0000 -0.0953835057
C   C136      1.0  0.27072  0.90633  0.04901  1.0000 -0.0953835057
C   C137      1.0  0.85732  0.90633  0.63561  1.0000 -0.0953835057
C   C138      1.0  0.65633  0.52072  0.54901  1.0000 -0.0953835057
C   C139      1.0  0.89268  0.02829  0.54901  1.0000 -0.0953835057
C   C140      1.0  0.27072  0.22171  0.36439  1.0000 -0.0953835057
C   C141      1.0  0.09367  0.14268  0.36439  1.0000 -0.0953835057
C   C142      1.0  0.77829  0.72928  0.63561  1.0000 -0.0953835057
C   C143      1.0  0.97171  0.10732  0.45099  1.0000 -0.0953835057
C   C144      1.0  0.47928  0.34367  0.45099  1.0000 -0.0953835057
C   C145      1.0  0.15759  0.65759  0.31518  1.0000 0.5795328724
C   C146      1.0  0.40759  0.59241  0.00000  1.0000 0.5795328724
C   C147      1.0  0.59241  0.40759  0.00000  1.0000 0.5795328724
C   C148      1.0  0.34241  0.84241  0.68482  1.0000 0.5795328724
C   C149      1.0  0.59241  0.59241  0.18482  1.0000 0.5795328724
C   C150      1.0  0.34241  0.65759  0.50000  1.0000 0.5795328724
C   C151      1.0  0.15759  0.84241  0.50000  1.0000 0.5795328724
C   C152      1.0  0.40759  0.40759  0.81518  1.0000 0.5795328724
C   C153      1.0  0.91925  0.40314  0.91333  1.0000 -0.1514338241
C   C154      1.0  0.15314  0.73981  0.98389  1.0000 -0.1514338241
C   C155      1.0  0.83075  0.24408  0.98389  1.0000 -0.1514338241
C   C156      1.0  0.48981  0.00592  0.08667  1.0000 -0.1514338241
C   C157      1.0  0.59686  0.08075  0.08667  1.0000 -0.1514338241
C   C158      1.0  0.99408  0.51019  0.91333  1.0000 -0.1514338241
C   C159      1.0  0.75592  0.16925  0.01611  1.0000 -0.1514338241
C   C160      1.0  0.26019  0.84686  0.01611  1.0000 -0.1514338241
C   C161      1.0  0.83075  0.84686  0.58667  1.0000 -0.1514338241
C   C162      1.0  0.59686  0.51019  0.51611  1.0000 -0.1514338241
C   C163      1.0  0.91925  0.00592  0.51611  1.0000 -0.1514338241
C   C164      1.0  0.26019  0.24408  0.41333  1.0000 -0.1514338241
C   C165      1.0  0.15314  0.16925  0.41333  1.0000 -0.1514338241
C   C166      1.0  0.75592  0.73981  0.58667  1.0000 -0.1514338241
C   C167      1.0  0.99408  0.08075  0.48389  1.0000 -0.1514338241
C   C168      1.0  0.48981  0.40314  0.48389  1.0000 -0.1514338241
C   C169      1.0  0.08553  0.17928  0.02233  1.0000 0.0256174438
C   C170      1.0  0.92928  0.40695  0.59375  1.0000 0.0256174438
C   C171      1.0  0.66447  0.18680  0.59375  1.0000 0.0256174438
C   C172      1.0  0.15695  0.06320  0.97767  1.0000 0.0256174438
C   C173      1.0  0.82072  0.91447  0.97767  1.0000 0.0256174438
C   C174      1.0  0.93680  0.84305  0.02233  1.0000 0.0256174438
C   C175      1.0  0.81320  0.33553  0.40625  1.0000 0.0256174438
C   C176      1.0  0.59305  0.07072  0.40625  1.0000 0.0256174438
C   C177      1.0  0.66447  0.07072  0.47767  1.0000 0.0256174438
C   C178      1.0  0.82072  0.84305  0.90625  1.0000 0.0256174438
C   C179      1.0  0.08553  0.06320  0.90625  1.0000 0.0256174438
C   C180      1.0  0.59305  0.18680  0.52233  1.0000 0.0256174438
C   C181      1.0  0.92928  0.33553  0.52233  1.0000 0.0256174438
C   C182      1.0  0.81320  0.40695  0.47767  1.0000 0.0256174438
C   C183      1.0  0.93680  0.91447  0.09375  1.0000 0.0256174438
C   C184      1.0  0.15695  0.17928  0.09375  1.0000 0.0256174438
N   N1        1.0  0.04986  0.12143  0.92843  1.0000 -0.1780428518
N   N2        1.0  0.87143  0.44300  0.57157  1.0000 -0.1780428518
N   N3        1.0  0.70014  0.12857  0.57157  1.0000 -0.1780428518
N   N4        1.0  0.19300  0.12143  0.07157  1.0000 -0.1780428518
N   N5        1.0  0.87857  0.95014  0.07157  1.0000 -0.1780428518
N   N6        1.0  0.87857  0.80700  0.92843  1.0000 -0.1780428518
N   N7        1.0  0.87143  0.29986  0.42843  1.0000 -0.1780428518
N   N8        1.0  0.55700  0.12857  0.42843  1.0000 -0.1780428518
O   O1        1.0  0.84635  0.22013  0.76686  1.0000 -0.5007021171
O   O2        1.0  0.97013  0.70327  0.87378  1.0000 -0.5007021171
O   O3        1.0  0.90365  0.17051  0.87378  1.0000 -0.5007021171
O   O4        1.0  0.45327  0.07949  0.23314  1.0000 -0.5007021171
O   O5        1.0  0.77987  0.15365  0.23314  1.0000 -0.5007021171
O   O6        1.0  0.92051  0.54673  0.76686  1.0000 -0.5007021171
O   O7        1.0  0.82949  0.09635  0.12622  1.0000 -0.5007021171
O   O8        1.0  0.29673  0.02987  0.12622  1.0000 -0.5007021171
O   O9        1.0  0.90365  0.02987  0.73314  1.0000 -0.5007021171
O   O10       1.0  0.77987  0.54673  0.62622  1.0000 -0.5007021171
O   O11       1.0  0.84635  0.07949  0.62622  1.0000 -0.5007021171
O   O12       1.0  0.29673  0.17051  0.26686  1.0000 -0.5007021171
O   O13       1.0  0.97013  0.09635  0.26686  1.0000 -0.5007021171
O   O14       1.0  0.82949  0.70327  0.73314  1.0000 -0.5007021171
O   O15       1.0  0.92051  0.15365  0.37378  1.0000 -0.5007021171
O   O16       1.0  0.45327  0.22013  0.37378  1.0000 -0.5007021171
O   O17       1.0  0.95698  0.21668  0.88250  1.0000 -0.5189297557
O   O18       1.0  0.96668  0.58418  0.75970  1.0000 -0.5189297557
O   O19       1.0  0.79302  0.17552  0.75970  1.0000 -0.5189297557
O   O20       1.0  0.33418  0.07448  0.11750  1.0000 -0.5189297557
O   O21       1.0  0.78332  0.04302  0.11750  1.0000 -0.5189297557
O   O22       1.0  0.92552  0.66582  0.88250  1.0000 -0.5189297557
O   O23       1.0  0.82448  0.20698  0.24030  1.0000 -0.5189297557
O   O24       1.0  0.41582  0.03332  0.24030  1.0000 -0.5189297557
O   O25       1.0  0.79302  0.03332  0.61750  1.0000 -0.5189297557
O   O26       1.0  0.78332  0.66582  0.74030  1.0000 -0.5189297557
O   O27       1.0  0.95698  0.07448  0.74030  1.0000 -0.5189297557
O   O28       1.0  0.41582  0.17552  0.38250  1.0000 -0.5189297557
O   O29       1.0  0.96668  0.20698  0.38250  1.0000 -0.5189297557
O   O30       1.0  0.82448  0.58418  0.61750  1.0000 -0.5189297557
O   O31       1.0  0.92552  0.04302  0.25970  1.0000 -0.5189297557
O   O32       1.0  0.33418  0.21668  0.25970  1.0000 -0.5189297557
O   O33       1.0  0.16032  0.66045  0.35747  1.0000 -0.5189297557
O   O34       1.0  0.41045  0.55298  0.00013  1.0000 -0.5189297557
O   O35       1.0  0.58968  0.44715  0.00013  1.0000 -0.5189297557
O   O36       1.0  0.30298  0.80285  0.64253  1.0000 -0.5189297557
O   O37       1.0  0.33955  0.83968  0.64253  1.0000 -0.5189297557
O   O38       1.0  0.19715  0.69702  0.35747  1.0000 -0.5189297557
O   O39       1.0  0.55285  0.41032  0.99987  1.0000 -0.5189297557
O   O40       1.0  0.44702  0.58955  0.99987  1.0000 -0.5189297557
O   O41       1.0  0.58968  0.58955  0.14253  1.0000 -0.5189297557
O   O42       1.0  0.33955  0.69702  0.49987  1.0000 -0.5189297557
O   O43       1.0  0.16032  0.80285  0.49987  1.0000 -0.5189297557
O   O44       1.0  0.44702  0.44715  0.85747  1.0000 -0.5189297557
O   O45       1.0  0.41045  0.41032  0.85747  1.0000 -0.5189297557
O   O46       1.0  0.55285  0.55298  0.14253  1.0000 -0.5189297557
O   O47       1.0  0.19715  0.83968  0.50013  1.0000 -0.5189297557
O   O48       1.0  0.30298  0.66045  0.50013  1.0000 -0.5189297557
