# DDEC6 charges by PACMAN v1.1 (https://github.com/mtap-research/PACMAN-charge/)
data_2016[La][nan]3[ASR]1
_chemical_formula_sum              "La4 H44 C84 O24"
_cell_length_a       18.0502
_cell_length_b       18.0502
_cell_length_c       14.771
_cell_angle_alpha    79.2103
_cell_angle_beta     100.79
_cell_angle_gamma    137.889

_symmetry_space_group_name_H-M    "P 1"
_symmetry_Int_Tables_number       1

loop_
  _symmetry_equiv_pos_as_xyz
  'x, y, z'

loop_
  _atom_site_type_symbol
  _atom_site_label
  _atom_site_symmetry_multiplicity
  _atom_site_fract_x
  _atom_site_fract_y
  _atom_site_fract_z
  _atom_site_occupancy
  _atom_site_charge
La  La1       1.0  0.49110  0.10936  0.94889  1.0000 1.8739658282
La  La2       1.0  0.10936  0.49110  0.55111  1.0000 1.8739658282
La  La3       1.0  0.50890  0.89064  0.05111  1.0000 1.8739658282
La  La4       1.0  0.89064  0.50890  0.44889  1.0000 1.8739658282
H   H1        1.0  0.20580  0.68000  0.79630  1.0000 0.1336376355
H   H2        1.0  0.68000  0.20580  0.70370  1.0000 0.1336376355
H   H3        1.0  0.79420  0.32000  0.20370  1.0000 0.1336376355
H   H4        1.0  0.32000  0.79420  0.29630  1.0000 0.1336376355
H   H5        1.0  0.96370  0.65470  0.70870  1.0000 0.119602941
H   H6        1.0  0.65470  0.96370  0.79130  1.0000 0.119602941
H   H7        1.0  0.03630  0.34530  0.29130  1.0000 0.119602941
H   H8        1.0  0.34530  0.03630  0.20870  1.0000 0.119602941
H   H9        1.0  0.18700  0.84880  0.91410  1.0000 0.119602941
H   H10       1.0  0.84880  0.18700  0.58590  1.0000 0.119602941
H   H11       1.0  0.81300  0.15120  0.08590  1.0000 0.119602941
H   H12       1.0  0.15120  0.81300  0.41410  1.0000 0.119602941
H   H13       1.0  0.84850  0.62930  0.79060  1.0000 0.119602941
H   H14       1.0  0.62930  0.84850  0.70940  1.0000 0.119602941
H   H15       1.0  0.15150  0.37070  0.20940  1.0000 0.119602941
H   H16       1.0  0.37070  0.15150  0.29060  1.0000 0.119602941
H   H17       1.0  0.74780  0.65340  0.82560  1.0000 0.1110552973
H   H18       1.0  0.65340  0.74780  0.67440  1.0000 0.1110552973
H   H19       1.0  0.25220  0.34660  0.17440  1.0000 0.1110552973
H   H20       1.0  0.34660  0.25220  0.32560  1.0000 0.1110552973
H   H21       1.0  0.03070  0.95750  0.89820  1.0000 0.1110552973
H   H22       1.0  0.95750  0.03070  0.60180  1.0000 0.1110552973
H   H23       1.0  0.96930  0.04250  0.10180  1.0000 0.1110552973
H   H24       1.0  0.04250  0.96930  0.39820  1.0000 0.1110552973
H   H25       1.0  0.12950  0.93050  0.86920  1.0000 0.119602941
H   H26       1.0  0.93050  0.12950  0.63080  1.0000 0.119602941
H   H27       1.0  0.87050  0.06950  0.13080  1.0000 0.119602941
H   H28       1.0  0.06950  0.87050  0.36920  1.0000 0.119602941
H   H29       1.0  0.67070  0.65930  0.91560  1.0000 0.119602941
H   H30       1.0  0.65930  0.67070  0.58440  1.0000 0.119602941
H   H31       1.0  0.32930  0.34070  0.08440  1.0000 0.119602941
H   H32       1.0  0.34070  0.32930  0.41560  1.0000 0.119602941
H   H33       1.0  0.57320  0.68120  0.96130  1.0000 0.119602941
H   H34       1.0  0.68120  0.57320  0.53870  1.0000 0.119602941
H   H35       1.0  0.42680  0.31880  0.03870  1.0000 0.119602941
H   H36       1.0  0.31880  0.42680  0.46130  1.0000 0.119602941
H   H37       1.0  0.83450  0.00690  0.93940  1.0000 0.119602941
H   H38       1.0  0.00690  0.83450  0.56060  1.0000 0.119602941
H   H39       1.0  0.16550  0.99310  0.06060  1.0000 0.119602941
H   H40       1.0  0.99310  0.16550  0.43940  1.0000 0.119602941
H   H41       1.0  0.93090  0.98730  0.88510  1.0000 0.119602941
H   H42       1.0  0.98730  0.93090  0.61490  1.0000 0.119602941
H   H43       1.0  0.06910  0.01270  0.11490  1.0000 0.119602941
H   H44       1.0  0.01270  0.06910  0.38510  1.0000 0.119602941
C   C1        1.0  0.30954  0.81466  0.93080  1.0000 0.6059390591
C   C2        1.0  0.81466  0.30954  0.56920  1.0000 0.6049440787
C   C3        1.0  0.69046  0.18534  0.06920  1.0000 0.6049440787
C   C4        1.0  0.18534  0.69046  0.43080  1.0000 0.6049440787
C   C5        1.0  0.21072  0.77088  0.86580  1.0000 -0.019635766
C   C6        1.0  0.77088  0.21072  0.63420  1.0000 -0.019635766
C   C7        1.0  0.78928  0.22912  0.13420  1.0000 -0.019635766
C   C8        1.0  0.22912  0.78928  0.36580  1.0000 -0.019635766
C   C9        1.0  0.17110  0.69950  0.80000  1.0000 -0.0993382783
C   C10       1.0  0.69950  0.17110  0.70000  1.0000 -0.0993382783
C   C11       1.0  0.82890  0.30050  0.20000  1.0000 -0.0993382783
C   C12       1.0  0.30050  0.82890  0.30000  1.0000 -0.0993382783
C   C13       1.0  0.08037  0.65823  0.74070  1.0000 -0.014876896
C   C14       1.0  0.65823  0.08037  0.75930  1.0000 -0.014876896
C   C15       1.0  0.91963  0.34177  0.25930  1.0000 -0.014876896
C   C16       1.0  0.34177  0.91963  0.24070  1.0000 -0.014876896
C   C17       1.0  0.02567  0.68413  0.74830  1.0000 -0.1503437483
C   C18       1.0  0.68413  0.02567  0.75170  1.0000 -0.1503437483
C   C19       1.0  0.97433  0.31587  0.25170  1.0000 -0.1503437483
C   C20       1.0  0.31587  0.97433  0.24830  1.0000 -0.1503437483
C   C21       1.0  0.06294  0.75386  0.81480  1.0000 0.0675625614
C   C22       1.0  0.75386  0.06294  0.68520  1.0000 0.0675625614
C   C23       1.0  0.93706  0.24614  0.18520  1.0000 0.0675625614
C   C24       1.0  0.24614  0.93706  0.31480  1.0000 0.0675625614
C   C25       1.0  0.15849  0.79911  0.87170  1.0000 -0.1503437483
C   C26       1.0  0.79911  0.15849  0.62830  1.0000 -0.1503437483
C   C27       1.0  0.84151  0.20089  0.12830  1.0000 -0.1503437483
C   C28       1.0  0.20089  0.84151  0.37170  1.0000 -0.1503437483
C   C29       1.0  0.03883  0.58377  0.66630  1.0000 0.6273984597
C   C30       1.0  0.58377  0.03883  0.83370  1.0000 0.6273984597
C   C31       1.0  0.96117  0.41623  0.33370  1.0000 0.6273984597
C   C32       1.0  0.41623  0.96117  0.16630  1.0000 0.6273984597
C   C33       1.0  0.00107  0.77633  0.82830  1.0000 0.0675625614
C   C34       1.0  0.77633  0.00107  0.67170  1.0000 0.0675625614
C   C35       1.0  0.99893  0.22367  0.17170  1.0000 0.0675625614
C   C36       1.0  0.22367  0.99893  0.32830  1.0000 0.0675625614
C   C37       1.0  0.88576  0.69504  0.81430  1.0000 -0.1376551199
C   C38       1.0  0.69504  0.88576  0.68570  1.0000 -0.1376551199
C   C39       1.0  0.11424  0.30496  0.18570  1.0000 -0.1376551199
C   C40       1.0  0.30496  0.11424  0.31430  1.0000 -0.1376551199
C   C41       1.0  0.82470  0.70970  0.83480  1.0000 -0.1503437483
C   C42       1.0  0.70970  0.82470  0.66520  1.0000 -0.1503437483
C   C43       1.0  0.17530  0.29030  0.16520  1.0000 -0.1503437483
C   C44       1.0  0.29030  0.17530  0.33480  1.0000 -0.1503437483
C   C45       1.0  0.87811  0.80769  0.86890  1.0000 0.0626758658
C   C46       1.0  0.80769  0.87811  0.63110  1.0000 0.0626758658
C   C47       1.0  0.12189  0.19231  0.13110  1.0000 0.0626758658
C   C48       1.0  0.19231  0.12189  0.36890  1.0000 0.0626758658
C   C49       1.0  0.99271  0.88969  0.87860  1.0000 -0.1503437483
C   C50       1.0  0.88969  0.99271  0.62140  1.0000 -0.1503437483
C   C51       1.0  0.00729  0.11031  0.12140  1.0000 -0.1503437483
C   C52       1.0  0.11031  0.00729  0.37860  1.0000 -0.1503437483
C   C53       1.0  0.05270  0.87390  0.86000  1.0000 -0.1376551199
C   C54       1.0  0.87390  0.05270  0.64000  1.0000 -0.1376551199
C   C55       1.0  0.94730  0.12610  0.14000  1.0000 -0.1376551199
C   C56       1.0  0.12610  0.94730  0.36000  1.0000 -0.1376551199
C   C57       1.0  0.81422  0.82198  0.89740  1.0000 0.0675625614
C   C58       1.0  0.82198  0.81422  0.60260  1.0000 0.0675625614
C   C59       1.0  0.18578  0.17802  0.10260  1.0000 0.0675625614
C   C60       1.0  0.17802  0.18578  0.39740  1.0000 0.0675625614
C   C61       1.0  0.70500  0.73020  0.91990  1.0000 -0.156579507
C   C62       1.0  0.73020  0.70500  0.58010  1.0000 -0.156579507
C   C63       1.0  0.29500  0.26980  0.08010  1.0000 -0.156579507
C   C64       1.0  0.26980  0.29500  0.41990  1.0000 -0.156579507
C   C65       1.0  0.64696  0.74364  0.94880  1.0000 -0.0993382783
C   C66       1.0  0.74364  0.64696  0.55120  1.0000 -0.0993382783
C   C67       1.0  0.35304  0.25636  0.05120  1.0000 -0.0993382783
C   C68       1.0  0.25636  0.35304  0.44880  1.0000 -0.0993382783
C   C69       1.0  0.69537  0.84683  0.95970  1.0000 -0.0273407213
C   C70       1.0  0.84683  0.69537  0.54030  1.0000 -0.0273407213
C   C71       1.0  0.30463  0.15317  0.04030  1.0000 -0.0273407213
C   C72       1.0  0.15317  0.30463  0.45970  1.0000 -0.0273407213
C   C73       1.0  0.80063  0.93617  0.93500  1.0000 -0.0993382783
C   C74       1.0  0.93617  0.80063  0.56500  1.0000 -0.0993382783
C   C75       1.0  0.19937  0.06383  0.06500  1.0000 -0.0993382783
C   C76       1.0  0.06383  0.19937  0.43500  1.0000 -0.0993382783
C   C77       1.0  0.85950  0.92430  0.90300  1.0000 -0.156579507
C   C78       1.0  0.92430  0.85950  0.59700  1.0000 -0.156579507
C   C79       1.0  0.14050  0.07570  0.09700  1.0000 -0.156579507
C   C80       1.0  0.07570  0.14050  0.40300  1.0000 -0.156579507
C   C81       1.0  0.63335  0.85985  0.99610  1.0000 0.567011206
C   C82       1.0  0.85985  0.63335  0.50390  1.0000 0.567011206
C   C83       1.0  0.36665  0.14015  0.00390  1.0000 0.567011206
C   C84       1.0  0.14015  0.36665  0.49610  1.0000 0.567011206
O   O1        1.0  0.37164  0.90736  0.96360  1.0000 -0.6822499349
O   O2        1.0  0.90736  0.37164  0.53640  1.0000 -0.6822499349
O   O3        1.0  0.62836  0.09264  0.03640  1.0000 -0.6822499349
O   O4        1.0  0.09264  0.62836  0.46360  1.0000 -0.6822499349
O   O5        1.0  0.32679  0.75721  0.95070  1.0000 -0.5663244142
O   O6        1.0  0.75721  0.32679  0.54930  1.0000 -0.5663244142
O   O7        1.0  0.67321  0.24279  0.04930  1.0000 -0.5663244142
O   O8        1.0  0.24279  0.67321  0.45070  1.0000 -0.5663244142
O   O9        1.0  0.09292  0.56448  0.66350  1.0000 -0.6488969042
O   O10       1.0  0.56448  0.09292  0.83650  1.0000 -0.6488969042
O   O11       1.0  0.90708  0.43552  0.33650  1.0000 -0.6488969042
O   O12       1.0  0.43552  0.90708  0.16350  1.0000 -0.6488969042
O   O13       1.0  0.95398  0.54602  0.61570  1.0000 -0.6026994451
O   O14       1.0  0.54602  0.95398  0.88430  1.0000 -0.6026994451
O   O15       1.0  0.04602  0.45398  0.38430  1.0000 -0.6026994451
O   O16       1.0  0.45398  0.04602  0.11570  1.0000 -0.6026994451
O   O17       1.0  0.52997  0.77703  0.00290  1.0000 -0.593727143
O   O18       1.0  0.77703  0.52997  0.49710  1.0000 -0.593727143
O   O19       1.0  0.47003  0.22297  0.99710  1.0000 -0.593727143
O   O20       1.0  0.22297  0.47003  0.50290  1.0000 -0.593727143
O   O21       1.0  0.68736  0.95364  0.02130  1.0000 -0.6078933193
O   O22       1.0  0.95364  0.68736  0.47870  1.0000 -0.6078933193
O   O23       1.0  0.31264  0.04636  0.97870  1.0000 -0.6078933193
O   O24       1.0  0.04636  0.31264  0.52130  1.0000 -0.6078933193
