# DDEC6 charges by PACMAN v1.1 (https://github.com/mtap-research/PACMAN-charge/)
data_2016[CeCu][nan]3[ASR]1
_chemical_formula_sum              "Ce2 Cu8 H48 C72 I8 N6 O12"
_cell_length_a       9.758
_cell_length_b       16.575
_cell_length_c       21.452
_cell_angle_alpha    104.13
_cell_angle_beta     100.68
_cell_angle_gamma    96.53

_symmetry_space_group_name_H-M    "P 1"
_symmetry_Int_Tables_number       1

loop_
  _symmetry_equiv_pos_as_xyz
  'x, y, z'

loop_
  _atom_site_type_symbol
  _atom_site_label
  _atom_site_symmetry_multiplicity
  _atom_site_fract_x
  _atom_site_fract_y
  _atom_site_fract_z
  _atom_site_occupancy
  _atom_site_charge
Ce  Ce1       1.0  0.27720  0.51746  0.99827  1.0000 2.0588961551
Ce  Ce2       1.0  0.72280  0.48254  0.00173  1.0000 2.0588961551
Cu  Cu1       1.0  0.01258  0.94228  0.53908  1.0000 0.1430327529
Cu  Cu2       1.0  0.98742  0.05772  0.46092  1.0000 0.1430327529
Cu  Cu3       1.0  0.75388  0.82695  0.50223  1.0000 0.1538230101
Cu  Cu4       1.0  0.24612  0.17305  0.49777  1.0000 0.1538230101
Cu  Cu5       1.0  0.82017  0.94511  0.62078  1.0000 0.1538230101
Cu  Cu6       1.0  0.17983  0.05489  0.37922  1.0000 0.1538230101
Cu  Cu7       1.0  0.96305  0.81685  0.59713  1.0000 0.155510799
Cu  Cu8       1.0  0.03695  0.18315  0.40287  1.0000 0.1538230101
H   H1        1.0  0.44940  0.83470  0.47030  1.0000 0.1027535247
H   H2        1.0  0.55060  0.16530  0.52970  1.0000 0.1027535247
H   H3        1.0  0.24240  0.75800  0.40310  1.0000 0.1291775812
H   H4        1.0  0.75760  0.24200  0.59690  1.0000 0.1291775812
H   H5        1.0  0.46750  0.60110  0.30790  1.0000 0.1291775812
H   H6        1.0  0.53250  0.39890  0.69210  1.0000 0.1291775812
H   H7        1.0  0.66580  0.68140  0.38070  1.0000 0.1027535247
H   H8        1.0  0.33420  0.31860  0.61930  1.0000 0.1027535247
H   H9        1.0  0.27160  0.60890  0.21540  1.0000 0.1218031254
H   H10       1.0  0.72840  0.39110  0.78460  1.0000 0.1218031254
H   H11       1.0  0.86550  0.49950  0.18060  1.0000 0.1218031254
H   H12       1.0  0.13450  0.50050  0.81940  1.0000 0.1218031254
H   H13       1.0  0.87020  0.54350  0.29120  1.0000 0.1218031254
H   H14       1.0  0.12980  0.45650  0.70880  1.0000 0.1218031254
H   H15       1.0  0.06910  0.62590  0.36340  1.0000 0.1118620755
H   H16       1.0  0.93090  0.37410  0.63660  1.0000 0.1118620755
H   H17       1.0  0.85790  0.11990  0.72070  1.0000 0.1118620755
H   H18       1.0  0.14210  0.88010  0.27930  1.0000 0.1118620755
H   H19       1.0  0.72410  0.20860  0.76360  1.0000 0.1291775812
H   H20       1.0  0.27590  0.79140  0.23640  1.0000 0.1291775812
H   H21       1.0  0.37590  0.03870  0.65560  1.0000 0.1218031254
H   H22       1.0  0.62410  0.96130  0.34440  1.0000 0.1218031254
H   H23       1.0  0.52840  0.95320  0.62140  1.0000 0.1027535247
H   H24       1.0  0.47160  0.04680  0.37860  1.0000 0.1027535247
H   H25       1.0  0.56250  0.26100  0.82890  1.0000 0.1218031254
H   H26       1.0  0.43750  0.73900  0.17110  1.0000 0.1218031254
H   H27       1.0  0.17930  0.32630  0.80290  1.0000 0.1118620755
H   H28       1.0  0.82070  0.67370  0.19710  1.0000 0.1118620755
H   H29       1.0  0.11790  0.23760  0.69800  1.0000 0.1118620755
H   H30       1.0  0.88210  0.76240  0.30200  1.0000 0.1118620755
H   H31       1.0  0.27050  0.14960  0.66050  1.0000 0.1118620755
H   H32       1.0  0.72950  0.85040  0.33950  1.0000 0.1118620755
H   H33       1.0  0.26650  0.80540  0.61390  1.0000 0.1027535247
H   H34       1.0  0.73350  0.19460  0.38610  1.0000 0.1027535247
H   H35       1.0  0.43170  0.74050  0.66530  1.0000 0.1218031254
H   H36       1.0  0.56830  0.25950  0.33470  1.0000 0.1218031254
H   H37       1.0  0.12990  0.62830  0.73250  1.0000 0.1218031254
H   H38       1.0  0.87010  0.37170  0.26750  1.0000 0.1218031254
H   H39       1.0  0.96920  0.67980  0.67210  1.0000 0.1118620755
H   H40       1.0  0.03080  0.32020  0.32790  1.0000 0.1118620755
H   H41       1.0  0.31050  0.63480  0.81800  1.0000 0.1218031254
H   H42       1.0  0.68950  0.36520  0.18200  1.0000 0.1218031254
H   H43       1.0  0.68850  0.55880  0.84530  1.0000 0.1218031254
H   H44       1.0  0.31150  0.44120  0.15470  1.0000 0.1218031254
H   H45       1.0  0.70820  0.57030  0.73820  1.0000 0.1118620755
H   H46       1.0  0.29180  0.42970  0.26180  1.0000 0.1118620755
H   H47       1.0  0.54130  0.62620  0.67850  1.0000 0.1218031254
H   H48       1.0  0.45870  0.37380  0.32150  1.0000 0.1218031254
C   C1        1.0  0.45280  0.78620  0.43830  1.0000 0.0791551878
C   C2        1.0  0.54720  0.21380  0.56170  1.0000 0.0791551878
C   C3        1.0  0.32790  0.74170  0.39650  1.0000 -0.1969574929
C   C4        1.0  0.67210  0.25830  0.60350  1.0000 -0.1969574929
C   C5        1.0  0.32890  0.67210  0.34440  1.0000 0.1118620755
C   C6        1.0  0.67110  0.32790  0.65560  1.0000 0.1118620755
C   C7        1.0  0.45990  0.64830  0.34020  1.0000 -0.1969574929
C   C8        1.0  0.54010  0.35170  0.65980  1.0000 -0.1969574929
C   C9        1.0  0.57860  0.69660  0.38540  1.0000 0.0791551878
C   C10       1.0  0.42140  0.30340  0.61460  1.0000 0.0791551878
C   C11       1.0  0.19640  0.62320  0.29800  1.0000 0.0584396878
C   C12       1.0  0.80360  0.37680  0.70200  1.0000 0.0584396878
C   C13       1.0  0.19080  0.59710  0.23080  1.0000 -0.1586612305
C   C14       1.0  0.80920  0.40290  0.76920  1.0000 -0.1586612305
C   C15       1.0  0.06740  0.55380  0.18630  1.0000 -0.0352312708
C   C16       1.0  0.93260  0.44620  0.81370  1.0000 -0.0352312708
C   C17       1.0  0.94690  0.53180  0.20980  1.0000 -0.1192798903
C   C18       1.0  0.05310  0.46820  0.79020  1.0000 -0.1192798903
C   C19       1.0  0.94990  0.55780  0.27570  1.0000 -0.0990872374
C   C20       1.0  0.05010  0.44220  0.72430  1.0000 -0.0990872374
C   C21       1.0  0.07060  0.60530  0.31920  1.0000 -0.1431209436
C   C22       1.0  0.92940  0.39470  0.68080  1.0000 -0.1431209436
C   C23       1.0  0.06050  0.52740  0.11420  1.0000 0.6415108452
C   C24       1.0  0.93950  0.47260  0.88580  1.0000 0.6415108452
C   C25       1.0  0.76010  0.10380  0.70870  1.0000 0.0584396878
C   C26       1.0  0.23990  0.89620  0.29130  1.0000 0.0584396878
C   C27       1.0  0.68060  0.15730  0.73370  1.0000 -0.1969574929
C   C28       1.0  0.31940  0.84270  0.26630  1.0000 -0.1969574929
C   C29       1.0  0.53170  0.13860  0.71630  1.0000 0.1218031254
C   C30       1.0  0.46830  0.86140  0.28370  1.0000 0.1218031254
C   C31       1.0  0.47300  0.05640  0.67030  1.0000 -0.2079827478
C   C32       1.0  0.52700  0.94360  0.32970  1.0000 -0.2079827478
C   C33       1.0  0.56640  0.00640  0.64970  1.0000 0.0914175296
C   C34       1.0  0.43360  0.99360  0.35030  1.0000 0.0914175296
C   C35       1.0  0.43330  0.19440  0.74060  1.0000 0.0508744056
C   C36       1.0  0.56670  0.80560  0.25940  1.0000 0.0508744056
C   C37       1.0  0.47180  0.25430  0.80320  1.0000 -0.1510949721
C   C38       1.0  0.52820  0.74570  0.19680  1.0000 -0.1510949721
C   C39       1.0  0.37720  0.30250  0.82650  1.0000 -0.0352312708
C   C40       1.0  0.62280  0.69750  0.17350  1.0000 -0.0352312708
C   C41       1.0  0.24410  0.29430  0.78700  1.0000 -0.0990872374
C   C42       1.0  0.75590  0.70570  0.21300  1.0000 -0.0990872374
C   C43       1.0  0.20570  0.23990  0.72470  1.0000 -0.0990872374
C   C44       1.0  0.79430  0.76010  0.27530  1.0000 -0.0990872374
C   C45       1.0  0.29820  0.18830  0.70180  1.0000 -0.1263336381
C   C46       1.0  0.70180  0.81170  0.29820  1.0000 -0.1263336381
C   C47       1.0  0.41760  0.36380  0.89300  1.0000 0.6415108452
C   C48       1.0  0.58240  0.63620  0.10700  1.0000 0.6415108452
C   C49       1.0  0.23820  0.76770  0.63660  1.0000 0.0791551878
C   C50       1.0  0.76180  0.23230  0.36340  1.0000 0.0791551878
C   C51       1.0  0.33820  0.73030  0.66890  1.0000 -0.1781687392
C   C52       1.0  0.66180  0.26970  0.33110  1.0000 -0.1781687392
C   C53       1.0  0.30090  0.67770  0.70690  1.0000 0.1118620755
C   C54       1.0  0.69910  0.32230  0.29310  1.0000 0.1118620755
C   C55       1.0  0.15960  0.66240  0.70730  1.0000 -0.1781687392
C   C56       1.0  0.84040  0.33760  0.29270  1.0000 -0.1781687392
C   C57       1.0  0.06410  0.69520  0.67250  1.0000 0.0666465657
C   C58       1.0  0.93590  0.30480  0.32750  1.0000 0.0666465657
C   C59       1.0  0.41030  0.63930  0.74340  1.0000 0.0666465657
C   C60       1.0  0.58970  0.36070  0.25660  1.0000 0.0666465657
C   C61       1.0  0.39180  0.62390  0.80290  1.0000 -0.1586612305
C   C62       1.0  0.60820  0.37610  0.19710  1.0000 -0.1586612305
C   C63       1.0  0.49530  0.59210  0.83960  1.0000 -0.014461739
C   C64       1.0  0.50470  0.40790  0.16040  1.0000 -0.014461739
C   C65       1.0  0.61690  0.57580  0.81890  1.0000 -0.1192798903
C   C66       1.0  0.38310  0.42420  0.18110  1.0000 -0.1192798903
C   C67       1.0  0.63080  0.58590  0.75490  1.0000 -0.0930907121
C   C68       1.0  0.36920  0.41410  0.24510  1.0000 -0.0930907121
C   C69       1.0  0.53050  0.61820  0.71880  1.0000 -0.1510949721
C   C70       1.0  0.46950  0.38180  0.28120  1.0000 -0.1510949721
C   C71       1.0  0.47240  0.57500  0.90320  1.0000 0.6297813961
C   C72       1.0  0.52760  0.42500  0.09680  1.0000 0.6297813961
I   I1        1.0  0.76373  0.99164  0.50025  1.0000 -0.2492662733
I   I2        1.0  0.23627  0.00836  0.49975  1.0000 -0.2492662733
I   I3        1.0  0.98493  0.77848  0.46957  1.0000 -0.2926570466
I   I4        1.0  0.01507  0.22152  0.53043  1.0000 -0.2926570466
I   I5        1.0  0.08712  0.97835  0.67145  1.0000 -0.2492662733
I   I6        1.0  0.91288  0.02165  0.32855  1.0000 -0.2492662733
I   I7        1.0  0.70094  0.78769  0.61220  1.0000 -0.3333416721
I   I8        1.0  0.29906  0.21231  0.38780  1.0000 -0.3333416721
N   N1        1.0  0.57820  0.76310  0.43490  1.0000 -0.1781687392
N   N2        1.0  0.42180  0.23690  0.56510  1.0000 -0.1781687392
N   N3        1.0  0.70560  0.02610  0.66610  1.0000 -0.1781687392
N   N4        1.0  0.29440  0.97390  0.33390  1.0000 -0.1781687392
N   N5        1.0  0.09790  0.74990  0.63750  1.0000 -0.1586612305
N   N6        1.0  0.90210  0.25010  0.36250  1.0000 -0.1586612305
O   O1        1.0  0.17320  0.54930  0.09430  1.0000 -0.6867673984
O   O2        1.0  0.82680  0.45070  0.90570  1.0000 -0.6867673984
O   O3        1.0  0.94590  0.48920  0.07510  1.0000 -0.6592618218
O   O4        1.0  0.05410  0.51080  0.92490  1.0000 -0.6592618218
O   O5        1.0  0.54380  0.37030  0.92640  1.0000 -0.6482132962
O   O6        1.0  0.45620  0.62970  0.07360  1.0000 -0.6482132962
O   O7        1.0  0.32430  0.40520  0.91200  1.0000 -0.6592618218
O   O8        1.0  0.67570  0.59480  0.08800  1.0000 -0.6592618218
O   O9        1.0  0.35500  0.58710  0.91880  1.0000 -0.6294475785
O   O10       1.0  0.64500  0.41290  0.08120  1.0000 -0.6294475785
O   O11       1.0  0.56880  0.54990  0.93720  1.0000 -0.6716367593
O   O12       1.0  0.43120  0.45010  0.06280  1.0000 -0.6716367593
