# DDEC6 charges by PACMAN v1.1 (https://github.com/mtap-research/PACMAN-charge/)
data_2016[Co][cds]3[ASR]1
_chemical_formula_sum              "Co4 H112 C104 N32 O16"
_cell_length_a       10.6402
_cell_length_b       13.6428
_cell_length_c       20.9029
_cell_angle_alpha    90
_cell_angle_beta     95.418
_cell_angle_gamma    90

_symmetry_space_group_name_H-M    "P 1"
_symmetry_Int_Tables_number       1

loop_
  _symmetry_equiv_pos_as_xyz
  'x, y, z'

loop_
  _atom_site_type_symbol
  _atom_site_label
  _atom_site_symmetry_multiplicity
  _atom_site_fract_x
  _atom_site_fract_y
  _atom_site_fract_z
  _atom_site_occupancy
  _atom_site_charge
Co  Co1       1.0  0.50000  0.50000  0.00000  1.0000 0.7366667768
Co  Co2       1.0  0.50000  0.00000  0.50000  1.0000 0.7366667768
Co  Co3       1.0  0.00000  0.50000  0.50000  1.0000 0.6954785666
Co  Co4       1.0  0.00000  0.00000  0.00000  1.0000 0.6954785666
H   H1        1.0  0.43560  0.63090  0.81830  1.0000 0.1124890918
H   H2        1.0  0.56440  0.13090  0.68170  1.0000 0.1124890918
H   H3        1.0  0.56440  0.36910  0.18170  1.0000 0.1124890918
H   H4        1.0  0.43560  0.86910  0.31830  1.0000 0.1124890918
H   H5        1.0  0.20180  0.41210  0.76000  1.0000 0.1293219931
H   H6        1.0  0.79820  0.91210  0.74000  1.0000 0.1293219931
H   H7        1.0  0.79820  0.58790  0.24000  1.0000 0.1293219931
H   H8        1.0  0.20180  0.08790  0.26000  1.0000 0.1293219931
H   H9        1.0  0.29240  0.61710  0.63500  1.0000 0.1124890918
H   H10       1.0  0.70760  0.11710  0.86500  1.0000 0.1124890918
H   H11       1.0  0.70760  0.38290  0.36500  1.0000 0.1124890918
H   H12       1.0  0.29240  0.88290  0.13500  1.0000 0.1124890918
H   H13       1.0  0.70980  0.40140  0.49210  1.0000 0.1293219931
H   H14       1.0  0.29020  0.90140  0.00790  1.0000 0.1293219931
H   H15       1.0  0.29020  0.59860  0.50790  1.0000 0.1293219931
H   H16       1.0  0.70980  0.09860  0.99210  1.0000 0.1293219931
H   H17       1.0  0.80090  0.40050  0.00350  1.0000 0.1217131512
H   H18       1.0  0.19910  0.90050  0.49650  1.0000 0.1217131512
H   H19       1.0  0.19910  0.59950  0.99650  1.0000 0.1217131512
H   H20       1.0  0.80090  0.09950  0.50350  1.0000 0.1217131512
H   H21       1.0  0.61680  0.55770  0.87740  1.0000 0.2775858871
H   H22       1.0  0.38320  0.05770  0.62260  1.0000 0.2775858871
H   H23       1.0  0.38320  0.44230  0.12260  1.0000 0.2775858871
H   H24       1.0  0.61680  0.94230  0.37740  1.0000 0.2775858871
H   H25       1.0  0.80400  0.51730  0.83080  1.0000 0.1293219931
H   H26       1.0  0.19600  0.01730  0.66920  1.0000 0.1293219931
H   H27       1.0  0.19600  0.48270  0.16920  1.0000 0.1293219931
H   H28       1.0  0.80400  0.98270  0.33080  1.0000 0.1293219931
H   H29       1.0  0.04490  0.44980  0.92160  1.0000 0.1217131512
H   H30       1.0  0.95510  0.94980  0.57840  1.0000 0.1217131512
H   H31       1.0  0.95510  0.55020  0.07840  1.0000 0.1217131512
H   H32       1.0  0.04490  0.05020  0.42160  1.0000 0.1217131512
H   H33       1.0  0.98890  0.38260  0.86500  1.0000 0.1293219931
H   H34       1.0  0.01110  0.88260  0.63500  1.0000 0.1293219931
H   H35       1.0  0.01110  0.61740  0.13500  1.0000 0.1293219931
H   H36       1.0  0.98890  0.11740  0.36500  1.0000 0.1293219931
H   H37       1.0  0.88040  0.53420  0.63550  1.0000 0.2775858871
H   H38       1.0  0.11960  0.03420  0.86450  1.0000 0.2775858871
H   H39       1.0  0.11960  0.46580  0.36450  1.0000 0.2775858871
H   H40       1.0  0.88040  0.96580  0.13550  1.0000 0.2775858871
H   H41       1.0  0.67840  0.50000  0.66730  1.0000 0.1365401118
H   H42       1.0  0.32160  0.00000  0.83270  1.0000 0.1365401118
H   H43       1.0  0.32160  0.50000  0.33270  1.0000 0.1365401118
H   H44       1.0  0.67840  0.00000  0.16730  1.0000 0.1365401118
H   H45       1.0  0.34190  0.77240  0.62860  1.0000 0.1217131512
H   H46       1.0  0.65810  0.27240  0.87140  1.0000 0.1217131512
H   H47       1.0  0.65810  0.22760  0.37140  1.0000 0.1217131512
H   H48       1.0  0.34190  0.72760  0.12860  1.0000 0.1217131512
H   H49       1.0  0.47380  0.82450  0.63460  1.0000 0.1365401118
H   H50       1.0  0.52620  0.32450  0.86540  1.0000 0.1365401118
H   H51       1.0  0.52620  0.17550  0.36540  1.0000 0.1365401118
H   H52       1.0  0.47380  0.67550  0.13460  1.0000 0.1365401118
H   H53       1.0  0.46290  0.71420  0.61370  1.0000 0.1217131512
H   H54       1.0  0.53710  0.21420  0.88630  1.0000 0.1217131512
H   H55       1.0  0.53710  0.28580  0.38630  1.0000 0.1217131512
H   H56       1.0  0.46290  0.78580  0.11370  1.0000 0.1217131512
H   H57       1.0  0.31900  0.83070  0.73460  1.0000 0.1217131512
H   H58       1.0  0.68100  0.33070  0.76540  1.0000 0.1217131512
H   H59       1.0  0.68100  0.16930  0.26540  1.0000 0.1217131512
H   H60       1.0  0.31900  0.66930  0.23460  1.0000 0.1217131512
H   H61       1.0  0.41240  0.79980  0.79370  1.0000 0.1217131512
H   H62       1.0  0.58760  0.29980  0.70630  1.0000 0.1217131512
H   H63       1.0  0.58760  0.20020  0.20630  1.0000 0.1217131512
H   H64       1.0  0.41240  0.70020  0.29370  1.0000 0.1217131512
H   H65       1.0  0.45610  0.87390  0.74290  1.0000 0.1217131512
H   H66       1.0  0.54390  0.37390  0.75710  1.0000 0.1217131512
H   H67       1.0  0.54390  0.12610  0.25710  1.0000 0.1217131512
H   H68       1.0  0.45610  0.62610  0.24290  1.0000 0.1217131512
H   H69       1.0  0.59830  0.69840  0.77610  1.0000 0.1217131512
H   H70       1.0  0.40170  0.19840  0.72390  1.0000 0.1217131512
H   H71       1.0  0.40170  0.30160  0.22390  1.0000 0.1217131512
H   H72       1.0  0.59830  0.80160  0.27610  1.0000 0.1217131512
H   H73       1.0  0.62230  0.66750  0.70600  1.0000 0.1217131512
H   H74       1.0  0.37770  0.16750  0.79400  1.0000 0.1217131512
H   H75       1.0  0.37770  0.33250  0.29400  1.0000 0.1217131512
H   H76       1.0  0.62230  0.83250  0.20600  1.0000 0.1217131512
H   H77       1.0  0.63370  0.77790  0.72670  1.0000 0.1365401118
H   H78       1.0  0.36630  0.27790  0.77330  1.0000 0.1365401118
H   H79       1.0  0.36630  0.22210  0.27330  1.0000 0.1365401118
H   H80       1.0  0.63370  0.72210  0.22670  1.0000 0.1365401118
H   H81       1.0  0.08330  0.19570  0.07030  1.0000 0.2689943693
H   H82       1.0  0.91670  0.69570  0.42970  1.0000 0.2689943693
H   H83       1.0  0.91670  0.80430  0.92970  1.0000 0.2689943693
H   H84       1.0  0.08330  0.30430  0.57030  1.0000 0.2689943693
H   H85       1.0  0.95040  0.19190  0.89480  1.0000 0.1217131512
H   H86       1.0  0.04960  0.69190  0.60520  1.0000 0.1217131512
H   H87       1.0  0.04960  0.80810  0.10520  1.0000 0.1217131512
H   H88       1.0  0.95040  0.30810  0.39480  1.0000 0.1217131512
H   H89       1.0  0.08040  0.36110  0.03910  1.0000 0.1217131512
H   H90       1.0  0.91960  0.86110  0.46090  1.0000 0.1217131512
H   H91       1.0  0.91960  0.63890  0.96090  1.0000 0.1217131512
H   H92       1.0  0.08040  0.13890  0.53910  1.0000 0.1217131512
H   H93       1.0  0.31550  0.17340  0.45290  1.0000 0.2689943693
H   H94       1.0  0.68450  0.67340  0.04710  1.0000 0.2689943693
H   H95       1.0  0.68450  0.82660  0.54710  1.0000 0.2689943693
H   H96       1.0  0.31550  0.32660  0.95290  1.0000 0.2689943693
H   H97       1.0  0.60920  0.21360  0.57010  1.0000 0.1293219931
H   H98       1.0  0.39080  0.71360  0.92990  1.0000 0.1293219931
H   H99       1.0  0.39080  0.78640  0.42990  1.0000 0.1293219931
H   H100      1.0  0.60920  0.28640  0.07010  1.0000 0.1293219931
H   H101      1.0  0.48000  0.40250  0.61740  1.0000 0.1365401118
H   H102      1.0  0.52000  0.90250  0.88260  1.0000 0.1365401118
H   H103      1.0  0.52000  0.59750  0.38260  1.0000 0.1365401118
H   H104      1.0  0.48000  0.09750  0.11740  1.0000 0.1365401118
H   H105      1.0  0.45430  0.46080  0.55310  1.0000 0.1293219931
H   H106      1.0  0.54570  0.96080  0.94690  1.0000 0.1293219931
H   H107      1.0  0.54570  0.53920  0.44690  1.0000 0.1293219931
H   H108      1.0  0.45430  0.03920  0.05310  1.0000 0.1293219931
H   H109      1.0  0.30760  0.34130  0.48180  1.0000 0.1217131512
H   H110      1.0  0.69240  0.84130  0.01820  1.0000 0.1217131512
H   H111      1.0  0.69240  0.65870  0.51820  1.0000 0.1217131512
H   H112      1.0  0.30760  0.15870  0.98180  1.0000 0.1217131512
C   C1        1.0  0.32036  0.51620  0.79958  1.0000 -0.0267446014
C   C2        1.0  0.67964  0.01620  0.70042  1.0000 -0.0267446014
C   C3        1.0  0.67964  0.48380  0.20042  1.0000 -0.0267446014
C   C4        1.0  0.32036  0.98380  0.29958  1.0000 -0.0267446014
C   C5        1.0  0.38512  0.60002  0.78553  1.0000 -0.1803676301
C   C6        1.0  0.61488  0.10002  0.71447  1.0000 -0.1803676301
C   C7        1.0  0.61488  0.39998  0.21447  1.0000 -0.1803676301
C   C8        1.0  0.38512  0.89998  0.28553  1.0000 -0.1803676301
C   C9        1.0  0.24514  0.46894  0.75112  1.0000 -0.1418365159
C   C10       1.0  0.75486  0.96894  0.74888  1.0000 -0.1418365159
C   C11       1.0  0.75486  0.53106  0.24888  1.0000 -0.1418365159
C   C12       1.0  0.24514  0.03106  0.25112  1.0000 -0.1418365159
C   C13       1.0  0.23520  0.50744  0.68907  1.0000 -0.0267446014
C   C14       1.0  0.76480  0.00744  0.81093  1.0000 -0.0267446014
C   C15       1.0  0.76480  0.49256  0.31093  1.0000 -0.0267446014
C   C16       1.0  0.23520  0.99256  0.18907  1.0000 -0.0267446014
C   C17       1.0  0.33100  0.47511  0.86731  1.0000 0.5501191697
C   C18       1.0  0.66900  0.97511  0.63269  1.0000 0.5501191697
C   C19       1.0  0.66900  0.52489  0.13269  1.0000 0.5501191697
C   C20       1.0  0.33100  0.02489  0.36731  1.0000 0.5501191697
C   C21       1.0  0.30042  0.59186  0.67647  1.0000 -0.1803676301
C   C22       1.0  0.69958  0.09186  0.82353  1.0000 -0.1803676301
C   C23       1.0  0.69958  0.40814  0.32353  1.0000 -0.1803676301
C   C24       1.0  0.30042  0.90814  0.17647  1.0000 -0.1803676301
C   C25       1.0  0.72720  0.43126  0.53195  1.0000 -0.0768289088
C   C26       1.0  0.27280  0.93126  0.96805  1.0000 -0.0768289088
C   C27       1.0  0.27280  0.56874  0.46805  1.0000 -0.0768289088
C   C28       1.0  0.72720  0.06874  0.03195  1.0000 -0.0768289088
C   C29       1.0  0.37731  0.64006  0.72362  1.0000 0.071516874
C   C30       1.0  0.62269  0.14006  0.77638  1.0000 0.071516874
C   C31       1.0  0.62269  0.35994  0.27638  1.0000 0.071516874
C   C32       1.0  0.37731  0.85994  0.22362  1.0000 0.071516874
C   C33       1.0  0.85258  0.44297  0.91504  1.0000 0.0284162676
C   C34       1.0  0.14742  0.94297  0.58496  1.0000 0.0284162676
C   C35       1.0  0.14742  0.55703  0.08496  1.0000 0.0284162676
C   C36       1.0  0.85258  0.05703  0.41504  1.0000 0.0284162676
C   C37       1.0  0.64069  0.43798  0.57799  1.0000 0.0284162676
C   C38       1.0  0.35931  0.93798  0.92201  1.0000 0.0284162676
C   C39       1.0  0.35931  0.56202  0.42201  1.0000 0.0284162676
C   C40       1.0  0.64069  0.06202  0.07799  1.0000 0.0284162676
C   C41       1.0  0.15310  0.45717  0.63621  1.0000 0.5501191697
C   C42       1.0  0.84690  0.95717  0.86379  1.0000 0.5501191697
C   C43       1.0  0.84690  0.54283  0.36379  1.0000 0.5501191697
C   C44       1.0  0.15310  0.04283  0.13621  1.0000 0.5501191697
C   C45       1.0  0.77767  0.43503  0.96591  1.0000 -0.061193527
C   C46       1.0  0.22233  0.93503  0.53409  1.0000 -0.061193527
C   C47       1.0  0.22233  0.56497  0.03409  1.0000 -0.061193527
C   C48       1.0  0.77767  0.06497  0.46591  1.0000 -0.061193527
C   C49       1.0  0.78190  0.49872  0.87101  1.0000 -0.1075530176
C   C50       1.0  0.21810  0.99872  0.62899  1.0000 -0.1075530176
C   C51       1.0  0.21810  0.50128  0.12899  1.0000 -0.1075530176
C   C52       1.0  0.78190  0.00128  0.37101  1.0000 -0.1075530176
C   C53       1.0  0.98160  0.40036  0.90947  1.0000 -0.2741846361
C   C54       1.0  0.01840  0.90036  0.59053  1.0000 -0.2808230836
C   C55       1.0  0.01840  0.59964  0.09053  1.0000 -0.2808230836
C   C56       1.0  0.98160  0.09964  0.40947  1.0000 -0.2741846361
C   C57       1.0  0.45180  0.73255  0.71055  1.0000 0.2689943693
C   C58       1.0  0.54820  0.23255  0.78945  1.0000 0.2689943693
C   C59       1.0  0.54820  0.26745  0.28945  1.0000 0.2689943693
C   C60       1.0  0.45180  0.76745  0.21055  1.0000 0.2689943693
C   C61       1.0  0.70800  0.48467  0.62800  1.0000 -0.1042536342
C   C62       1.0  0.29200  0.98467  0.87200  1.0000 -0.1042536342
C   C63       1.0  0.29200  0.51533  0.37200  1.0000 -0.1042536342
C   C64       1.0  0.70800  0.01533  0.12800  1.0000 -0.1042536342
C   C65       1.0  0.43060  0.76380  0.64039  1.0000 -0.4603523382
C   C66       1.0  0.56940  0.26380  0.85961  1.0000 -0.4603523382
C   C67       1.0  0.56940  0.23620  0.35961  1.0000 -0.4603523382
C   C68       1.0  0.43060  0.73620  0.14039  1.0000 -0.4603523382
C   C69       1.0  0.40560  0.81690  0.74894  1.0000 -0.4477125177
C   C70       1.0  0.59440  0.31690  0.75106  1.0000 -0.4477125177
C   C71       1.0  0.59440  0.18310  0.25106  1.0000 -0.4477125177
C   C72       1.0  0.40560  0.68310  0.24894  1.0000 -0.4477125177
C   C73       1.0  0.58880  0.71770  0.73170  1.0000 -0.4477125177
C   C74       1.0  0.41120  0.21770  0.76830  1.0000 -0.4477125177
C   C75       1.0  0.41120  0.28230  0.26830  1.0000 -0.4477125177
C   C76       1.0  0.58880  0.78230  0.23170  1.0000 -0.4477125177
C   C77       1.0  0.98340  0.21350  0.93515  1.0000 -0.0768289088
C   C78       1.0  0.01660  0.71350  0.56485  1.0000 -0.0768289088
C   C79       1.0  0.01660  0.78650  0.06485  1.0000 -0.0768289088
C   C80       1.0  0.98340  0.28650  0.43515  1.0000 -0.0768289088
C   C81       1.0  0.00725  0.31150  0.95110  1.0000 0.0284162676
C   C82       1.0  0.99275  0.81150  0.54890  1.0000 0.0284162676
C   C83       1.0  0.99275  0.68850  0.04890  1.0000 0.0284162676
C   C84       1.0  0.00725  0.18850  0.45110  1.0000 0.0284162676
C   C85       1.0  0.05430  0.30766  0.01360  1.0000 -0.0932532915
C   C86       1.0  0.94570  0.80766  0.48640  1.0000 -0.0932532915
C   C87       1.0  0.94570  0.69234  0.98640  1.0000 -0.0932532915
C   C88       1.0  0.05430  0.19234  0.51360  1.0000 -0.0932532915
C   C89       1.0  0.47222  0.31425  0.53872  1.0000 0.0361319377
C   C90       1.0  0.52778  0.81425  0.96128  1.0000 0.0361319377
C   C91       1.0  0.52778  0.68575  0.46128  1.0000 0.0361319377
C   C92       1.0  0.47222  0.18575  0.03872  1.0000 0.0361319377
C   C93       1.0  0.53460  0.22454  0.54411  1.0000 -0.0768289088
C   C94       1.0  0.46540  0.72454  0.95589  1.0000 -0.0768289088
C   C95       1.0  0.46540  0.77546  0.45589  1.0000 -0.0768289088
C   C96       1.0  0.53460  0.27546  0.04411  1.0000 -0.0768289088
C   C97       1.0  0.50449  0.40857  0.57406  1.0000 -0.2808230836
C   C98       1.0  0.49551  0.90857  0.92594  1.0000 -0.2808230836
C   C99       1.0  0.49551  0.59143  0.42594  1.0000 -0.2808230836
C   C100      1.0  0.50449  0.09143  0.07406  1.0000 -0.2808230836
C   C101      1.0  0.36910  0.29597  0.49623  1.0000 -0.1075530176
C   C102      1.0  0.63090  0.79597  0.00377  1.0000 -0.1075530176
C   C103      1.0  0.63090  0.70403  0.50377  1.0000 -0.1075530176
C   C104      1.0  0.36910  0.20403  0.99623  1.0000 -0.1075530176
N   N1        1.0  0.66931  0.48251  0.95434  1.0000 -0.1803676301
N   N2        1.0  0.33069  0.98251  0.54566  1.0000 -0.1803676301
N   N3        1.0  0.33069  0.51749  0.04566  1.0000 -0.1803676301
N   N4        1.0  0.66931  0.01749  0.45434  1.0000 -0.1803676301
N   N5        1.0  0.83813  0.47272  0.55175  1.0000 -0.1803676301
N   N6        1.0  0.16187  0.97272  0.94825  1.0000 -0.1803676301
N   N7        1.0  0.16187  0.52728  0.44825  1.0000 -0.1803676301
N   N8        1.0  0.83813  0.02728  0.05175  1.0000 -0.1803676301
N   N9        1.0  0.67522  0.52163  0.89642  1.0000 -0.0513622841
N   N10       1.0  0.32478  0.02163  0.60358  1.0000 -0.0513622841
N   N11       1.0  0.32478  0.47837  0.10358  1.0000 -0.0513622841
N   N12       1.0  0.67522  0.97837  0.39642  1.0000 -0.0513622841
N   N13       1.0  0.82290  0.50448  0.61115  1.0000 -0.0513622841
N   N14       1.0  0.17710  0.00448  0.88885  1.0000 -0.0513622841
N   N15       1.0  0.17710  0.49552  0.38885  1.0000 -0.0513622841
N   N16       1.0  0.82290  0.99552  0.11115  1.0000 -0.0513622841
N   N17       1.0  0.01383  0.15490  0.98505  1.0000 -0.1803676301
N   N18       1.0  0.98617  0.65490  0.51495  1.0000 -0.1803676301
N   N19       1.0  0.98617  0.84510  0.01495  1.0000 -0.1803676301
N   N20       1.0  0.01383  0.34510  0.48505  1.0000 -0.1803676301
N   N21       1.0  0.05688  0.21492  0.03217  1.0000 -0.0513622841
N   N22       1.0  0.94312  0.71492  0.46783  1.0000 -0.0513622841
N   N23       1.0  0.94312  0.78508  0.96783  1.0000 -0.0513622841
N   N24       1.0  0.05688  0.28508  0.53217  1.0000 -0.0513622841
N   N25       1.0  0.47403  0.15614  0.50741  1.0000 -0.1889134117
N   N26       1.0  0.52597  0.65614  0.99259  1.0000 -0.1889134117
N   N27       1.0  0.52597  0.84386  0.49259  1.0000 -0.1889134117
N   N28       1.0  0.47403  0.34386  0.00741  1.0000 -0.1889134117
N   N29       1.0  0.37187  0.20135  0.47890  1.0000 -0.061193527
N   N30       1.0  0.62813  0.70135  0.02110  1.0000 -0.061193527
N   N31       1.0  0.62813  0.79865  0.52110  1.0000 -0.061193527
N   N32       1.0  0.37187  0.29865  0.97890  1.0000 -0.061193527
O   O1        1.0  0.41199  0.51669  0.90649  1.0000 -0.5902800479
O   O2        1.0  0.58801  0.01669  0.59351  1.0000 -0.5902800479
O   O3        1.0  0.58801  0.48331  0.09351  1.0000 -0.5902800479
O   O4        1.0  0.41199  0.98331  0.40649  1.0000 -0.5902800479
O   O5        1.0  0.12337  0.50432  0.58604  1.0000 -0.5751417794
O   O6        1.0  0.87663  0.00432  0.91396  1.0000 -0.5751417794
O   O7        1.0  0.87663  0.49568  0.41396  1.0000 -0.5751417794
O   O8        1.0  0.12337  0.99568  0.08604  1.0000 -0.5751417794
O   O9        1.0  0.26339  0.40528  0.87903  1.0000 -0.5368094363
O   O10       1.0  0.73661  0.90528  0.62097  1.0000 -0.5368094363
O   O11       1.0  0.73661  0.59472  0.12097  1.0000 -0.5368094363
O   O12       1.0  0.26339  0.09472  0.37903  1.0000 -0.5368094363
O   O13       1.0  0.11850  0.37225  0.64626  1.0000 -0.5570054569
O   O14       1.0  0.88150  0.87225  0.85374  1.0000 -0.5570054569
O   O15       1.0  0.88150  0.62775  0.35374  1.0000 -0.5570054569
O   O16       1.0  0.11850  0.12775  0.14626  1.0000 -0.5570054569
