# DDEC6 charges by PACMAN v1.1 (https://github.com/mtap-research/PACMAN-charge/)
data_2016[Mg][nan]3[ASR]2
_chemical_formula_sum              "Mg4 H32 C52 N4 O20"
_cell_length_a       12.478
_cell_length_b       12.478
_cell_length_c       12.956
_cell_angle_alpha    64.5393
_cell_angle_beta     115.461
_cell_angle_gamma    90.0552

_symmetry_space_group_name_H-M    "P 1"
_symmetry_Int_Tables_number       1

loop_
  _symmetry_equiv_pos_as_xyz
  'x, y, z'

loop_
  _atom_site_type_symbol
  _atom_site_label
  _atom_site_symmetry_multiplicity
  _atom_site_fract_x
  _atom_site_fract_y
  _atom_site_fract_z
  _atom_site_occupancy
  _atom_site_charge
Mg  Mg1       1.0  0.69573  0.69573  0.75000  1.0000 1.3474548693
Mg  Mg2       1.0  0.30427  0.30427  0.25000  1.0000 1.3474548693
Mg  Mg3       1.0  0.50000  0.00000  0.50000  1.0000 1.3474548693
Mg  Mg4       1.0  0.00000  0.50000  0.00000  1.0000 1.3474548693
H   H1        1.0  0.47800  0.52600  0.11100  1.0000 0.1067871984
H   H2        1.0  0.52600  0.47800  0.38900  1.0000 0.1067871984
H   H3        1.0  0.52200  0.47400  0.88900  1.0000 0.1067871984
H   H4        1.0  0.47400  0.52200  0.61100  1.0000 0.1067871984
H   H5        1.0  0.76800  0.79400  0.51100  1.0000 0.1511356022
H   H6        1.0  0.79400  0.76800  0.98900  1.0000 0.1511356022
H   H7        1.0  0.23200  0.20600  0.48900  1.0000 0.1511356022
H   H8        1.0  0.20600  0.23200  0.01100  1.0000 0.1511356022
H   H9        1.0  0.91700  0.85100  0.45600  1.0000 0.1405681917
H   H10       1.0  0.85100  0.91700  0.04400  1.0000 0.1405681917
H   H11       1.0  0.08300  0.14900  0.54400  1.0000 0.1405681917
H   H12       1.0  0.14900  0.08300  0.95600  1.0000 0.1405681917
H   H13       1.0  0.59900  0.65500  0.00100  1.0000 0.1067871984
H   H14       1.0  0.65500  0.59900  0.49900  1.0000 0.1067871984
H   H15       1.0  0.40100  0.34500  0.99900  1.0000 0.1067871984
H   H16       1.0  0.34500  0.40100  0.50100  1.0000 0.1067871984
H   H17       1.0  0.80100  0.02900  0.63900  1.0000 0.1405681917
H   H18       1.0  0.02900  0.80100  0.86100  1.0000 0.1405681917
H   H19       1.0  0.19900  0.97100  0.36100  1.0000 0.1405681917
H   H20       1.0  0.97100  0.19900  0.13900  1.0000 0.1405681917
H   H21       1.0  0.15600  0.74600  0.76200  1.0000 0.1067871984
H   H22       1.0  0.74600  0.15600  0.73800  1.0000 0.1067871984
H   H23       1.0  0.84400  0.25400  0.23800  1.0000 0.1067871984
H   H24       1.0  0.25400  0.84400  0.26200  1.0000 0.1067871984
H   H25       1.0  0.95600  0.06800  0.60600  1.0000 0.1405681917
H   H26       1.0  0.06800  0.95600  0.89400  1.0000 0.1405681917
H   H27       1.0  0.04400  0.93200  0.39400  1.0000 0.1405681917
H   H28       1.0  0.93200  0.04400  0.10600  1.0000 0.1405681917
H   H29       1.0  0.26700  0.84700  0.67400  1.0000 0.1155416102
H   H30       1.0  0.84700  0.26700  0.82600  1.0000 0.1155416102
H   H31       1.0  0.73300  0.15300  0.32600  1.0000 0.1155416102
H   H32       1.0  0.15300  0.73300  0.17400  1.0000 0.1155416102
C   C1        1.0  0.81950  0.99850  0.60280  1.0000 -0.0472830271
C   C2        1.0  0.99850  0.81950  0.89720  1.0000 -0.0472830271
C   C3        1.0  0.18050  0.00150  0.39720  1.0000 -0.0472830271
C   C4        1.0  0.00150  0.18050  0.10280  1.0000 -0.0472830271
C   C5        1.0  0.95180  0.98120  0.51770  1.0000 0.0936688867
C   C6        1.0  0.98120  0.95180  0.98230  1.0000 0.0936688867
C   C7        1.0  0.04820  0.01880  0.48230  1.0000 0.0936688867
C   C8        1.0  0.01880  0.04820  0.01770  1.0000 0.0936688867
C   C9        1.0  0.91160  0.03280  0.57330  1.0000 -0.1890454467
C   C10       1.0  0.03280  0.91160  0.92670  1.0000 -0.1890454467
C   C11       1.0  0.08840  0.96720  0.42670  1.0000 -0.1890454467
C   C12       1.0  0.96720  0.08840  0.07330  1.0000 -0.1890454467
C   C13       1.0  0.51150  0.82690  0.75960  1.0000 0.6222337123
C   C14       1.0  0.82690  0.51150  0.74040  1.0000 0.6222337123
C   C15       1.0  0.48850  0.17310  0.24040  1.0000 0.6222337123
C   C16       1.0  0.17310  0.48850  0.25960  1.0000 0.6222337123
C   C17       1.0  0.23500  0.55540  0.00590  1.0000 0.6222337123
C   C18       1.0  0.55540  0.23500  0.49410  1.0000 0.6222337123
C   C19       1.0  0.76500  0.44460  0.99410  1.0000 0.6222337123
C   C20       1.0  0.44460  0.76500  0.50590  1.0000 0.6222337123
C   C21       1.0  0.30480  0.63420  0.94340  1.0000 -0.0241703394
C   C22       1.0  0.63420  0.30480  0.55660  1.0000 -0.0241703394
C   C23       1.0  0.69520  0.36580  0.05660  1.0000 -0.0241703394
C   C24       1.0  0.36580  0.69520  0.44340  1.0000 -0.0241703394
C   C25       1.0  0.31320  0.79220  0.75900  1.0000 -0.106718025
C   C26       1.0  0.79220  0.31320  0.74100  1.0000 -0.106718025
C   C27       1.0  0.68680  0.20780  0.24100  1.0000 -0.106718025
C   C28       1.0  0.20780  0.68680  0.25900  1.0000 -0.106718025
C   C29       1.0  0.43900  0.76700  0.82630  1.0000 -0.0241703394
C   C30       1.0  0.76700  0.43900  0.67370  1.0000 -0.0241703394
C   C31       1.0  0.56100  0.23300  0.17370  1.0000 -0.0241703394
C   C32       1.0  0.23300  0.56100  0.32630  1.0000 -0.0241703394
C   C33       1.0  0.89220  0.89400  0.49150  1.0000 -0.1776448701
C   C34       1.0  0.89400  0.89220  0.00850  1.0000 -0.1776448701
C   C35       1.0  0.10780  0.10600  0.50850  1.0000 -0.1776448701
C   C36       1.0  0.10600  0.10780  0.99150  1.0000 -0.1776448701
C   C37       1.0  0.43070  0.61010  0.01340  1.0000 -0.0836941961
C   C38       1.0  0.61010  0.43070  0.48660  1.0000 -0.0836941961
C   C39       1.0  0.56930  0.38990  0.98660  1.0000 -0.0836941961
C   C40       1.0  0.38990  0.56930  0.51340  1.0000 -0.0836941961
C   C41       1.0  0.49820  0.67520  0.95550  1.0000 -0.0860075865
C   C42       1.0  0.67520  0.49820  0.54450  1.0000 -0.0860075865
C   C43       1.0  0.50180  0.32480  0.04450  1.0000 -0.0860075865
C   C44       1.0  0.32480  0.50180  0.45550  1.0000 -0.0860075865
C   C45       1.0  0.80240  0.86040  0.52320  1.0000 0.0017798145
C   C46       1.0  0.86040  0.80240  0.97680  1.0000 0.0017798145
C   C47       1.0  0.19760  0.13960  0.47680  1.0000 0.0017798145
C   C48       1.0  0.13960  0.19760  0.02320  1.0000 0.0017798145
C   C49       1.0  0.24670  0.72650  0.81630  1.0000 -0.1333462957
C   C50       1.0  0.72650  0.24670  0.68370  1.0000 -0.1333462957
C   C51       1.0  0.75330  0.27350  0.18370  1.0000 -0.1333462957
C   C52       1.0  0.27350  0.75330  0.31630  1.0000 -0.1333462957
N   N1        1.0  0.76696  0.91196  0.57840  1.0000 0.3288052019
N   N2        1.0  0.91196  0.76696  0.92160  1.0000 0.3288052019
N   N3        1.0  0.23304  0.08804  0.42160  1.0000 0.3288052019
N   N4        1.0  0.08804  0.23304  0.07840  1.0000 0.3288052019
O   O1        1.0  0.68025  0.87765  0.61100  1.0000 -0.5895759825
O   O2        1.0  0.87765  0.68025  0.88900  1.0000 -0.5895759825
O   O3        1.0  0.31975  0.12235  0.38900  1.0000 -0.5895759825
O   O4        1.0  0.12235  0.31975  0.11100  1.0000 -0.5895759825
O   O5        1.0  0.62369  0.77849  0.81790  1.0000 -0.6571035895
O   O6        1.0  0.77849  0.62369  0.68210  1.0000 -0.6571035895
O   O7        1.0  0.37631  0.22151  0.18210  1.0000 -0.6571035895
O   O8        1.0  0.22151  0.37631  0.31790  1.0000 -0.6571035895
O   O9        1.0  0.29770  0.47190  0.12080  1.0000 -0.6361673016
O   O10       1.0  0.47190  0.29770  0.37920  1.0000 -0.6361673016
O   O11       1.0  0.70230  0.52810  0.87920  1.0000 -0.6361673016
O   O12       1.0  0.52810  0.70230  0.62080  1.0000 -0.6361673016
O   O13       1.0  0.12135  0.57695  0.93660  1.0000 -0.6361673016
O   O14       1.0  0.57695  0.12135  0.56340  1.0000 -0.6361673016
O   O15       1.0  0.87865  0.42305  0.06340  1.0000 -0.6361673016
O   O16       1.0  0.42305  0.87865  0.43660  1.0000 -0.6361673016
O   O17       1.0  0.45587  0.91987  0.64930  1.0000 -0.6338252786
O   O18       1.0  0.91987  0.45587  0.85070  1.0000 -0.6338252786
O   O19       1.0  0.54413  0.08013  0.35070  1.0000 -0.6338252786
O   O20       1.0  0.08013  0.54413  0.14930  1.0000 -0.6338252786
