# DDEC6 charges by PACMAN v1.1 (https://github.com/mtap-research/PACMAN-charge/)
data_2016[InCo][pts]3[ASR]1
_chemical_formula_sum              "In4 Co4 H96 C192 N16 O32"
_cell_length_a       17.256
_cell_length_b       17.256
_cell_length_c       32.0647
_cell_angle_alpha    90
_cell_angle_beta     90
_cell_angle_gamma    130.684

_symmetry_space_group_name_H-M    "P 1"
_symmetry_Int_Tables_number       1

loop_
  _symmetry_equiv_pos_as_xyz
  'x, y, z'

loop_
  _atom_site_type_symbol
  _atom_site_label
  _atom_site_symmetry_multiplicity
  _atom_site_fract_x
  _atom_site_fract_y
  _atom_site_fract_z
  _atom_site_occupancy
  _atom_site_charge
In  In1       1.0  0.28826  0.71174  0.25000  1.0000 1.3432503163
In  In2       1.0  0.28826  0.71174  0.75000  1.0000 1.3432503163
In  In3       1.0  0.71174  0.28826  0.25000  1.0000 1.3432503163
In  In4       1.0  0.71174  0.28826  0.75000  1.0000 1.3432503163
Co  Co1       1.0  0.75717  0.66509  0.50000  1.0000 0.6576322585
Co  Co2       1.0  0.33491  0.24283  0.00000  1.0000 0.6576322585
Co  Co3       1.0  0.24283  0.33491  0.50000  1.0000 0.6576322585
Co  Co4       1.0  0.66509  0.75717  0.00000  1.0000 0.6576322585
H   H1        1.0  0.95540  0.54760  0.68980  1.0000 0.1400928765
H   H2        1.0  0.45240  0.04460  0.81020  1.0000 0.1453895687
H   H3        1.0  0.95540  0.54760  0.31020  1.0000 0.1400928765
H   H4        1.0  0.45240  0.04460  0.18980  1.0000 0.1453895687
H   H5        1.0  0.84860  0.52760  0.63800  1.0000 0.131891825
H   H6        1.0  0.47240  0.15140  0.86200  1.0000 0.131891825
H   H7        1.0  0.84860  0.52760  0.36200  1.0000 0.131891825
H   H8        1.0  0.47240  0.15140  0.13800  1.0000 0.131891825
H   H9        1.0  0.19770  0.81310  0.63820  1.0000 0.131891825
H   H10       1.0  0.18690  0.80230  0.86180  1.0000 0.131891825
H   H11       1.0  0.19770  0.81310  0.36180  1.0000 0.131891825
H   H12       1.0  0.18690  0.80230  0.13820  1.0000 0.131891825
H   H13       1.0  0.08610  0.80250  0.58970  1.0000 0.1208286634
H   H14       1.0  0.19750  0.91390  0.91030  1.0000 0.1208286634
H   H15       1.0  0.08610  0.80250  0.41030  1.0000 0.1208286634
H   H16       1.0  0.19750  0.91390  0.08970  1.0000 0.1208286634
H   H17       1.0  0.70640  0.69740  0.65300  1.0000 0.1400928765
H   H18       1.0  0.30260  0.29360  0.84700  1.0000 0.1400928765
H   H19       1.0  0.70640  0.69740  0.34700  1.0000 0.1400928765
H   H20       1.0  0.30260  0.29360  0.15300  1.0000 0.1400928765
H   H21       1.0  0.01010  0.61790  0.53900  1.0000 0.131891825
H   H22       1.0  0.38210  0.98990  0.96100  1.0000 0.131891825
H   H23       1.0  0.01010  0.61790  0.46100  1.0000 0.131891825
H   H24       1.0  0.38210  0.98990  0.03900  1.0000 0.131891825
H   H25       1.0  0.84590  0.69210  0.65390  1.0000 0.1400928765
H   H26       1.0  0.30790  0.15410  0.84610  1.0000 0.1400928765
H   H27       1.0  0.84590  0.69210  0.34610  1.0000 0.1400928765
H   H28       1.0  0.30790  0.15410  0.15390  1.0000 0.1400928765
H   H29       1.0  0.43010  0.52110  0.60680  1.0000 0.1101793924
H   H30       1.0  0.47890  0.56990  0.89320  1.0000 0.1101793924
H   H31       1.0  0.43010  0.52110  0.39320  1.0000 0.1101793924
H   H32       1.0  0.47890  0.56990  0.10680  1.0000 0.1101793924
H   H33       1.0  0.67000  0.82720  0.61600  1.0000 0.1208286634
H   H34       1.0  0.17280  0.33000  0.88400  1.0000 0.1208286634
H   H35       1.0  0.67000  0.82720  0.38400  1.0000 0.1208286634
H   H36       1.0  0.17280  0.33000  0.11600  1.0000 0.1208286634
H   H37       1.0  0.44650  0.62890  0.53970  1.0000 0.131891825
H   H38       1.0  0.37110  0.55350  0.96030  1.0000 0.131891825
H   H39       1.0  0.44650  0.62890  0.46030  1.0000 0.131891825
H   H40       1.0  0.37110  0.55350  0.03970  1.0000 0.131891825
H   H41       1.0  0.57970  0.84150  0.66460  1.0000 0.131891825
H   H42       1.0  0.15850  0.42030  0.83540  1.0000 0.131891825
H   H43       1.0  0.57970  0.84150  0.33540  1.0000 0.131891825
H   H44       1.0  0.15850  0.42030  0.16460  1.0000 0.131891825
H   H45       1.0  0.33770  0.53650  0.65580  1.0000 0.1208286634
H   H46       1.0  0.46350  0.66230  0.84420  1.0000 0.1208286634
H   H47       1.0  0.33770  0.53650  0.34420  1.0000 0.1208286634
H   H48       1.0  0.46350  0.66230  0.15580  1.0000 0.1208286634
H   H49       1.0  0.04460  0.45240  0.68980  1.0000 0.1400928765
H   H50       1.0  0.54760  0.95540  0.81020  1.0000 0.1453895687
H   H51       1.0  0.04460  0.45240  0.31020  1.0000 0.1453895687
H   H52       1.0  0.54760  0.95540  0.18980  1.0000 0.1453895687
H   H53       1.0  0.15140  0.47240  0.63800  1.0000 0.131891825
H   H54       1.0  0.52760  0.84860  0.86200  1.0000 0.131891825
H   H55       1.0  0.15140  0.47240  0.36200  1.0000 0.131891825
H   H56       1.0  0.52760  0.84860  0.13800  1.0000 0.131891825
H   H57       1.0  0.80230  0.18690  0.63820  1.0000 0.131891825
H   H58       1.0  0.81310  0.19770  0.86180  1.0000 0.131891825
H   H59       1.0  0.80230  0.18690  0.36180  1.0000 0.131891825
H   H60       1.0  0.81310  0.19770  0.13820  1.0000 0.131891825
H   H61       1.0  0.91390  0.19750  0.58970  1.0000 0.1208286634
H   H62       1.0  0.80250  0.08610  0.91030  1.0000 0.1208286634
H   H63       1.0  0.91390  0.19750  0.41030  1.0000 0.1208286634
H   H64       1.0  0.80250  0.08610  0.08970  1.0000 0.1208286634
H   H65       1.0  0.29360  0.30260  0.65300  1.0000 0.1400928765
H   H66       1.0  0.69740  0.70640  0.84700  1.0000 0.1400928765
H   H67       1.0  0.29360  0.30260  0.34700  1.0000 0.1400928765
H   H68       1.0  0.69740  0.70640  0.15300  1.0000 0.1400928765
H   H69       1.0  0.98990  0.38210  0.53900  1.0000 0.131891825
H   H70       1.0  0.61790  0.01010  0.96100  1.0000 0.131891825
H   H71       1.0  0.98990  0.38210  0.46100  1.0000 0.131891825
H   H72       1.0  0.61790  0.01010  0.03900  1.0000 0.131891825
H   H73       1.0  0.15410  0.30790  0.65390  1.0000 0.1400928765
H   H74       1.0  0.69210  0.84590  0.84610  1.0000 0.1400928765
H   H75       1.0  0.15410  0.30790  0.34610  1.0000 0.1400928765
H   H76       1.0  0.69210  0.84590  0.15390  1.0000 0.1400928765
H   H77       1.0  0.56990  0.47890  0.60680  1.0000 0.1101793924
H   H78       1.0  0.52110  0.43010  0.89320  1.0000 0.1101793924
H   H79       1.0  0.56990  0.47890  0.39320  1.0000 0.1101793924
H   H80       1.0  0.52110  0.43010  0.10680  1.0000 0.1101793924
H   H81       1.0  0.33000  0.17280  0.61600  1.0000 0.1208286634
H   H82       1.0  0.82720  0.67000  0.88400  1.0000 0.1208286634
H   H83       1.0  0.33000  0.17280  0.38400  1.0000 0.1208286634
H   H84       1.0  0.82720  0.67000  0.11600  1.0000 0.1208286634
H   H85       1.0  0.55350  0.37110  0.53970  1.0000 0.131891825
H   H86       1.0  0.62890  0.44650  0.96030  1.0000 0.131891825
H   H87       1.0  0.55350  0.37110  0.46030  1.0000 0.131891825
H   H88       1.0  0.62890  0.44650  0.03970  1.0000 0.131891825
H   H89       1.0  0.42030  0.15850  0.66460  1.0000 0.131891825
H   H90       1.0  0.84150  0.57970  0.83540  1.0000 0.131891825
H   H91       1.0  0.42030  0.15850  0.33540  1.0000 0.131891825
H   H92       1.0  0.84150  0.57970  0.16460  1.0000 0.131891825
H   H93       1.0  0.66230  0.46350  0.65580  1.0000 0.1208286634
H   H94       1.0  0.53650  0.33770  0.84420  1.0000 0.1208286634
H   H95       1.0  0.66230  0.46350  0.34420  1.0000 0.1208286634
H   H96       1.0  0.53650  0.33770  0.15580  1.0000 0.1208286634
C   C1        1.0  0.15740  0.69040  0.69889  1.0000 0.5374545425
C   C2        1.0  0.30960  0.84260  0.80111  1.0000 0.5374545425
C   C3        1.0  0.15740  0.69040  0.30111  1.0000 0.5374545425
C   C4        1.0  0.30960  0.84260  0.19889  1.0000 0.5374545425
C   C5        1.0  0.08378  0.67642  0.66727  1.0000 -0.0002257442
C   C6        1.0  0.32358  0.91622  0.83273  1.0000 0.0009946045
C   C7        1.0  0.08378  0.67642  0.33273  1.0000 0.0009946045
C   C8        1.0  0.32358  0.91622  0.16727  1.0000 0.0009946045
C   C9        1.0  0.98331  0.59729  0.66831  1.0000 -0.0720906504
C   C10       1.0  0.40271  0.01669  0.83169  1.0000 -0.0720906504
C   C11       1.0  0.98331  0.59729  0.33169  1.0000 -0.0720906504
C   C12       1.0  0.40271  0.01669  0.16831  1.0000 -0.0720906504
C   C13       1.0  0.95572  0.66108  0.60830  1.0000 0.0776141405
C   C14       1.0  0.33892  0.04428  0.89170  1.0000 0.0776141405
C   C15       1.0  0.95572  0.66108  0.39170  1.0000 0.0776141405
C   C16       1.0  0.33892  0.04428  0.10830  1.0000 0.0776141405
C   C17       1.0  0.91902  0.58698  0.63803  1.0000 -0.1354510758
C   C18       1.0  0.41302  0.08098  0.86197  1.0000 -0.1354510758
C   C19       1.0  0.91902  0.58698  0.36197  1.0000 -0.1354510758
C   C20       1.0  0.41302  0.08098  0.13803  1.0000 -0.1354510758
C   C21       1.0  0.12650  0.75590  0.63822  1.0000 -0.0873112411
C   C22       1.0  0.24410  0.87350  0.86178  1.0000 -0.0873112411
C   C23       1.0  0.12650  0.75590  0.36178  1.0000 -0.0873112411
C   C24       1.0  0.24410  0.87350  0.13822  1.0000 -0.0873112411
C   C25       1.0  0.06010  0.74850  0.60880  1.0000 -0.1519741148
C   C26       1.0  0.25150  0.93990  0.89120  1.0000 -0.1519741148
C   C27       1.0  0.06010  0.74850  0.39120  1.0000 -0.1519741148
C   C28       1.0  0.25150  0.93990  0.10880  1.0000 -0.1519741148
C   C29       1.0  0.89216  0.65744  0.57586  1.0000 -0.0635013238
C   C30       1.0  0.34256  0.10784  0.92414  1.0000 -0.0635013238
C   C31       1.0  0.89216  0.65744  0.42414  1.0000 -0.0635013238
C   C32       1.0  0.34256  0.10784  0.07586  1.0000 -0.0635013238
C   C33       1.0  0.90551  0.64489  0.53453  1.0000 0.1826744124
C   C34       1.0  0.35511  0.09449  0.96547  1.0000 0.1826744124
C   C35       1.0  0.90551  0.64489  0.46547  1.0000 0.1826744124
C   C36       1.0  0.35511  0.09449  0.03453  1.0000 0.1826744124
C   C37       1.0  0.73310  0.68710  0.62979  1.0000 -0.1894415312
C   C38       1.0  0.31290  0.26690  0.87021  1.0000 -0.1894415312
C   C39       1.0  0.73310  0.68710  0.37021  1.0000 -0.1894415312
C   C40       1.0  0.31290  0.26690  0.12979  1.0000 -0.1894415312
C   C41       1.0  0.69970  0.67110  0.58699  1.0000 0.2044746789
C   C42       1.0  0.32890  0.30030  0.91301  1.0000 0.2044746789
C   C43       1.0  0.69970  0.67110  0.41301  1.0000 0.2044746789
C   C44       1.0  0.32890  0.30030  0.08699  1.0000 0.2044746789
C   C45       1.0  0.97279  0.62761  0.52139  1.0000 -0.1786257115
C   C46       1.0  0.37239  0.02721  0.97861  1.0000 -0.1786257115
C   C47       1.0  0.97279  0.62761  0.47861  1.0000 -0.1786257115
C   C48       1.0  0.37239  0.02721  0.02139  1.0000 -0.1786257115
C   C49       1.0  0.80859  0.68481  0.63019  1.0000 -0.1678891054
C   C50       1.0  0.31519  0.19141  0.86981  1.0000 -0.1678891054
C   C51       1.0  0.80859  0.68481  0.36981  1.0000 -0.1678891054
C   C52       1.0  0.31519  0.19141  0.13019  1.0000 -0.1678891054
C   C53       1.0  0.55940  0.67440  0.60700  1.0000 0.0776141405
C   C54       1.0  0.32560  0.44060  0.89300  1.0000 0.0852700292
C   C55       1.0  0.55940  0.67440  0.39300  1.0000 0.0852700292
C   C56       1.0  0.32560  0.44060  0.10700  1.0000 0.0852700292
C   C57       1.0  0.45960  0.58580  0.61850  1.0000 -0.1519741148
C   C58       1.0  0.41420  0.54040  0.88150  1.0000 -0.1519741148
C   C59       1.0  0.45960  0.58580  0.38150  1.0000 -0.1519741148
C   C60       1.0  0.41420  0.54040  0.11850  1.0000 -0.1519741148
C   C61       1.0  0.61551  0.66429  0.57470  1.0000 -0.075255397
C   C62       1.0  0.33571  0.38449  0.92530  1.0000 -0.075255397
C   C63       1.0  0.61551  0.66429  0.42530  1.0000 -0.075255397
C   C64       1.0  0.33571  0.38449  0.07470  1.0000 -0.0720906504
C   C65       1.0  0.60300  0.76840  0.62400  1.0000 -0.1575608786
C   C66       1.0  0.23160  0.39700  0.87600  1.0000 -0.1575608786
C   C67       1.0  0.60300  0.76840  0.37600  1.0000 -0.1575608786
C   C68       1.0  0.23160  0.39700  0.12400  1.0000 -0.1575608786
C   C69       1.0  0.82283  0.66917  0.58792  1.0000 0.169087731
C   C70       1.0  0.33083  0.17717  0.91208  1.0000 0.169087731
C   C71       1.0  0.82283  0.66917  0.41208  1.0000 0.169087731
C   C72       1.0  0.33083  0.17717  0.08792  1.0000 0.169087731
C   C73       1.0  0.58290  0.64550  0.53450  1.0000 0.1941811263
C   C74       1.0  0.35450  0.41710  0.96550  1.0000 0.1941811263
C   C75       1.0  0.58290  0.64550  0.46550  1.0000 0.1941811263
C   C76       1.0  0.35450  0.41710  0.03450  1.0000 0.1941811263
C   C77       1.0  0.49410  0.63470  0.52190  1.0000 -0.1678891054
C   C78       1.0  0.36530  0.50590  0.97810  1.0000 -0.1678891054
C   C79       1.0  0.49410  0.63470  0.47810  1.0000 -0.1678891054
C   C80       1.0  0.36530  0.50590  0.02190  1.0000 -0.1678891054
C   C81       1.0  0.44971  0.69069  0.66402  1.0000 0.0052541128
C   C82       1.0  0.30931  0.55029  0.83598  1.0000 0.0052541128
C   C83       1.0  0.44971  0.69069  0.33598  1.0000 0.0052541128
C   C84       1.0  0.30931  0.55029  0.16402  1.0000 0.0052541128
C   C85       1.0  0.54910  0.77690  0.65260  1.0000 -0.0873112411
C   C86       1.0  0.22310  0.45090  0.84740  1.0000 -0.0873112411
C   C87       1.0  0.54910  0.77690  0.34740  1.0000 -0.0873112411
C   C88       1.0  0.22310  0.45090  0.15260  1.0000 -0.0873112411
C   C89       1.0  0.40450  0.59490  0.64760  1.0000 -0.0975145216
C   C90       1.0  0.40510  0.59550  0.85240  1.0000 -0.0975145216
C   C91       1.0  0.40450  0.59490  0.35240  1.0000 -0.0975145216
C   C92       1.0  0.40510  0.59550  0.14760  1.0000 -0.0975145216
C   C93       1.0  0.38895  0.69805  0.69470  1.0000 0.5275533244
C   C94       1.0  0.30195  0.61105  0.80530  1.0000 0.5275533244
C   C95       1.0  0.38895  0.69805  0.30530  1.0000 0.5275533244
C   C96       1.0  0.30195  0.61105  0.19470  1.0000 0.5275533244
C   C97       1.0  0.84260  0.30960  0.69889  1.0000 0.5374545425
C   C98       1.0  0.69040  0.15740  0.80111  1.0000 0.5374545425
C   C99       1.0  0.84260  0.30960  0.30111  1.0000 0.5374545425
C   C100      1.0  0.69040  0.15740  0.19889  1.0000 0.5374545425
C   C101      1.0  0.91622  0.32358  0.66727  1.0000 0.0009946045
C   C102      1.0  0.67642  0.08378  0.83273  1.0000 0.0009946045
C   C103      1.0  0.91622  0.32358  0.33273  1.0000 0.0009946045
C   C104      1.0  0.67642  0.08378  0.16727  1.0000 0.0009946045
C   C105      1.0  0.01669  0.40271  0.66831  1.0000 -0.0720906504
C   C106      1.0  0.59729  0.98331  0.83169  1.0000 -0.0720906504
C   C107      1.0  0.01669  0.40271  0.33169  1.0000 -0.0720906504
C   C108      1.0  0.59729  0.98331  0.16831  1.0000 -0.0720906504
C   C109      1.0  0.04428  0.33892  0.60830  1.0000 0.0776141405
C   C110      1.0  0.66108  0.95572  0.89170  1.0000 0.0776141405
C   C111      1.0  0.04428  0.33892  0.39170  1.0000 0.0776141405
C   C112      1.0  0.66108  0.95572  0.10830  1.0000 0.0776141405
C   C113      1.0  0.08098  0.41302  0.63803  1.0000 -0.1354510758
C   C114      1.0  0.58698  0.91902  0.86197  1.0000 -0.1354510758
C   C115      1.0  0.08098  0.41302  0.36197  1.0000 -0.1354510758
C   C116      1.0  0.58698  0.91902  0.13803  1.0000 -0.1354510758
C   C117      1.0  0.87350  0.24410  0.63822  1.0000 -0.0873112411
C   C118      1.0  0.75590  0.12650  0.86178  1.0000 -0.0873112411
C   C119      1.0  0.87350  0.24410  0.36178  1.0000 -0.0873112411
C   C120      1.0  0.75590  0.12650  0.13822  1.0000 -0.0873112411
C   C121      1.0  0.93990  0.25150  0.60880  1.0000 -0.1519741148
C   C122      1.0  0.74850  0.06010  0.89120  1.0000 -0.1519741148
C   C123      1.0  0.93990  0.25150  0.39120  1.0000 -0.1519741148
C   C124      1.0  0.74850  0.06010  0.10880  1.0000 -0.1519741148
C   C125      1.0  0.10784  0.34256  0.57586  1.0000 -0.0635013238
C   C126      1.0  0.65744  0.89216  0.92414  1.0000 -0.0635013238
C   C127      1.0  0.10784  0.34256  0.42414  1.0000 -0.0635013238
C   C128      1.0  0.65744  0.89216  0.07586  1.0000 -0.0635013238
C   C129      1.0  0.09449  0.35511  0.53453  1.0000 0.1826744124
C   C130      1.0  0.64489  0.90551  0.96547  1.0000 0.1826744124
C   C131      1.0  0.09449  0.35511  0.46547  1.0000 0.1826744124
C   C132      1.0  0.64489  0.90551  0.03453  1.0000 0.1826744124
C   C133      1.0  0.26690  0.31290  0.62979  1.0000 -0.1894415312
C   C134      1.0  0.68710  0.73310  0.87021  1.0000 -0.1894415312
C   C135      1.0  0.26690  0.31290  0.37021  1.0000 -0.1894415312
C   C136      1.0  0.68710  0.73310  0.12979  1.0000 -0.1894415312
C   C137      1.0  0.30030  0.32890  0.58699  1.0000 0.2044746789
C   C138      1.0  0.67110  0.69970  0.91301  1.0000 0.2044746789
C   C139      1.0  0.30030  0.32890  0.41301  1.0000 0.2044746789
C   C140      1.0  0.67110  0.69970  0.08699  1.0000 0.2044746789
C   C141      1.0  0.02721  0.37239  0.52139  1.0000 -0.1786257115
C   C142      1.0  0.62761  0.97279  0.97861  1.0000 -0.1786257115
C   C143      1.0  0.02721  0.37239  0.47861  1.0000 -0.1786257115
C   C144      1.0  0.62761  0.97279  0.02139  1.0000 -0.1786257115
C   C145      1.0  0.19141  0.31519  0.63019  1.0000 -0.1678891054
C   C146      1.0  0.68481  0.80859  0.86981  1.0000 -0.1678891054
C   C147      1.0  0.19141  0.31519  0.36981  1.0000 -0.1678891054
C   C148      1.0  0.68481  0.80859  0.13019  1.0000 -0.1678891054
C   C149      1.0  0.44060  0.32560  0.60700  1.0000 0.0852700292
C   C150      1.0  0.67440  0.55940  0.89300  1.0000 0.0852700292
C   C151      1.0  0.44060  0.32560  0.39300  1.0000 0.0852700292
C   C152      1.0  0.67440  0.55940  0.10700  1.0000 0.0776141405
C   C153      1.0  0.54040  0.41420  0.61850  1.0000 -0.1519741148
C   C154      1.0  0.58580  0.45960  0.88150  1.0000 -0.1519741148
C   C155      1.0  0.54040  0.41420  0.38150  1.0000 -0.1519741148
C   C156      1.0  0.58580  0.45960  0.11850  1.0000 -0.1519741148
C   C157      1.0  0.38449  0.33571  0.57470  1.0000 -0.075255397
C   C158      1.0  0.66429  0.61551  0.92530  1.0000 -0.075255397
C   C159      1.0  0.38449  0.33571  0.42530  1.0000 -0.0720906504
C   C160      1.0  0.66429  0.61551  0.07470  1.0000 -0.075255397
C   C161      1.0  0.39700  0.23160  0.62400  1.0000 -0.1575608786
C   C162      1.0  0.76840  0.60300  0.87600  1.0000 -0.1575608786
C   C163      1.0  0.39700  0.23160  0.37600  1.0000 -0.1575608786
C   C164      1.0  0.76840  0.60300  0.12400  1.0000 -0.1575608786
C   C165      1.0  0.17717  0.33083  0.58792  1.0000 0.169087731
C   C166      1.0  0.66917  0.82283  0.91208  1.0000 0.169087731
C   C167      1.0  0.17717  0.33083  0.41208  1.0000 0.169087731
C   C168      1.0  0.66917  0.82283  0.08792  1.0000 0.169087731
C   C169      1.0  0.41710  0.35450  0.53450  1.0000 0.1941811263
C   C170      1.0  0.64550  0.58290  0.96550  1.0000 0.1941811263
C   C171      1.0  0.41710  0.35450  0.46550  1.0000 0.1941811263
C   C172      1.0  0.64550  0.58290  0.03450  1.0000 0.1941811263
C   C173      1.0  0.50590  0.36530  0.52190  1.0000 -0.1678891054
C   C174      1.0  0.63470  0.49410  0.97810  1.0000 -0.1678891054
C   C175      1.0  0.50590  0.36530  0.47810  1.0000 -0.1678891054
C   C176      1.0  0.63470  0.49410  0.02190  1.0000 -0.1678891054
C   C177      1.0  0.55029  0.30931  0.66402  1.0000 0.0052541128
C   C178      1.0  0.69069  0.44971  0.83598  1.0000 0.0052541128
C   C179      1.0  0.55029  0.30931  0.33598  1.0000 0.0052541128
C   C180      1.0  0.69069  0.44971  0.16402  1.0000 0.0052541128
C   C181      1.0  0.45090  0.22310  0.65260  1.0000 -0.0873112411
C   C182      1.0  0.77690  0.54910  0.84740  1.0000 -0.0873112411
C   C183      1.0  0.45090  0.22310  0.34740  1.0000 -0.0873112411
C   C184      1.0  0.77690  0.54910  0.15260  1.0000 -0.0873112411
C   C185      1.0  0.59550  0.40510  0.64760  1.0000 -0.0975145216
C   C186      1.0  0.59490  0.40450  0.85240  1.0000 -0.0975145216
C   C187      1.0  0.59550  0.40510  0.35240  1.0000 -0.0975145216
C   C188      1.0  0.59490  0.40450  0.14760  1.0000 -0.0975145216
C   C189      1.0  0.61105  0.30195  0.69470  1.0000 0.5275533244
C   C190      1.0  0.69805  0.38895  0.80530  1.0000 0.5275533244
C   C191      1.0  0.61105  0.30195  0.30530  1.0000 0.5275533244
C   C192      1.0  0.69805  0.38895  0.19470  1.0000 0.5275533244
N   N1        1.0  0.75423  0.66217  0.56197  1.0000 -0.3537907601
N   N2        1.0  0.33783  0.24577  0.93803  1.0000 -0.3555548839
N   N3        1.0  0.75423  0.66217  0.43803  1.0000 -0.3537907601
N   N4        1.0  0.33783  0.24577  0.06197  1.0000 -0.3555548839
N   N5        1.0  0.86180  0.65380  0.50000  1.0000 -0.3715842546
N   N6        1.0  0.34620  0.13820  0.00000  1.0000 -0.3715842546
N   N7        1.0  0.63260  0.64940  0.50000  1.0000 -0.3555548839
N   N8        1.0  0.35060  0.36740  0.00000  1.0000 -0.3555548839
N   N9        1.0  0.24577  0.33783  0.56197  1.0000 -0.3537907601
N   N10       1.0  0.66217  0.75423  0.93803  1.0000 -0.3555548839
N   N11       1.0  0.24577  0.33783  0.43803  1.0000 -0.3537907601
N   N12       1.0  0.66217  0.75423  0.06197  1.0000 -0.3537907601
N   N13       1.0  0.13820  0.34620  0.50000  1.0000 -0.3715842546
N   N14       1.0  0.65380  0.86180  0.00000  1.0000 -0.3715842546
N   N15       1.0  0.36740  0.35060  0.50000  1.0000 -0.3555548839
N   N16       1.0  0.64940  0.63260  0.00000  1.0000 -0.3555548839
O   O1        1.0  0.12383  0.61977  0.72468  1.0000 -0.489840261
O   O2        1.0  0.38023  0.87617  0.77532  1.0000 -0.489840261
O   O3        1.0  0.12383  0.61977  0.27532  1.0000 -0.489840261
O   O4        1.0  0.38023  0.87617  0.22468  1.0000 -0.489840261
O   O5        1.0  0.25050  0.76890  0.69755  1.0000 -0.5128889524
O   O6        1.0  0.23110  0.74950  0.80245  1.0000 -0.5128889524
O   O7        1.0  0.25050  0.76890  0.30245  1.0000 -0.5128889524
O   O8        1.0  0.23110  0.74950  0.19755  1.0000 -0.5128889524
O   O9        1.0  0.43255  0.78585  0.71115  1.0000 -0.5128889524
O   O10       1.0  0.21415  0.56745  0.78885  1.0000 -0.5128889524
O   O11       1.0  0.43255  0.78585  0.28885  1.0000 -0.5128889524
O   O12       1.0  0.21415  0.56745  0.21115  1.0000 -0.5128889524
O   O13       1.0  0.29908  0.61972  0.70374  1.0000 -0.5220081762
O   O14       1.0  0.38028  0.70092  0.79626  1.0000 -0.5220081762
O   O15       1.0  0.29908  0.61972  0.29626  1.0000 -0.5220081762
O   O16       1.0  0.38028  0.70092  0.20374  1.0000 -0.5220081762
O   O17       1.0  0.87617  0.38023  0.72468  1.0000 -0.489840261
O   O18       1.0  0.61977  0.12383  0.77532  1.0000 -0.489840261
O   O19       1.0  0.87617  0.38023  0.27532  1.0000 -0.489840261
O   O20       1.0  0.61977  0.12383  0.22468  1.0000 -0.489840261
O   O21       1.0  0.74950  0.23110  0.69755  1.0000 -0.5128889524
O   O22       1.0  0.76890  0.25050  0.80245  1.0000 -0.5128889524
O   O23       1.0  0.74950  0.23110  0.30245  1.0000 -0.5128889524
O   O24       1.0  0.76890  0.25050  0.19755  1.0000 -0.5128889524
O   O25       1.0  0.56745  0.21415  0.71115  1.0000 -0.5128889524
O   O26       1.0  0.78585  0.43255  0.78885  1.0000 -0.5128889524
O   O27       1.0  0.56745  0.21415  0.28885  1.0000 -0.5128889524
O   O28       1.0  0.78585  0.43255  0.21115  1.0000 -0.5128889524
O   O29       1.0  0.70092  0.38028  0.70374  1.0000 -0.5220081762
O   O30       1.0  0.61972  0.29908  0.79626  1.0000 -0.5220081762
O   O31       1.0  0.70092  0.38028  0.29626  1.0000 -0.5220081762
O   O32       1.0  0.61972  0.29908  0.20374  1.0000 -0.5220081762
