# DDEC6 charges by PACMAN v1.1 (https://github.com/mtap-research/PACMAN-charge/)
data_2016[Cu][nbo]3[ASR]19
_chemical_formula_sum              "Cu6 H90 C132 O30"
_cell_length_a       21.6226
_cell_length_b       21.6226
_cell_length_c       21.6226
_cell_angle_alpha    107.814
_cell_angle_beta     107.814
_cell_angle_gamma    107.814

_symmetry_space_group_name_H-M    "P 1"
_symmetry_Int_Tables_number       1

loop_
  _symmetry_equiv_pos_as_xyz
  'x, y, z'

loop_
  _atom_site_type_symbol
  _atom_site_label
  _atom_site_symmetry_multiplicity
  _atom_site_fract_x
  _atom_site_fract_y
  _atom_site_fract_z
  _atom_site_occupancy
  _atom_site_charge
Cu  Cu1       1.0  0.95602  0.95602  0.43091  1.0000 0.867051641
Cu  Cu2       1.0  0.95602  0.43091  0.95602  1.0000 0.867051641
Cu  Cu3       1.0  0.43091  0.95602  0.95602  1.0000 0.867051641
Cu  Cu4       1.0  0.04398  0.04398  0.56909  1.0000 0.867051641
Cu  Cu5       1.0  0.56909  0.04398  0.04398  1.0000 0.867051641
Cu  Cu6       1.0  0.04398  0.56909  0.04398  1.0000 0.867051641
H   H1        1.0  0.93280  0.11430  0.35390  1.0000 0.1282767346
H   H2        1.0  0.11430  0.35390  0.93280  1.0000 0.1282767346
H   H3        1.0  0.35390  0.93280  0.11430  1.0000 0.1282767346
H   H4        1.0  0.88570  0.06720  0.64610  1.0000 0.1282767346
H   H5        1.0  0.64610  0.88570  0.06720  1.0000 0.1282767346
H   H6        1.0  0.06720  0.64610  0.88570  1.0000 0.1282767346
H   H7        1.0  0.06720  0.88570  0.64610  1.0000 0.1282767346
H   H8        1.0  0.88570  0.64610  0.06720  1.0000 0.1282767346
H   H9        1.0  0.64610  0.06720  0.88570  1.0000 0.1282767346
H   H10       1.0  0.11430  0.93280  0.35390  1.0000 0.1282767346
H   H11       1.0  0.35390  0.11430  0.93280  1.0000 0.1282767346
H   H12       1.0  0.93280  0.35390  0.11430  1.0000 0.1282767346
H   H13       1.0  0.93780  0.21440  0.33370  1.0000 0.1282767346
H   H14       1.0  0.21440  0.33370  0.93780  1.0000 0.1282767346
H   H15       1.0  0.33370  0.93780  0.21440  1.0000 0.1282767346
H   H16       1.0  0.78560  0.06220  0.66630  1.0000 0.1282767346
H   H17       1.0  0.66630  0.78560  0.06220  1.0000 0.1282767346
H   H18       1.0  0.06220  0.66630  0.78560  1.0000 0.1282767346
H   H19       1.0  0.06220  0.78560  0.66630  1.0000 0.1282767346
H   H20       1.0  0.78560  0.66630  0.06220  1.0000 0.1282767346
H   H21       1.0  0.66630  0.06220  0.78560  1.0000 0.1282767346
H   H22       1.0  0.21440  0.93780  0.33370  1.0000 0.1282767346
H   H23       1.0  0.33370  0.21440  0.93780  1.0000 0.1282767346
H   H24       1.0  0.93780  0.33370  0.21440  1.0000 0.1282767346
H   H25       1.0  0.07880  0.34660  0.54080  1.0000 0.115801744
H   H26       1.0  0.34660  0.54080  0.07880  1.0000 0.115801744
H   H27       1.0  0.54080  0.07880  0.34660  1.0000 0.115801744
H   H28       1.0  0.65340  0.92120  0.45920  1.0000 0.115801744
H   H29       1.0  0.45920  0.65340  0.92120  1.0000 0.115801744
H   H30       1.0  0.92120  0.45920  0.65340  1.0000 0.115801744
H   H31       1.0  0.92120  0.65340  0.45920  1.0000 0.115801744
H   H32       1.0  0.65340  0.45920  0.92120  1.0000 0.115801744
H   H33       1.0  0.45920  0.92120  0.65340  1.0000 0.115801744
H   H34       1.0  0.34660  0.07880  0.54080  1.0000 0.115801744
H   H35       1.0  0.54080  0.34660  0.07880  1.0000 0.115801744
H   H36       1.0  0.07880  0.54080  0.34660  1.0000 0.115801744
H   H37       1.0  0.07620  0.24720  0.56270  1.0000 0.1282767346
H   H38       1.0  0.24720  0.56270  0.07620  1.0000 0.1282767346
H   H39       1.0  0.56270  0.07620  0.24720  1.0000 0.1282767346
H   H40       1.0  0.75280  0.92380  0.43730  1.0000 0.1282767346
H   H41       1.0  0.43730  0.75280  0.92380  1.0000 0.1282767346
H   H42       1.0  0.92380  0.43730  0.75280  1.0000 0.1282767346
H   H43       1.0  0.92380  0.75280  0.43730  1.0000 0.1282767346
H   H44       1.0  0.75280  0.43730  0.92380  1.0000 0.1282767346
H   H45       1.0  0.43730  0.92380  0.75280  1.0000 0.1282767346
H   H46       1.0  0.24720  0.07620  0.56270  1.0000 0.1282767346
H   H47       1.0  0.56270  0.24720  0.07620  1.0000 0.1282767346
H   H48       1.0  0.07620  0.56270  0.24720  1.0000 0.1282767346
H   H49       1.0  0.00360  0.40550  0.51930  1.0000 0.1132166993
H   H50       1.0  0.40550  0.51930  0.00360  1.0000 0.1132166993
H   H51       1.0  0.51930  0.00360  0.40550  1.0000 0.1132166993
H   H52       1.0  0.59450  0.99640  0.48070  1.0000 0.1132166993
H   H53       1.0  0.48070  0.59450  0.99640  1.0000 0.115801744
H   H54       1.0  0.99640  0.48070  0.59450  1.0000 0.1132166993
H   H55       1.0  0.99640  0.59450  0.48070  1.0000 0.1132166993
H   H56       1.0  0.59450  0.48070  0.99640  1.0000 0.1132166993
H   H57       1.0  0.48070  0.99640  0.59450  1.0000 0.1132166993
H   H58       1.0  0.40550  0.00360  0.51930  1.0000 0.1132166993
H   H59       1.0  0.51930  0.40550  0.00360  1.0000 0.1132166993
H   H60       1.0  0.00360  0.51930  0.40550  1.0000 0.1132166993
H   H61       1.0  0.11330  0.32750  0.37240  1.0000 0.0830799914
H   H62       1.0  0.32750  0.37240  0.11330  1.0000 0.0830799914
H   H63       1.0  0.37240  0.11330  0.32750  1.0000 0.0830799914
H   H64       1.0  0.67250  0.88670  0.62760  1.0000 0.0830799914
H   H65       1.0  0.62760  0.67250  0.88670  1.0000 0.0830799914
H   H66       1.0  0.88670  0.62760  0.67250  1.0000 0.0830799914
H   H67       1.0  0.88670  0.67250  0.62760  1.0000 0.0830799914
H   H68       1.0  0.67250  0.62760  0.88670  1.0000 0.0830799914
H   H69       1.0  0.62760  0.88670  0.67250  1.0000 0.0830799914
H   H70       1.0  0.32750  0.11330  0.37240  1.0000 0.0830799914
H   H71       1.0  0.37240  0.32750  0.11330  1.0000 0.0830799914
H   H72       1.0  0.11330  0.37240  0.32750  1.0000 0.0830799914
H   H73       1.0  0.14360  0.28620  0.28620  1.0000 0.1020918139
H   H74       1.0  0.28620  0.28620  0.14360  1.0000 0.1020918139
H   H75       1.0  0.28620  0.14360  0.28620  1.0000 0.1020918139
H   H76       1.0  0.71380  0.85640  0.71380  1.0000 0.1020918139
H   H77       1.0  0.71380  0.71380  0.85640  1.0000 0.1020918139
H   H78       1.0  0.85640  0.71380  0.71380  1.0000 0.1020918139
H   H79       1.0  0.07030  0.27270  0.22780  1.0000 0.1132166993
H   H80       1.0  0.27270  0.22780  0.07030  1.0000 0.1132166993
H   H81       1.0  0.22780  0.07030  0.27270  1.0000 0.1132166993
H   H82       1.0  0.72730  0.92970  0.77220  1.0000 0.1132166993
H   H83       1.0  0.77220  0.72730  0.92970  1.0000 0.1132166993
H   H84       1.0  0.92970  0.77220  0.72730  1.0000 0.1132166993
H   H85       1.0  0.92970  0.72730  0.77220  1.0000 0.1132166993
H   H86       1.0  0.72730  0.77220  0.92970  1.0000 0.1132166993
H   H87       1.0  0.77220  0.92970  0.72730  1.0000 0.1132166993
H   H88       1.0  0.27270  0.07030  0.22780  1.0000 0.1132166993
H   H89       1.0  0.22780  0.27270  0.07030  1.0000 0.1132166993
H   H90       1.0  0.07030  0.22780  0.27270  1.0000 0.1132166993
C   C1        1.0  0.00340  0.10576  0.47361  1.0000 0.5767613383
C   C2        1.0  0.10576  0.47361  0.00340  1.0000 0.5767613383
C   C3        1.0  0.47361  0.00340  0.10576  1.0000 0.5744961896
C   C4        1.0  0.89424  0.99660  0.52639  1.0000 0.5767613383
C   C5        1.0  0.52639  0.89424  0.99660  1.0000 0.5767613383
C   C6        1.0  0.99660  0.52639  0.89424  1.0000 0.5767613383
C   C7        1.0  0.99660  0.89424  0.52639  1.0000 0.5744961896
C   C8        1.0  0.89424  0.52639  0.99660  1.0000 0.5767613383
C   C9        1.0  0.52639  0.99660  0.89424  1.0000 0.5744961896
C   C10       1.0  0.10576  0.00340  0.47361  1.0000 0.5767613383
C   C11       1.0  0.47361  0.10576  0.00340  1.0000 0.5767613383
C   C12       1.0  0.00340  0.47361  0.10576  1.0000 0.5767613383
C   C13       1.0  0.00646  0.17158  0.46101  1.0000 -0.025149502
C   C14       1.0  0.17158  0.46101  0.00646  1.0000 -0.025149502
C   C15       1.0  0.46101  0.00646  0.17158  1.0000 -0.0207785501
C   C16       1.0  0.82842  0.99354  0.53899  1.0000 -0.0207785501
C   C17       1.0  0.53899  0.82842  0.99354  1.0000 -0.025149502
C   C18       1.0  0.99354  0.53899  0.82842  1.0000 -0.0207785501
C   C19       1.0  0.99354  0.82842  0.53899  1.0000 -0.0207785501
C   C20       1.0  0.82842  0.53899  0.99354  1.0000 -0.0207785501
C   C21       1.0  0.53899  0.99354  0.82842  1.0000 -0.0207785501
C   C22       1.0  0.17158  0.00646  0.46101  1.0000 -0.0207785501
C   C23       1.0  0.46101  0.17158  0.00646  1.0000 -0.0207785501
C   C24       1.0  0.00646  0.46101  0.17158  1.0000 -0.025149502
C   C25       1.0  0.96258  0.16081  0.39128  1.0000 -0.0905524795
C   C26       1.0  0.16081  0.39128  0.96258  1.0000 -0.0905524795
C   C27       1.0  0.39128  0.96258  0.16081  1.0000 -0.0905524795
C   C28       1.0  0.83919  0.03742  0.60872  1.0000 -0.0905524795
C   C29       1.0  0.60872  0.83919  0.03742  1.0000 -0.0905524795
C   C30       1.0  0.03742  0.60872  0.83919  1.0000 -0.0905524795
C   C31       1.0  0.03742  0.83919  0.60872  1.0000 -0.0905524795
C   C32       1.0  0.83919  0.60872  0.03742  1.0000 -0.0905524795
C   C33       1.0  0.60872  0.03742  0.83919  1.0000 -0.0905524795
C   C34       1.0  0.16081  0.96258  0.39128  1.0000 -0.0905524795
C   C35       1.0  0.39128  0.16081  0.96258  1.0000 -0.0905524795
C   C36       1.0  0.96258  0.39128  0.16081  1.0000 -0.0905524795
C   C37       1.0  0.96496  0.22089  0.37991  1.0000 -0.149884131
C   C38       1.0  0.22089  0.37991  0.96496  1.0000 -0.149884131
C   C39       1.0  0.37991  0.96496  0.22089  1.0000 -0.149884131
C   C40       1.0  0.77911  0.03504  0.62009  1.0000 -0.149884131
C   C41       1.0  0.62009  0.77911  0.03504  1.0000 -0.149884131
C   C42       1.0  0.03504  0.62009  0.77911  1.0000 -0.149884131
C   C43       1.0  0.03504  0.77911  0.62009  1.0000 -0.149884131
C   C44       1.0  0.77911  0.62009  0.03504  1.0000 -0.149884131
C   C45       1.0  0.62009  0.03504  0.77911  1.0000 -0.149884131
C   C46       1.0  0.22089  0.96496  0.37991  1.0000 -0.149884131
C   C47       1.0  0.37991  0.22089  0.96496  1.0000 -0.149884131
C   C48       1.0  0.96496  0.37991  0.22089  1.0000 -0.149884131
C   C49       1.0  0.00636  0.29000  0.43503  1.0000 0.0830799914
C   C50       1.0  0.29000  0.43503  0.00636  1.0000 0.0830799914
C   C51       1.0  0.43503  0.00636  0.29000  1.0000 0.0830799914
C   C52       1.0  0.71000  0.99364  0.56497  1.0000 0.0830799914
C   C53       1.0  0.56497  0.71000  0.99364  1.0000 0.0830799914
C   C54       1.0  0.99364  0.56497  0.71000  1.0000 0.0830799914
C   C55       1.0  0.99364  0.71000  0.56497  1.0000 0.0830799914
C   C56       1.0  0.71000  0.56497  0.99364  1.0000 0.0830799914
C   C57       1.0  0.56497  0.99364  0.71000  1.0000 0.0830799914
C   C58       1.0  0.29000  0.00636  0.43503  1.0000 0.0830799914
C   C59       1.0  0.43503  0.29000  0.00636  1.0000 0.0830799914
C   C60       1.0  0.00636  0.43503  0.29000  1.0000 0.0830799914
C   C61       1.0  0.04941  0.30008  0.50367  1.0000 -0.1603988287
C   C62       1.0  0.30008  0.50367  0.04941  1.0000 -0.1603988287
C   C63       1.0  0.50367  0.04941  0.30008  1.0000 -0.1603988287
C   C64       1.0  0.69992  0.95059  0.49633  1.0000 -0.1603988287
C   C65       1.0  0.49633  0.69992  0.95059  1.0000 -0.1603988287
C   C66       1.0  0.95059  0.49633  0.69992  1.0000 -0.1603988287
C   C67       1.0  0.95059  0.69992  0.49633  1.0000 -0.1603988287
C   C68       1.0  0.69992  0.49633  0.95059  1.0000 -0.1603988287
C   C69       1.0  0.49633  0.95059  0.69992  1.0000 -0.1603988287
C   C70       1.0  0.30008  0.04941  0.50367  1.0000 -0.1603988287
C   C71       1.0  0.50367  0.30008  0.04941  1.0000 -0.1603988287
C   C72       1.0  0.04941  0.50367  0.30008  1.0000 -0.1603988287
C   C73       1.0  0.04850  0.24048  0.51663  1.0000 -0.0905524795
C   C74       1.0  0.24048  0.51663  0.04850  1.0000 -0.0905524795
C   C75       1.0  0.51663  0.04850  0.24048  1.0000 -0.0905524795
C   C76       1.0  0.75952  0.95150  0.48337  1.0000 -0.0905524795
C   C77       1.0  0.48337  0.75952  0.95150  1.0000 -0.0905524795
C   C78       1.0  0.95150  0.48337  0.75952  1.0000 -0.0905524795
C   C79       1.0  0.95150  0.75952  0.48337  1.0000 -0.0905524795
C   C80       1.0  0.75952  0.48337  0.95150  1.0000 -0.0905524795
C   C81       1.0  0.48337  0.95150  0.75952  1.0000 -0.0905524795
C   C82       1.0  0.24048  0.04850  0.51663  1.0000 -0.0905524795
C   C83       1.0  0.51663  0.24048  0.04850  1.0000 -0.0905524795
C   C84       1.0  0.04850  0.51663  0.24048  1.0000 -0.0905524795
C   C85       1.0  0.00755  0.35659  0.42620  1.0000 -0.0207785501
C   C86       1.0  0.35659  0.42620  0.00755  1.0000 -0.0207785501
C   C87       1.0  0.42620  0.00755  0.35659  1.0000 -0.0207785501
C   C88       1.0  0.64341  0.99245  0.57380  1.0000 -0.0207785501
C   C89       1.0  0.57380  0.64341  0.99245  1.0000 -0.0207785501
C   C90       1.0  0.99245  0.57380  0.64341  1.0000 -0.0207785501
C   C91       1.0  0.99245  0.64341  0.57380  1.0000 -0.0207785501
C   C92       1.0  0.64341  0.57380  0.99245  1.0000 -0.0207785501
C   C93       1.0  0.57380  0.99245  0.64341  1.0000 -0.0207785501
C   C94       1.0  0.35659  0.00755  0.42620  1.0000 -0.0207785501
C   C95       1.0  0.42620  0.35659  0.00755  1.0000 -0.0207785501
C   C96       1.0  0.00755  0.42620  0.35659  1.0000 -0.0207785501
C   C97       1.0  0.00385  0.41025  0.47803  1.0000 -0.1936054678
C   C98       1.0  0.41025  0.47803  0.00385  1.0000 -0.1936054678
C   C99       1.0  0.47803  0.00385  0.41025  1.0000 -0.1936054678
C   C100      1.0  0.58975  0.99615  0.52197  1.0000 -0.1936054678
C   C101      1.0  0.52197  0.58975  0.99615  1.0000 -0.1936054678
C   C102      1.0  0.99615  0.52197  0.58975  1.0000 -0.1936054678
C   C103      1.0  0.99615  0.58975  0.52197  1.0000 -0.1936054678
C   C104      1.0  0.58975  0.52197  0.99615  1.0000 -0.1936054678
C   C105      1.0  0.52197  0.99615  0.58975  1.0000 -0.1936054678
C   C106      1.0  0.41025  0.00385  0.47803  1.0000 -0.1936054678
C   C107      1.0  0.47803  0.41025  0.00385  1.0000 -0.1936054678
C   C108      1.0  0.00385  0.47803  0.41025  1.0000 -0.1936054678
C   C109      1.0  0.00048  0.47056  0.47056  1.0000 0.0698785855
C   C110      1.0  0.47056  0.47056  0.00048  1.0000 0.0698785855
C   C111      1.0  0.47056  0.00048  0.47056  1.0000 0.0698785855
C   C112      1.0  0.52944  0.99952  0.52944  1.0000 0.0698785855
C   C113      1.0  0.52944  0.52944  0.99952  1.0000 0.0698785855
C   C114      1.0  0.99952  0.52944  0.52944  1.0000 0.0698785855
C   C115      1.0  0.00982  0.36524  0.36524  1.0000 0.1645004599
C   C116      1.0  0.36524  0.36524  0.00982  1.0000 0.1661483893
C   C117      1.0  0.36524  0.00982  0.36524  1.0000 0.1645004599
C   C118      1.0  0.63476  0.99018  0.63476  1.0000 0.1645004599
C   C119      1.0  0.63476  0.63476  0.99018  1.0000 0.1661483893
C   C120      1.0  0.99018  0.63476  0.63476  1.0000 0.1661483893
C   C121      1.0  0.08868  0.32551  0.32551  1.0000 -0.0207785501
C   C122      1.0  0.32551  0.32551  0.08868  1.0000 -0.0207785501
C   C123      1.0  0.32551  0.08868  0.32551  1.0000 -0.0207785501
C   C124      1.0  0.67449  0.91132  0.67449  1.0000 -0.0207785501
C   C125      1.0  0.67449  0.67449  0.91132  1.0000 -0.0207785501
C   C126      1.0  0.91132  0.67449  0.67449  1.0000 -0.0207785501
C   C127      1.0  0.09366  0.27427  0.27427  1.0000 -0.3622018398
C   C128      1.0  0.27427  0.27427  0.09366  1.0000 -0.3622018398
C   C129      1.0  0.27427  0.09366  0.27427  1.0000 -0.3622018398
C   C130      1.0  0.72573  0.90634  0.72573  1.0000 -0.3622018398
C   C131      1.0  0.72573  0.72573  0.90634  1.0000 -0.3622018398
C   C132      1.0  0.90634  0.72573  0.72573  1.0000 -0.3622018398
O   O1        1.0  0.04138  0.12013  0.53919  1.0000 -0.5316973628
O   O2        1.0  0.12013  0.53919  0.04138  1.0000 -0.5316973628
O   O3        1.0  0.53919  0.04138  0.12013  1.0000 -0.5316973628
O   O4        1.0  0.87987  0.95862  0.46081  1.0000 -0.5316973628
O   O5        1.0  0.46081  0.87987  0.95862  1.0000 -0.5316973628
O   O6        1.0  0.95862  0.46081  0.87987  1.0000 -0.5316973628
O   O7        1.0  0.95862  0.87987  0.46081  1.0000 -0.5316973628
O   O8        1.0  0.87987  0.46081  0.95862  1.0000 -0.5316973628
O   O9        1.0  0.46081  0.95862  0.87987  1.0000 -0.5316973628
O   O10       1.0  0.12013  0.04138  0.53919  1.0000 -0.5316973628
O   O11       1.0  0.53919  0.12013  0.04138  1.0000 -0.5316973628
O   O12       1.0  0.04138  0.53919  0.12013  1.0000 -0.5316973628
O   O13       1.0  0.96674  0.04531  0.42168  1.0000 -0.4994287318
O   O14       1.0  0.04531  0.42168  0.96674  1.0000 -0.4994287318
O   O15       1.0  0.42168  0.96674  0.04531  1.0000 -0.4994287318
O   O16       1.0  0.95469  0.03326  0.57832  1.0000 -0.4994287318
O   O17       1.0  0.57832  0.95469  0.03326  1.0000 -0.4994287318
O   O18       1.0  0.03326  0.57832  0.95469  1.0000 -0.4994287318
O   O19       1.0  0.03326  0.95469  0.57832  1.0000 -0.4994287318
O   O20       1.0  0.95469  0.57832  0.03326  1.0000 -0.4994287318
O   O21       1.0  0.57832  0.03326  0.95469  1.0000 -0.4994287318
O   O22       1.0  0.04531  0.96674  0.42168  1.0000 -0.4994287318
O   O23       1.0  0.42168  0.04531  0.96674  1.0000 -0.4994287318
O   O24       1.0  0.96674  0.42168  0.04531  1.0000 -0.4994287318
O   O25       1.0  0.01181  0.31110  0.31110  1.0000 -0.242370546
O   O26       1.0  0.31110  0.31110  0.01181  1.0000 -0.242370546
O   O27       1.0  0.31110  0.01181  0.31110  1.0000 -0.242370546
O   O28       1.0  0.68890  0.98819  0.68890  1.0000 -0.242370546
O   O29       1.0  0.68890  0.68890  0.98819  1.0000 -0.242370546
O   O30       1.0  0.98819  0.68890  0.68890  1.0000 -0.242370546
