# DDEC6 charges by PACMAN v1.1 (https://github.com/mtap-research/PACMAN-charge/)
data_2016[Cd][nan]3[ASR]34
_chemical_formula_sum              "Cd8 H80 C140 N24 O32"
_cell_length_a       8.289
_cell_length_b       25.656
_cell_length_c       15.477
_cell_angle_alpha    90
_cell_angle_beta     105.077
_cell_angle_gamma    90

_symmetry_space_group_name_H-M    "P 1"
_symmetry_Int_Tables_number       1

loop_
  _symmetry_equiv_pos_as_xyz
  'x, y, z'

loop_
  _atom_site_type_symbol
  _atom_site_label
  _atom_site_symmetry_multiplicity
  _atom_site_fract_x
  _atom_site_fract_y
  _atom_site_fract_z
  _atom_site_occupancy
  _atom_site_charge
Cd  Cd1       1.0  0.82799  0.72108  0.54686  1.0000 0.9257413622
Cd  Cd2       1.0  0.67201  0.22108  0.45314  1.0000 0.9257413622
Cd  Cd3       1.0  0.17201  0.27892  0.45314  1.0000 0.9257413622
Cd  Cd4       1.0  0.32799  0.77892  0.54686  1.0000 0.9257413622
Cd  Cd5       1.0  0.22961  0.52841  0.04160  1.0000 0.9209013161
Cd  Cd6       1.0  0.27039  0.02841  0.95840  1.0000 0.9209013161
Cd  Cd7       1.0  0.77039  0.47159  0.95840  1.0000 0.9209013161
Cd  Cd8       1.0  0.72961  0.97159  0.04160  1.0000 0.9209013161
H   H1        1.0  0.56400  0.44000  0.13570  1.0000 0.2882027503
H   H2        1.0  0.93600  0.94000  0.86430  1.0000 0.2882027503
H   H3        1.0  0.43600  0.56000  0.86430  1.0000 0.2882027503
H   H4        1.0  0.06400  0.06000  0.13570  1.0000 0.2882027503
H   H5        1.0  0.88280  0.59480  0.32020  1.0000 0.1212547358
H   H6        1.0  0.61720  0.09480  0.67980  1.0000 0.1212547358
H   H7        1.0  0.11720  0.40520  0.67980  1.0000 0.1212547358
H   H8        1.0  0.38280  0.90520  0.32020  1.0000 0.1212547358
H   H9        1.0  0.82330  0.55490  0.18150  1.0000 0.1212547358
H   H10       1.0  0.67670  0.05490  0.81850  1.0000 0.1212547358
H   H11       1.0  0.17670  0.44510  0.81850  1.0000 0.1212547358
H   H12       1.0  0.32330  0.94510  0.18150  1.0000 0.1212547358
H   H13       1.0  0.40720  0.65850  0.00220  1.0000 0.1212547358
H   H14       1.0  0.09280  0.15850  0.99780  1.0000 0.1212547358
H   H15       1.0  0.59280  0.34150  0.99780  1.0000 0.1212547358
H   H16       1.0  0.90720  0.84150  0.00220  1.0000 0.1212547358
H   H17       1.0  0.27910  0.73370  0.02530  1.0000 0.1098326754
H   H18       1.0  0.22090  0.23370  0.97470  1.0000 0.1098326754
H   H19       1.0  0.72090  0.26630  0.97470  1.0000 0.1098326754
H   H20       1.0  0.77910  0.76630  0.02530  1.0000 0.1098326754
H   H21       1.0  0.33350  0.77100  0.16650  1.0000 0.1027321716
H   H22       1.0  0.16650  0.27100  0.83350  1.0000 0.1027321716
H   H23       1.0  0.66650  0.22900  0.83350  1.0000 0.1027321716
H   H24       1.0  0.83350  0.72900  0.16650  1.0000 0.1027321716
H   H25       1.0  0.52120  0.73370  0.28390  1.0000 0.128275099
H   H26       1.0  0.97880  0.23370  0.71610  1.0000 0.128275099
H   H27       1.0  0.47880  0.26630  0.71610  1.0000 0.128275099
H   H28       1.0  0.02120  0.76630  0.28390  1.0000 0.128275099
H   H29       1.0  0.83050  0.65550  0.92550  1.0000 0.1212547358
H   H30       1.0  0.66950  0.15550  0.07450  1.0000 0.1212547358
H   H31       1.0  0.16950  0.34450  0.07450  1.0000 0.1212547358
H   H32       1.0  0.33050  0.84450  0.92550  1.0000 0.1212547358
H   H33       1.0  0.64750  0.70910  0.82510  1.0000 0.1212547358
H   H34       1.0  0.85250  0.20910  0.17490  1.0000 0.1212547358
H   H35       1.0  0.35250  0.29090  0.17490  1.0000 0.1212547358
H   H36       1.0  0.14750  0.79090  0.82510  1.0000 0.1212547358
H   H37       1.0  0.55230  0.62380  0.55430  1.0000 0.1212547358
H   H38       1.0  0.94770  0.12380  0.44570  1.0000 0.1212547358
H   H39       1.0  0.44770  0.37620  0.44570  1.0000 0.1212547358
H   H40       1.0  0.05230  0.87620  0.55430  1.0000 0.1212547358
H   H41       1.0  0.64520  0.54850  0.50600  1.0000 0.1098326754
H   H42       1.0  0.85480  0.04850  0.49400  1.0000 0.1098326754
H   H43       1.0  0.35480  0.45150  0.49400  1.0000 0.1098326754
H   H44       1.0  0.14520  0.95150  0.50600  1.0000 0.1098326754
H   H45       1.0  0.83550  0.49540  0.60460  1.0000 0.1027321716
H   H46       1.0  0.66450  0.99540  0.39540  1.0000 0.1027321716
H   H47       1.0  0.16450  0.50460  0.39540  1.0000 0.1027321716
H   H48       1.0  0.33550  0.00460  0.60460  1.0000 0.1027321716
H   H49       1.0  0.92800  0.51780  0.75240  1.0000 0.1212547358
H   H50       1.0  0.57200  0.01780  0.24760  1.0000 0.1212547358
H   H51       1.0  0.07200  0.48220  0.24760  1.0000 0.1212547358
H   H52       1.0  0.42800  0.98220  0.75240  1.0000 0.1212547358
H   H53       1.0  0.07940  0.63490  0.13000  1.0000 0.1212547358
H   H54       1.0  0.42060  0.13490  0.87000  1.0000 0.1212547358
H   H55       1.0  0.92060  0.36510  0.87000  1.0000 0.1212547358
H   H56       1.0  0.57940  0.86510  0.13000  1.0000 0.1212547358
H   H57       1.0  0.10170  0.67670  0.26260  1.0000 0.1098326754
H   H58       1.0  0.39830  0.17670  0.73740  1.0000 0.1098326754
H   H59       1.0  0.89830  0.32330  0.73740  1.0000 0.1098326754
H   H60       1.0  0.60170  0.82330  0.26260  1.0000 0.1098326754
H   H61       1.0  0.45120  0.58090  0.38150  1.0000 0.1212547358
H   H62       1.0  0.04880  0.08090  0.61850  1.0000 0.1212547358
H   H63       1.0  0.54880  0.41910  0.61850  1.0000 0.1212547358
H   H64       1.0  0.95120  0.91910  0.38150  1.0000 0.1212547358
H   H65       1.0  0.73880  0.37550  0.19330  1.0000 0.1392412994
H   H66       1.0  0.76120  0.87550  0.80670  1.0000 0.1392412994
H   H67       1.0  0.26120  0.62450  0.80670  1.0000 0.1392412994
H   H68       1.0  0.23880  0.12450  0.19330  1.0000 0.1392412994
H   H69       1.0  0.93250  0.31500  0.26360  1.0000 0.1098326754
H   H70       1.0  0.56750  0.81500  0.73640  1.0000 0.1098326754
H   H71       1.0  0.06750  0.68500  0.73640  1.0000 0.1098326754
H   H72       1.0  0.43250  0.18500  0.26360  1.0000 0.1098326754
H   H73       1.0  0.98990  0.38380  0.49170  1.0000 0.1098326754
H   H74       1.0  0.51010  0.88380  0.50830  1.0000 0.1098326754
H   H75       1.0  0.01010  0.61620  0.50830  1.0000 0.1098326754
H   H76       1.0  0.48990  0.11620  0.49170  1.0000 0.1098326754
H   H77       1.0  0.79130  0.44480  0.43020  1.0000 0.1392412994
H   H78       1.0  0.70870  0.94480  0.56980  1.0000 0.1392412994
H   H79       1.0  0.20870  0.55520  0.56980  1.0000 0.1392412994
H   H80       1.0  0.29130  0.05520  0.43020  1.0000 0.1392412994
C   C1        1.0  0.76360  0.67605  0.37830  1.0000 0.519688892
C   C2        1.0  0.73640  0.17605  0.62170  1.0000 0.519688892
C   C3        1.0  0.23640  0.32395  0.62170  1.0000 0.519688892
C   C4        1.0  0.26360  0.82395  0.37830  1.0000 0.519688892
C   C5        1.0  0.71540  0.65149  0.28707  1.0000 -0.0499016579
C   C6        1.0  0.78460  0.15149  0.71293  1.0000 -0.0499016579
C   C7        1.0  0.28460  0.34851  0.71293  1.0000 -0.0499016579
C   C8        1.0  0.21540  0.84851  0.28707  1.0000 -0.0499016579
C   C9        1.0  0.79950  0.60845  0.27330  1.0000 -0.1387579388
C   C10       1.0  0.70050  0.10845  0.72670  1.0000 -0.1387579388
C   C11       1.0  0.20050  0.39155  0.72670  1.0000 -0.1387579388
C   C12       1.0  0.29950  0.89155  0.27330  1.0000 -0.1387579388
C   C13       1.0  0.76290  0.58420  0.18980  1.0000 -0.1176725731
C   C14       1.0  0.73710  0.08420  0.81020  1.0000 -0.1176725731
C   C15       1.0  0.23710  0.41580  0.81020  1.0000 -0.1176725731
C   C16       1.0  0.26290  0.91580  0.18980  1.0000 -0.1176725731
C   C17       1.0  0.64000  0.60277  0.12020  1.0000 -0.0829375584
C   C18       1.0  0.86000  0.10277  0.87980  1.0000 -0.0829375584
C   C19       1.0  0.36000  0.39723  0.87980  1.0000 -0.0829375584
C   C20       1.0  0.14000  0.89723  0.12020  1.0000 -0.0829375584
C   C21       1.0  0.60320  0.57107  0.03541  1.0000 0.5772534486
C   C22       1.0  0.89680  0.07107  0.96459  1.0000 0.5772534486
C   C23       1.0  0.39680  0.42893  0.96459  1.0000 0.5772534486
C   C24       1.0  0.10320  0.92893  0.03541  1.0000 0.5772534486
C   C25       1.0  0.55120  0.64909  0.13044  1.0000 0.0495971169
C   C26       1.0  0.94880  0.14909  0.86956  1.0000 0.0495971169
C   C27       1.0  0.44880  0.35091  0.86956  1.0000 0.0495971169
C   C28       1.0  0.05120  0.85091  0.13044  1.0000 0.0495971169
C   C29       1.0  0.43240  0.67331  0.05900  1.0000 -0.1387579388
C   C30       1.0  0.06760  0.17331  0.94100  1.0000 -0.1387579388
C   C31       1.0  0.56760  0.32669  0.94100  1.0000 -0.1387579388
C   C32       1.0  0.93240  0.82669  0.05900  1.0000 -0.1387579388
C   C33       1.0  0.35530  0.71793  0.07300  1.0000 -0.1000838104
C   C34       1.0  0.14470  0.21793  0.92700  1.0000 -0.1000838104
C   C35       1.0  0.64470  0.28207  0.92700  1.0000 -0.1000838104
C   C36       1.0  0.85530  0.78207  0.07300  1.0000 -0.1000838104
C   C37       1.0  0.38870  0.74066  0.15790  1.0000 -0.1000838104
C   C38       1.0  0.11130  0.24066  0.84210  1.0000 -0.1000838104
C   C39       1.0  0.61130  0.25934  0.84210  1.0000 -0.1000838104
C   C40       1.0  0.88870  0.75934  0.15790  1.0000 -0.1000838104
C   C41       1.0  0.50110  0.71851  0.22750  1.0000 -0.1345919494
C   C42       1.0  0.99890  0.21851  0.77250  1.0000 -0.1345919494
C   C43       1.0  0.49890  0.28149  0.77250  1.0000 -0.1345919494
C   C44       1.0  0.00110  0.78149  0.22750  1.0000 -0.1387579388
C   C45       1.0  0.58810  0.67312  0.21646  1.0000 0.0409545244
C   C46       1.0  0.91190  0.17312  0.78354  1.0000 0.0409545244
C   C47       1.0  0.41190  0.32688  0.78354  1.0000 0.0409545244
C   C48       1.0  0.08810  0.82688  0.21646  1.0000 0.0409545244
C   C49       1.0  0.97480  0.56890  0.90590  1.0000 0.5660937902
C   C50       1.0  0.52520  0.06890  0.09410  1.0000 0.5660937902
C   C51       1.0  0.02520  0.43110  0.09410  1.0000 0.5660937902
C   C52       1.0  0.47480  0.93110  0.90590  1.0000 0.5660937902
C   C53       1.0  0.85110  0.60038  0.83750  1.0000 -0.0684092047
C   C54       1.0  0.64890  0.10038  0.16250  1.0000 -0.0684092047
C   C55       1.0  0.14890  0.39962  0.16250  1.0000 -0.0684092047
C   C56       1.0  0.35110  0.89962  0.83750  1.0000 -0.0684092047
C   C57       1.0  0.79550  0.64606  0.86550  1.0000 -0.1176725731
C   C58       1.0  0.70450  0.14606  0.13450  1.0000 -0.1176725731
C   C59       1.0  0.20450  0.35394  0.13450  1.0000 -0.1176725731
C   C60       1.0  0.29550  0.85394  0.86550  1.0000 -0.1176725731
C   C61       1.0  0.68640  0.67874  0.80470  1.0000 -0.1176725731
C   C62       1.0  0.81360  0.17874  0.19530  1.0000 -0.1176725731
C   C63       1.0  0.31360  0.32126  0.19530  1.0000 -0.1176725731
C   C64       1.0  0.18640  0.82126  0.80470  1.0000 -0.1176725731
C   C65       1.0  0.63690  0.66667  0.71654  1.0000 -0.0684092047
C   C66       1.0  0.86310  0.16662  0.28346  1.0000 -0.0684092047
C   C67       1.0  0.36310  0.33338  0.28346  1.0000 -0.0684092047
C   C68       1.0  0.13690  0.83338  0.71654  1.0000 -0.0684092047
C   C69       1.0  0.53590  0.70679  0.65452  1.0000 0.5580010887
C   C70       1.0  0.96410  0.20679  0.34548  1.0000 0.5580010887
C   C71       1.0  0.46410  0.29321  0.34548  1.0000 0.5580010887
C   C72       1.0  0.03590  0.79321  0.65452  1.0000 0.5580010887
C   C73       1.0  0.68550  0.61890  0.68484  1.0000 0.0495971169
C   C74       1.0  0.81450  0.11890  0.31516  1.0000 0.0495971169
C   C75       1.0  0.31450  0.38110  0.31516  1.0000 0.0495971169
C   C76       1.0  0.18550  0.88110  0.68484  1.0000 0.0495971169
C   C77       1.0  0.62850  0.60306  0.59460  1.0000 -0.1461627209
C   C78       1.0  0.87150  0.10306  0.40540  1.0000 -0.1461627209
C   C79       1.0  0.37150  0.39694  0.40540  1.0000 -0.1461627209
C   C80       1.0  0.12850  0.89694  0.59460  1.0000 -0.1461627209
C   C81       1.0  0.68350  0.55810  0.56580  1.0000 -0.0918033544
C   C82       1.0  0.81650  0.05810  0.43420  1.0000 -0.0918033544
C   C83       1.0  0.31650  0.44190  0.43420  1.0000 -0.0918033544
C   C84       1.0  0.18350  0.94190  0.56580  1.0000 -0.0918033544
C   C85       1.0  0.79730  0.52588  0.62520  1.0000 -0.1084682888
C   C86       1.0  0.70270  0.02588  0.37480  1.0000 -0.1084682888
C   C87       1.0  0.20270  0.47412  0.37480  1.0000 -0.1084682888
C   C88       1.0  0.29730  0.97412  0.62520  1.0000 -0.1084682888
C   C89       1.0  0.85210  0.53928  0.71350  1.0000 -0.1387579388
C   C90       1.0  0.64790  0.03928  0.28650  1.0000 -0.1461627209
C   C91       1.0  0.14790  0.46072  0.28650  1.0000 -0.1461627209
C   C92       1.0  0.35210  0.96072  0.71350  1.0000 -0.1387579388
C   C93       1.0  0.79580  0.58493  0.74637  1.0000 0.0495971169
C   C94       1.0  0.70420  0.08493  0.25363  1.0000 0.0495971169
C   C95       1.0  0.20420  0.41507  0.25363  1.0000 0.0495971169
C   C96       1.0  0.29580  0.91507  0.74637  1.0000 0.0495971169
C   C97       1.0  0.15580  0.62278  0.18120  1.0000 0.0409545244
C   C98       1.0  0.34420  0.12278  0.81880  1.0000 0.0409545244
C   C99       1.0  0.84420  0.37722  0.81880  1.0000 0.0409545244
C   C100      1.0  0.65580  0.87722  0.18120  1.0000 0.0409545244
C   C101      1.0  0.17060  0.64827  0.26110  1.0000 0.0240902089
C   C102      1.0  0.32940  0.14827  0.73890  1.0000 0.0240902089
C   C103      1.0  0.82940  0.35173  0.73890  1.0000 0.0240902089
C   C104      1.0  0.67060  0.85173  0.26110  1.0000 0.0240902089
C   C105      1.0  0.37340  0.59246  0.33030  1.0000 -0.0032219193
C   C106      1.0  0.12660  0.09246  0.66970  1.0000 -0.0032219193
C   C107      1.0  0.62660  0.40754  0.66970  1.0000 -0.0032219193
C   C108      1.0  0.87340  0.90754  0.33030  1.0000 -0.0032219193
C   C109      1.0  0.35780  0.56660  0.25104  1.0000 0.1027321716
C   C110      1.0  0.14220  0.06660  0.74896  1.0000 0.1027321716
C   C111      1.0  0.64220  0.43340  0.74896  1.0000 0.1027321716
C   C112      1.0  0.85780  0.93340  0.25104  1.0000 0.1027321716
C   C113      1.0  0.45790  0.52088  0.24246  1.0000 0.2398841259
C   C114      1.0  0.04210  0.02088  0.75754  1.0000 0.2398841259
C   C115      1.0  0.54210  0.47912  0.75754  1.0000 0.2398841259
C   C116      1.0  0.95790  0.97912  0.24246  1.0000 0.2398841259
C   C117      1.0  0.62240  0.45786  0.26343  1.0000 0.2611380991
C   C118      1.0  0.87760  0.95786  0.73657  1.0000 0.2611380991
C   C119      1.0  0.37760  0.54214  0.73657  1.0000 0.2611380991
C   C120      1.0  0.12240  0.04214  0.26343  1.0000 0.2611380991
C   C121      1.0  0.74420  0.41771  0.30398  1.0000 0.0668078724
C   C122      1.0  0.75580  0.91771  0.69602  1.0000 0.0668078724
C   C123      1.0  0.25580  0.58229  0.69602  1.0000 0.0668078724
C   C124      1.0  0.24420  0.08229  0.30398  1.0000 0.0668078724
C   C125      1.0  0.78760  0.37797  0.25450  1.0000 -0.1729761187
C   C126      1.0  0.71240  0.87797  0.74550  1.0000 -0.1729761187
C   C127      1.0  0.21240  0.62203  0.74550  1.0000 -0.1729761187
C   C128      1.0  0.28760  0.12203  0.25450  1.0000 -0.1729761187
C   C129      1.0  0.90500  0.34188  0.29740  1.0000 0.1027321716
C   C130      1.0  0.59500  0.84188  0.70260  1.0000 0.1027321716
C   C131      1.0  0.09500  0.65812  0.70260  1.0000 0.1027321716
C   C132      1.0  0.40500  0.15812  0.29740  1.0000 0.1027321716
C   C133      1.0  0.93760  0.38190  0.43090  1.0000 0.0834446873
C   C134      1.0  0.56240  0.88190  0.56910  1.0000 0.0834446873
C   C135      1.0  0.06240  0.61810  0.56910  1.0000 0.0834446873
C   C136      1.0  0.43760  0.11810  0.43090  1.0000 0.0834446873
C   C137      1.0  0.81960  0.41909  0.39430  1.0000 -0.1729761187
C   C138      1.0  0.68040  0.91909  0.60570  1.0000 -0.1729761187
C   C139      1.0  0.18040  0.58091  0.60570  1.0000 -0.1729761187
C   C140      1.0  0.31960  0.08091  0.39430  1.0000 -0.1729761187
N   N1        1.0  0.24730  0.58148  0.17548  1.0000 -0.2267946277
N   N2        1.0  0.25270  0.08148  0.82452  1.0000 -0.2267946277
N   N3        1.0  0.75270  0.41852  0.82452  1.0000 -0.2267946277
N   N4        1.0  0.74730  0.91852  0.17548  1.0000 -0.2267946277
N   N5        1.0  0.27900  0.63386  0.33560  1.0000 -0.1781944755
N   N6        1.0  0.22100  0.13386  0.66440  1.0000 -0.1781944755
N   N7        1.0  0.72100  0.36614  0.66440  1.0000 -0.1781944755
N   N8        1.0  0.77900  0.86614  0.33560  1.0000 -0.1781944755
N   N9        1.0  0.56990  0.49589  0.30785  1.0000 -0.40304779
N   N10       1.0  0.93010  0.99589  0.69215  1.0000 -0.40304779
N   N11       1.0  0.43010  0.50411  0.69215  1.0000 -0.40304779
N   N12       1.0  0.06990  0.00411  0.30785  1.0000 -0.40304779
N   N13       1.0  0.44060  0.50068  0.16220  1.0000 -0.2458264355
N   N14       1.0  0.05940  0.00068  0.83780  1.0000 -0.2458264355
N   N15       1.0  0.55940  0.49932  0.83780  1.0000 -0.2458264355
N   N16       1.0  0.94060  0.99932  0.16220  1.0000 -0.2458264355
N   N17       1.0  0.54700  0.46066  0.17622  1.0000 -0.1084682888
N   N18       1.0  0.95300  0.96066  0.82378  1.0000 -0.1084682888
N   N19       1.0  0.45300  0.53934  0.82378  1.0000 -0.1084682888
N   N20       1.0  0.04700  0.03934  0.17622  1.0000 -0.1084682888
N   N21       1.0  0.98050  0.34357  0.38395  1.0000 -0.2388304893
N   N22       1.0  0.51950  0.84357  0.61605  1.0000 -0.2388304893
N   N23       1.0  0.01950  0.65643  0.61605  1.0000 -0.2388304893
N   N24       1.0  0.48050  0.15643  0.38395  1.0000 -0.2388304893
O   O1        1.0  0.66900  0.67252  0.42684  1.0000 -0.4823269297
O   O2        1.0  0.83100  0.17252  0.57316  1.0000 -0.4823269297
O   O3        1.0  0.33100  0.32748  0.57316  1.0000 -0.4823269297
O   O4        1.0  0.16900  0.82748  0.42684  1.0000 -0.4823269297
O   O5        1.0  0.89960  0.69796  0.40240  1.0000 -0.5059845422
O   O6        1.0  0.60040  0.19796  0.59760  1.0000 -0.5059845422
O   O7        1.0  0.10040  0.30204  0.59760  1.0000 -0.5059845422
O   O8        1.0  0.39960  0.80204  0.40240  1.0000 -0.5059845422
O   O9        1.0  0.72290  0.54873  0.01873  1.0000 -0.5214894786
O   O10       1.0  0.77710  0.04873  0.98127  1.0000 -0.5214894786
O   O11       1.0  0.27710  0.45127  0.98127  1.0000 -0.5214894786
O   O12       1.0  0.22290  0.95127  0.01873  1.0000 -0.5214894786
O   O13       1.0  0.45170  0.56823  0.98801  1.0000 -0.593805385
O   O14       1.0  0.04830  0.06823  0.01199  1.0000 -0.593805385
O   O15       1.0  0.54830  0.43177  0.01199  1.0000 -0.593805385
O   O16       1.0  0.95170  0.93177  0.98801  1.0000 -0.593805385
O   O17       1.0  0.08260  0.59376  0.96339  1.0000 -0.5214894786
O   O18       1.0  0.41740  0.09376  0.03661  1.0000 -0.5214894786
O   O19       1.0  0.91740  0.40624  0.03661  1.0000 -0.5214894786
O   O20       1.0  0.58260  0.90624  0.96339  1.0000 -0.5214894786
O   O21       1.0  0.96770  0.52005  0.90586  1.0000 -0.558797193
O   O22       1.0  0.53230  0.02005  0.09414  1.0000 -0.558797193
O   O23       1.0  0.03230  0.47995  0.09414  1.0000 -0.558797193
O   O24       1.0  0.46770  0.97995  0.90586  1.0000 -0.558797193
O   O25       1.0  0.41750  0.72829  0.67612  1.0000 -0.5214894786
O   O26       1.0  0.08250  0.22829  0.32388  1.0000 -0.5214894786
O   O27       1.0  0.58250  0.27171  0.32388  1.0000 -0.5214894786
O   O28       1.0  0.91750  0.77171  0.67612  1.0000 -0.5214894786
O   O29       1.0  0.57820  0.71927  0.58465  1.0000 -0.539484692
O   O30       1.0  0.92180  0.21927  0.41535  1.0000 -0.539484692
O   O31       1.0  0.42180  0.28073  0.41535  1.0000 -0.539484692
O   O32       1.0  0.07820  0.78073  0.58465  1.0000 -0.539484692
