# DDEC6 charges by PACMAN v1.1 (https://github.com/mtap-research/PACMAN-charge/)
data_2016[Zn][sqc]3[ASR]1
_chemical_formula_sum              "Zn16 H80 C160 N48 O64"
_cell_length_a       17.611
_cell_length_b       18.087
_cell_length_c       24.867
_cell_angle_alpha    90
_cell_angle_beta     90
_cell_angle_gamma    90

_symmetry_space_group_name_H-M    "P 1"
_symmetry_Int_Tables_number       1

loop_
  _symmetry_equiv_pos_as_xyz
  'x, y, z'

loop_
  _atom_site_type_symbol
  _atom_site_label
  _atom_site_symmetry_multiplicity
  _atom_site_fract_x
  _atom_site_fract_y
  _atom_site_fract_z
  _atom_site_occupancy
  _atom_site_charge
Zn  Zn1       1.0  0.18593  0.03642  0.56437  1.0000 0.699424994
Zn  Zn2       1.0  0.18593  0.46358  0.93563  1.0000 0.699424994
Zn  Zn3       1.0  0.31407  0.96358  0.06437  1.0000 0.699424994
Zn  Zn4       1.0  0.31407  0.53642  0.43563  1.0000 0.699424994
Zn  Zn5       1.0  0.81407  0.96358  0.43563  1.0000 0.699424994
Zn  Zn6       1.0  0.81407  0.53642  0.06437  1.0000 0.699424994
Zn  Zn7       1.0  0.68593  0.03642  0.93563  1.0000 0.699424994
Zn  Zn8       1.0  0.68593  0.46358  0.56437  1.0000 0.699424994
Zn  Zn9       1.0  0.24036  0.93714  0.31804  1.0000 0.6909373448
Zn  Zn10      1.0  0.24036  0.56286  0.18196  1.0000 0.6909373448
Zn  Zn11      1.0  0.25964  0.06286  0.81804  1.0000 0.6909373448
Zn  Zn12      1.0  0.25964  0.43714  0.68196  1.0000 0.6909373448
Zn  Zn13      1.0  0.75964  0.06286  0.68196  1.0000 0.6909373448
Zn  Zn14      1.0  0.75964  0.43714  0.81804  1.0000 0.6909373448
Zn  Zn15      1.0  0.74036  0.93714  0.18196  1.0000 0.6909373448
Zn  Zn16      1.0  0.74036  0.56286  0.31804  1.0000 0.6909373448
H   H1        1.0  0.94260  0.08100  0.44730  1.0000 0.1271023376
H   H2        1.0  0.94260  0.41900  0.05270  1.0000 0.1271023376
H   H3        1.0  0.55740  0.91900  0.94730  1.0000 0.1271023376
H   H4        1.0  0.55740  0.58100  0.55270  1.0000 0.1271023376
H   H5        1.0  0.05740  0.91900  0.55270  1.0000 0.1271023376
H   H6        1.0  0.05740  0.58100  0.94730  1.0000 0.1271023376
H   H7        1.0  0.44260  0.08100  0.05270  1.0000 0.1271023376
H   H8        1.0  0.44260  0.41900  0.44730  1.0000 0.1271023376
H   H9        1.0  0.95480  0.87040  0.40830  1.0000 0.1006757395
H   H10       1.0  0.95480  0.62960  0.09170  1.0000 0.1006757395
H   H11       1.0  0.54520  0.12960  0.90830  1.0000 0.1006757395
H   H12       1.0  0.54520  0.37040  0.59170  1.0000 0.1006757395
H   H13       1.0  0.04520  0.12960  0.59170  1.0000 0.1006757395
H   H14       1.0  0.04520  0.37040  0.90830  1.0000 0.1006757395
H   H15       1.0  0.45480  0.87040  0.09170  1.0000 0.1006757395
H   H16       1.0  0.45480  0.62960  0.40830  1.0000 0.1006757395
H   H17       1.0  0.07290  0.08940  0.45250  1.0000 0.1503639341
H   H18       1.0  0.07290  0.41060  0.04750  1.0000 0.1503639341
H   H19       1.0  0.42710  0.91060  0.95250  1.0000 0.1503639341
H   H20       1.0  0.42710  0.58940  0.54750  1.0000 0.1503639341
H   H21       1.0  0.92710  0.91060  0.54750  1.0000 0.1503639341
H   H22       1.0  0.92710  0.58940  0.95250  1.0000 0.1503639341
H   H23       1.0  0.57290  0.08940  0.04750  1.0000 0.1503639341
H   H24       1.0  0.57290  0.41060  0.45250  1.0000 0.1503639341
H   H25       1.0  0.08600  0.87470  0.40820  1.0000 0.1420296923
H   H26       1.0  0.08600  0.62530  0.09180  1.0000 0.1420296923
H   H27       1.0  0.41400  0.12530  0.90820  1.0000 0.1420296923
H   H28       1.0  0.41400  0.37470  0.59180  1.0000 0.1420296923
H   H29       1.0  0.91400  0.12530  0.59180  1.0000 0.1420296923
H   H30       1.0  0.91400  0.37470  0.90820  1.0000 0.1420296923
H   H31       1.0  0.58600  0.87470  0.09180  1.0000 0.1420296923
H   H32       1.0  0.58600  0.62530  0.40820  1.0000 0.1420296923
H   H33       1.0  0.35760  0.68120  0.17550  1.0000 0.1271023376
H   H34       1.0  0.35760  0.81880  0.32450  1.0000 0.1271023376
H   H35       1.0  0.14240  0.31880  0.67550  1.0000 0.1271023376
H   H36       1.0  0.14240  0.18120  0.82450  1.0000 0.1271023376
H   H37       1.0  0.64240  0.31880  0.82450  1.0000 0.1271023376
H   H38       1.0  0.64240  0.18120  0.67550  1.0000 0.1271023376
H   H39       1.0  0.85760  0.68120  0.32450  1.0000 0.1271023376
H   H40       1.0  0.85760  0.81880  0.17550  1.0000 0.1271023376
H   H41       1.0  0.15810  0.82890  0.18480  1.0000 0.1503639341
H   H42       1.0  0.15810  0.67110  0.31520  1.0000 0.1503639341
H   H43       1.0  0.34190  0.17110  0.68480  1.0000 0.1503639341
H   H44       1.0  0.34190  0.32890  0.81520  1.0000 0.1503639341
H   H45       1.0  0.84190  0.17110  0.81520  1.0000 0.1503639341
H   H46       1.0  0.84190  0.32890  0.68480  1.0000 0.1503639341
H   H47       1.0  0.65810  0.82890  0.31520  1.0000 0.1503639341
H   H48       1.0  0.65810  0.67110  0.18480  1.0000 0.1503639341
H   H49       1.0  0.14440  0.70020  0.18630  1.0000 0.1006757395
H   H50       1.0  0.14440  0.79980  0.31370  1.0000 0.1006757395
H   H51       1.0  0.35560  0.29980  0.68630  1.0000 0.1006757395
H   H52       1.0  0.35560  0.20020  0.81370  1.0000 0.1006757395
H   H53       1.0  0.85560  0.29980  0.81370  1.0000 0.1006757395
H   H54       1.0  0.85560  0.20020  0.68630  1.0000 0.1006757395
H   H55       1.0  0.64440  0.70020  0.31370  1.0000 0.1006757395
H   H56       1.0  0.64440  0.79980  0.18630  1.0000 0.1006757395
H   H57       1.0  0.37460  0.80430  0.18000  1.0000 0.1420296923
H   H58       1.0  0.37460  0.69570  0.32000  1.0000 0.1420296923
H   H59       1.0  0.12540  0.19570  0.68000  1.0000 0.1420296923
H   H60       1.0  0.12540  0.30430  0.82000  1.0000 0.1420296923
H   H61       1.0  0.62540  0.19570  0.82000  1.0000 0.1420296923
H   H62       1.0  0.62540  0.30430  0.68000  1.0000 0.1420296923
H   H63       1.0  0.87460  0.80430  0.32000  1.0000 0.1420296923
H   H64       1.0  0.87460  0.69570  0.18000  1.0000 0.1420296923
H   H65       1.0  0.42390  0.97260  0.50340  1.0000 0.3870568004
H   H66       1.0  0.42390  0.52740  0.99660  1.0000 0.3870568004
H   H67       1.0  0.07610  0.02740  0.00340  1.0000 0.3870568004
H   H68       1.0  0.07610  0.47260  0.49660  1.0000 0.3870568004
H   H69       1.0  0.57610  0.02740  0.49660  1.0000 0.3870568004
H   H70       1.0  0.57610  0.47260  0.00340  1.0000 0.3870568004
H   H71       1.0  0.92390  0.97260  0.99660  1.0000 0.3870568004
H   H72       1.0  0.92390  0.52740  0.50340  1.0000 0.3870568004
H   H73       1.0  0.23640  0.17090  0.24800  1.0000 0.3870568004
H   H74       1.0  0.23640  0.32910  0.25200  1.0000 0.3870568004
H   H75       1.0  0.26360  0.82910  0.74800  1.0000 0.3870568004
H   H76       1.0  0.26360  0.67090  0.75200  1.0000 0.3870568004
H   H77       1.0  0.76360  0.82910  0.75200  1.0000 0.3870568004
H   H78       1.0  0.76360  0.67090  0.74800  1.0000 0.3870568004
H   H79       1.0  0.73640  0.17090  0.25200  1.0000 0.3870568004
H   H80       1.0  0.73640  0.32910  0.24800  1.0000 0.3870568004
C   C1        1.0  0.34190  0.02470  0.51710  1.0000 0.5511085585
C   C2        1.0  0.34190  0.47530  0.98290  1.0000 0.5511085585
C   C3        1.0  0.15810  0.97530  0.01710  1.0000 0.5511085585
C   C4        1.0  0.15810  0.52470  0.48290  1.0000 0.5511085585
C   C5        1.0  0.65810  0.97530  0.48290  1.0000 0.5511085585
C   C6        1.0  0.65810  0.52470  0.01710  1.0000 0.5511085585
C   C7        1.0  0.84190  0.02470  0.98290  1.0000 0.5511085585
C   C8        1.0  0.84190  0.47530  0.51710  1.0000 0.5511085585
C   C9        1.0  0.26830  0.83530  0.18390  1.0000 0.0716339688
C   C10       1.0  0.26830  0.66470  0.31610  1.0000 0.0716339688
C   C11       1.0  0.23170  0.16470  0.68390  1.0000 0.0716339688
C   C12       1.0  0.23170  0.33530  0.81610  1.0000 0.0716339688
C   C13       1.0  0.73170  0.16470  0.81610  1.0000 0.0716339688
C   C14       1.0  0.73170  0.33530  0.68390  1.0000 0.0716339688
C   C15       1.0  0.76830  0.83530  0.31610  1.0000 0.0716339688
C   C16       1.0  0.76830  0.66470  0.18390  1.0000 0.0716339688
C   C17       1.0  0.17860  0.98500  0.43840  1.0000 0.3065785364
C   C18       1.0  0.17860  0.51500  0.06160  1.0000 0.3065785364
C   C19       1.0  0.32140  0.01500  0.93840  1.0000 0.3065785364
C   C20       1.0  0.32140  0.48500  0.56160  1.0000 0.3065785364
C   C21       1.0  0.82140  0.01500  0.56160  1.0000 0.3065785364
C   C22       1.0  0.82140  0.48500  0.93840  1.0000 0.3065785364
C   C23       1.0  0.67860  0.98500  0.06160  1.0000 0.3065785364
C   C24       1.0  0.67860  0.51500  0.43840  1.0000 0.3065785364
C   C25       1.0  0.97230  0.03800  0.44100  1.0000 0.0620304838
C   C26       1.0  0.97230  0.46200  0.05900  1.0000 0.0620304838
C   C27       1.0  0.52770  0.96200  0.94100  1.0000 0.0620304838
C   C28       1.0  0.52770  0.53800  0.55900  1.0000 0.0620304838
C   C29       1.0  0.02770  0.96200  0.55900  1.0000 0.0620304838
C   C30       1.0  0.02770  0.53800  0.94100  1.0000 0.0620304838
C   C31       1.0  0.47230  0.03800  0.05900  1.0000 0.0620304838
C   C32       1.0  0.47230  0.46200  0.44100  1.0000 0.0620304838
C   C33       1.0  0.97890  0.91560  0.41770  1.0000 0.0806496244
C   C34       1.0  0.97890  0.58440  0.08230  1.0000 0.0806496244
C   C35       1.0  0.52110  0.08440  0.91770  1.0000 0.0806496244
C   C36       1.0  0.52110  0.41560  0.58230  1.0000 0.0806496244
C   C37       1.0  0.02110  0.08440  0.58230  1.0000 0.0806496244
C   C38       1.0  0.02110  0.41560  0.91770  1.0000 0.0806496244
C   C39       1.0  0.47890  0.91560  0.08230  1.0000 0.0806496244
C   C40       1.0  0.47890  0.58440  0.41770  1.0000 0.0806496244
C   C41       1.0  0.30050  0.09390  0.13260  1.0000 0.5568626866
C   C42       1.0  0.30050  0.40610  0.36740  1.0000 0.5568626866
C   C43       1.0  0.19950  0.90610  0.63260  1.0000 0.5568626866
C   C44       1.0  0.19950  0.59390  0.86740  1.0000 0.5568626866
C   C45       1.0  0.69950  0.90610  0.86740  1.0000 0.5568626866
C   C46       1.0  0.69950  0.59390  0.63260  1.0000 0.5568626866
C   C47       1.0  0.80050  0.09390  0.36740  1.0000 0.5568626866
C   C48       1.0  0.80050  0.40610  0.13260  1.0000 0.5568626866
C   C49       1.0  0.36750  0.96670  0.39020  1.0000 0.5568626866
C   C50       1.0  0.36750  0.53330  0.10980  1.0000 0.5568626866
C   C51       1.0  0.13250  0.03330  0.89020  1.0000 0.5568626866
C   C52       1.0  0.13250  0.46670  0.60980  1.0000 0.5568626866
C   C53       1.0  0.63250  0.03330  0.60980  1.0000 0.5568626866
C   C54       1.0  0.63250  0.46670  0.89020  1.0000 0.5568626866
C   C55       1.0  0.86750  0.96670  0.10980  1.0000 0.5568626866
C   C56       1.0  0.86750  0.53330  0.39020  1.0000 0.5568626866
C   C57       1.0  0.29090  0.02960  0.16830  1.0000 0.0117626774
C   C58       1.0  0.29090  0.47040  0.33170  1.0000 0.0117626774
C   C59       1.0  0.20910  0.97040  0.66830  1.0000 0.0117626774
C   C60       1.0  0.20910  0.52960  0.83170  1.0000 0.0117626774
C   C61       1.0  0.70910  0.97040  0.83170  1.0000 0.0117626774
C   C62       1.0  0.70910  0.52960  0.66830  1.0000 0.0117626774
C   C63       1.0  0.79090  0.02960  0.33170  1.0000 0.0117626774
C   C64       1.0  0.79090  0.47040  0.16830  1.0000 0.0117626774
C   C65       1.0  0.29850  0.97820  0.42230  1.0000 -0.005792122
C   C66       1.0  0.29850  0.52180  0.07770  1.0000 -0.0048739128
C   C67       1.0  0.20150  0.02180  0.92230  1.0000 -0.0048739128
C   C68       1.0  0.20150  0.47820  0.57770  1.0000 -0.0048739128
C   C69       1.0  0.70150  0.02180  0.57770  1.0000 -0.0048739128
C   C70       1.0  0.70150  0.47820  0.92230  1.0000 -0.0048739128
C   C71       1.0  0.79850  0.97820  0.07770  1.0000 -0.0048739128
C   C72       1.0  0.79850  0.52180  0.42230  1.0000 -0.0048739128
C   C73       1.0  0.27600  0.02390  0.22280  1.0000 0.0008449598
C   C74       1.0  0.27600  0.47610  0.27720  1.0000 0.0008449598
C   C75       1.0  0.22400  0.97610  0.72280  1.0000 0.0008449598
C   C76       1.0  0.22400  0.52390  0.77720  1.0000 0.0008449598
C   C77       1.0  0.72400  0.97610  0.77720  1.0000 0.0008449598
C   C78       1.0  0.72400  0.52390  0.72280  1.0000 0.0008449598
C   C79       1.0  0.77600  0.02390  0.27720  1.0000 0.0008449598
C   C80       1.0  0.77600  0.47610  0.22280  1.0000 0.0008449598
C   C81       1.0  0.28840  0.00410  0.47410  1.0000 -0.0048739128
C   C82       1.0  0.28840  0.49590  0.02590  1.0000 -0.0048739128
C   C83       1.0  0.21160  0.99590  0.97410  1.0000 -0.0048739128
C   C84       1.0  0.21160  0.50410  0.52590  1.0000 -0.0048739128
C   C85       1.0  0.71160  0.99590  0.52590  1.0000 -0.0048739128
C   C86       1.0  0.71160  0.50410  0.97410  1.0000 -0.0048739128
C   C87       1.0  0.78840  0.00410  0.02590  1.0000 -0.0048739128
C   C88       1.0  0.78840  0.49590  0.47410  1.0000 -0.0048739128
C   C89       1.0  0.27680  0.91310  0.18920  1.0000 0.2898215138
C   C90       1.0  0.27680  0.58690  0.31080  1.0000 0.2898215138
C   C91       1.0  0.22320  0.08690  0.68920  1.0000 0.2898215138
C   C92       1.0  0.22320  0.41310  0.81080  1.0000 0.2898215138
C   C93       1.0  0.72320  0.08690  0.81080  1.0000 0.2898215138
C   C94       1.0  0.72320  0.41310  0.68920  1.0000 0.2898215138
C   C95       1.0  0.77680  0.91310  0.31080  1.0000 0.2898215138
C   C96       1.0  0.77680  0.58690  0.18920  1.0000 0.2898215138
C   C97       1.0  0.09440  0.98150  0.43250  1.0000 0.1006757395
C   C98       1.0  0.09440  0.51850  0.06750  1.0000 0.1006757395
C   C99       1.0  0.40560  0.01850  0.93250  1.0000 0.1006757395
C   C100      1.0  0.40560  0.48150  0.56750  1.0000 0.1006757395
C   C101      1.0  0.90560  0.01850  0.56750  1.0000 0.1006757395
C   C102      1.0  0.90560  0.48150  0.93250  1.0000 0.1006757395
C   C103      1.0  0.59440  0.98150  0.06750  1.0000 0.1006757395
C   C104      1.0  0.59440  0.51850  0.43250  1.0000 0.1006757395
C   C105      1.0  0.04970  0.04370  0.44340  1.0000 -0.1602374158
C   C106      1.0  0.04970  0.45630  0.05660  1.0000 -0.1602374158
C   C107      1.0  0.45030  0.95630  0.94340  1.0000 -0.1602374158
C   C108      1.0  0.45030  0.54370  0.55660  1.0000 -0.1602374158
C   C109      1.0  0.95030  0.95630  0.55660  1.0000 -0.1602374158
C   C110      1.0  0.95030  0.54370  0.94340  1.0000 -0.1602374158
C   C111      1.0  0.54970  0.04370  0.05660  1.0000 -0.1602374158
C   C112      1.0  0.54970  0.45630  0.44340  1.0000 -0.1602374158
C   C113      1.0  0.05770  0.91740  0.41800  1.0000 -0.2105711868
C   C114      1.0  0.05770  0.58260  0.08200  1.0000 -0.2105711868
C   C115      1.0  0.44230  0.08260  0.91800  1.0000 -0.2105711868
C   C116      1.0  0.44230  0.41740  0.58200  1.0000 -0.2105711868
C   C117      1.0  0.94230  0.08260  0.58200  1.0000 -0.2105711868
C   C118      1.0  0.94230  0.41740  0.91800  1.0000 -0.2105711868
C   C119      1.0  0.55770  0.91740  0.08200  1.0000 -0.2105711868
C   C120      1.0  0.55770  0.58260  0.41800  1.0000 -0.2105711868
C   C121      1.0  0.31380  0.71170  0.17750  1.0000 0.0806496244
C   C122      1.0  0.31380  0.78830  0.32250  1.0000 0.0806496244
C   C123      1.0  0.18620  0.28830  0.67750  1.0000 0.0806496244
C   C124      1.0  0.18620  0.21170  0.82250  1.0000 0.0806496244
C   C125      1.0  0.68620  0.28830  0.82250  1.0000 0.0806496244
C   C126      1.0  0.68620  0.21170  0.67750  1.0000 0.0806496244
C   C127      1.0  0.81380  0.71170  0.32250  1.0000 0.0806496244
C   C128      1.0  0.81380  0.78830  0.17750  1.0000 0.0806496244
C   C129      1.0  0.26590  0.08020  0.26440  1.0000 0.5511085585
C   C130      1.0  0.26590  0.41980  0.23560  1.0000 0.5511085585
C   C131      1.0  0.23410  0.91980  0.76440  1.0000 0.5511085585
C   C132      1.0  0.23410  0.58020  0.73560  1.0000 0.5511085585
C   C133      1.0  0.73410  0.91980  0.73560  1.0000 0.5511085585
C   C134      1.0  0.73410  0.58020  0.76440  1.0000 0.5511085585
C   C135      1.0  0.76590  0.08020  0.23560  1.0000 0.5511085585
C   C136      1.0  0.76590  0.41980  0.26440  1.0000 0.5511085585
C   C137      1.0  0.20300  0.79980  0.18390  1.0000 -0.2105711868
C   C138      1.0  0.20300  0.70020  0.31610  1.0000 -0.2105711868
C   C139      1.0  0.29700  0.20020  0.68390  1.0000 -0.2105711868
C   C140      1.0  0.29700  0.29980  0.81610  1.0000 -0.2105711868
C   C141      1.0  0.79700  0.20020  0.81610  1.0000 -0.2105711868
C   C142      1.0  0.79700  0.29980  0.68390  1.0000 -0.2105711868
C   C143      1.0  0.70300  0.79980  0.31610  1.0000 -0.2105711868
C   C144      1.0  0.70300  0.70020  0.18390  1.0000 -0.2105711868
C   C145      1.0  0.19350  0.72140  0.18280  1.0000 0.0716339688
C   C146      1.0  0.19350  0.77860  0.31720  1.0000 0.0716339688
C   C147      1.0  0.30650  0.27860  0.68280  1.0000 0.0716339688
C   C148      1.0  0.30650  0.22140  0.81720  1.0000 0.0716339688
C   C149      1.0  0.80650  0.27860  0.81720  1.0000 0.0716339688
C   C150      1.0  0.80650  0.22140  0.68280  1.0000 0.0716339688
C   C151      1.0  0.69350  0.72140  0.31720  1.0000 0.0716339688
C   C152      1.0  0.69350  0.77860  0.18280  1.0000 0.0716339688
C   C153      1.0  0.32390  0.78620  0.18040  1.0000 -0.217515166
C   C154      1.0  0.32390  0.71380  0.31960  1.0000 -0.217515166
C   C155      1.0  0.17610  0.21380  0.68040  1.0000 -0.217515166
C   C156      1.0  0.17610  0.28620  0.81960  1.0000 -0.217515166
C   C157      1.0  0.67610  0.21380  0.81960  1.0000 -0.217515166
C   C158      1.0  0.67610  0.28620  0.68040  1.0000 -0.217515166
C   C159      1.0  0.82390  0.78620  0.31960  1.0000 -0.217515166
C   C160      1.0  0.82390  0.71380  0.18040  1.0000 -0.217515166
N   N1        1.0  0.22820  0.96510  0.40000  1.0000 -0.3485476813
N   N2        1.0  0.22820  0.53490  0.10000  1.0000 -0.3485476813
N   N3        1.0  0.27180  0.03490  0.90000  1.0000 -0.3485476813
N   N4        1.0  0.27180  0.46510  0.60000  1.0000 -0.3485476813
N   N5        1.0  0.77180  0.03490  0.60000  1.0000 -0.3485476813
N   N6        1.0  0.77180  0.46510  0.90000  1.0000 -0.3485476813
N   N7        1.0  0.72820  0.96510  0.10000  1.0000 -0.3485476813
N   N8        1.0  0.72820  0.53490  0.40000  1.0000 -0.3485476813
N   N9        1.0  0.21180  0.00930  0.48420  1.0000 -0.3590082053
N   N10       1.0  0.21180  0.49070  0.01580  1.0000 -0.3590082053
N   N11       1.0  0.28820  0.99070  0.98420  1.0000 -0.3590082053
N   N12       1.0  0.28820  0.50930  0.51580  1.0000 -0.3590082053
N   N13       1.0  0.78820  0.99070  0.51580  1.0000 -0.3590082053
N   N14       1.0  0.78820  0.50930  0.98420  1.0000 -0.3590082053
N   N15       1.0  0.71180  0.00930  0.01580  1.0000 -0.3590082053
N   N16       1.0  0.71180  0.49070  0.48420  1.0000 -0.3590082053
N   N17       1.0  0.29240  0.95960  0.14820  1.0000 -0.3323558747
N   N18       1.0  0.29240  0.54040  0.35180  1.0000 -0.3323558747
N   N19       1.0  0.20760  0.04040  0.64820  1.0000 -0.3323558747
N   N20       1.0  0.20760  0.45960  0.85180  1.0000 -0.3323558747
N   N21       1.0  0.70760  0.04040  0.85180  1.0000 -0.3323558747
N   N22       1.0  0.70760  0.45960  0.64820  1.0000 -0.3323558747
N   N23       1.0  0.79240  0.95960  0.35180  1.0000 -0.3323558747
N   N24       1.0  0.79240  0.54040  0.14820  1.0000 -0.3323558747
N   N25       1.0  0.26620  0.95180  0.23640  1.0000 -0.3590082053
N   N26       1.0  0.26620  0.54820  0.26360  1.0000 -0.3590082053
N   N27       1.0  0.23380  0.04820  0.73640  1.0000 -0.3590082053
N   N28       1.0  0.23380  0.45180  0.76360  1.0000 -0.3590082053
N   N29       1.0  0.73380  0.04820  0.76360  1.0000 -0.3590082053
N   N30       1.0  0.73380  0.45180  0.73640  1.0000 -0.3590082053
N   N31       1.0  0.76620  0.95180  0.26360  1.0000 -0.3590082053
N   N32       1.0  0.76620  0.54820  0.23640  1.0000 -0.3590082053
N   N33       1.0  0.25010  0.68120  0.17720  1.0000 -0.1602374158
N   N34       1.0  0.25010  0.81880  0.32280  1.0000 -0.1602374158
N   N35       1.0  0.24990  0.31880  0.67720  1.0000 -0.1602374158
N   N36       1.0  0.24990  0.18120  0.82280  1.0000 -0.1602374158
N   N37       1.0  0.74990  0.31880  0.82280  1.0000 -0.1602374158
N   N38       1.0  0.74990  0.18120  0.67720  1.0000 -0.1602374158
N   N39       1.0  0.75010  0.68120  0.32280  1.0000 -0.1602374158
N   N40       1.0  0.75010  0.81880  0.17720  1.0000 -0.1602374158
N   N41       1.0  0.93550  0.97220  0.42960  1.0000 -0.217515166
N   N42       1.0  0.93550  0.52780  0.07040  1.0000 -0.217515166
N   N43       1.0  0.56450  0.02780  0.92960  1.0000 -0.217515166
N   N44       1.0  0.56450  0.47220  0.57040  1.0000 -0.217515166
N   N45       1.0  0.06450  0.02780  0.57040  1.0000 -0.217515166
N   N46       1.0  0.06450  0.47220  0.92960  1.0000 -0.217515166
N   N47       1.0  0.43550  0.97220  0.07040  1.0000 -0.217515166
N   N48       1.0  0.43550  0.52780  0.42960  1.0000 -0.217515166
O   O1        1.0  0.35960  0.94690  0.34220  1.0000 -0.537478122
O   O2        1.0  0.35960  0.55310  0.15780  1.0000 -0.537478122
O   O3        1.0  0.14040  0.05310  0.84220  1.0000 -0.537478122
O   O4        1.0  0.14040  0.44690  0.65780  1.0000 -0.537478122
O   O5        1.0  0.64040  0.05310  0.65780  1.0000 -0.537478122
O   O6        1.0  0.64040  0.44690  0.84220  1.0000 -0.537478122
O   O7        1.0  0.85960  0.94690  0.15780  1.0000 -0.537478122
O   O8        1.0  0.85960  0.55310  0.34220  1.0000 -0.537478122
O   O9        1.0  0.43200  0.97780  0.41260  1.0000 -0.5318309582
O   O10       1.0  0.43200  0.52220  0.08740  1.0000 -0.5318309582
O   O11       1.0  0.06800  0.02220  0.91260  1.0000 -0.5318309582
O   O12       1.0  0.06800  0.47780  0.58740  1.0000 -0.5318309582
O   O13       1.0  0.56800  0.02220  0.58740  1.0000 -0.5318309582
O   O14       1.0  0.56800  0.47780  0.91260  1.0000 -0.5318309582
O   O15       1.0  0.93200  0.97780  0.08740  1.0000 -0.5318309582
O   O16       1.0  0.93200  0.52220  0.41260  1.0000 -0.5318309582
O   O17       1.0  0.31690  0.04500  0.56090  1.0000 -0.4897587422
O   O18       1.0  0.31690  0.45500  0.93910  1.0000 -0.4897587422
O   O19       1.0  0.18310  0.95500  0.06090  1.0000 -0.4897587422
O   O20       1.0  0.18310  0.54500  0.43910  1.0000 -0.4897587422
O   O21       1.0  0.68310  0.95500  0.43910  1.0000 -0.4897587422
O   O22       1.0  0.68310  0.54500  0.06090  1.0000 -0.4897587422
O   O23       1.0  0.81690  0.04500  0.93910  1.0000 -0.4897587422
O   O24       1.0  0.81690  0.45500  0.56090  1.0000 -0.4897587422
O   O25       1.0  0.41340  0.01760  0.50740  1.0000 -0.3913949794
O   O26       1.0  0.41340  0.48240  0.99260  1.0000 -0.3913949794
O   O27       1.0  0.08660  0.98240  0.00740  1.0000 -0.3913949794
O   O28       1.0  0.08660  0.51760  0.49260  1.0000 -0.3913949794
O   O29       1.0  0.58660  0.98240  0.49260  1.0000 -0.3913949794
O   O30       1.0  0.58660  0.51760  0.00740  1.0000 -0.3913949794
O   O31       1.0  0.91340  0.01760  0.99260  1.0000 -0.3913949794
O   O32       1.0  0.91340  0.48240  0.50740  1.0000 -0.3913949794
O   O33       1.0  0.30850  0.08060  0.08450  1.0000 -0.522766377
O   O34       1.0  0.30850  0.41940  0.41550  1.0000 -0.522766377
O   O35       1.0  0.19150  0.91940  0.58450  1.0000 -0.522766377
O   O36       1.0  0.19150  0.58060  0.91550  1.0000 -0.522766377
O   O37       1.0  0.69150  0.91940  0.91550  1.0000 -0.522766377
O   O38       1.0  0.69150  0.58060  0.58450  1.0000 -0.522766377
O   O39       1.0  0.80850  0.08060  0.41550  1.0000 -0.522766377
O   O40       1.0  0.80850  0.41940  0.08450  1.0000 -0.522766377
O   O41       1.0  0.30090  0.15860  0.15350  1.0000 -0.5318309582
O   O42       1.0  0.30090  0.34140  0.34650  1.0000 -0.5318309582
O   O43       1.0  0.19910  0.84140  0.65350  1.0000 -0.5318309582
O   O44       1.0  0.19910  0.65860  0.84650  1.0000 -0.5318309582
O   O45       1.0  0.69910  0.84140  0.84650  1.0000 -0.5318309582
O   O46       1.0  0.69910  0.65860  0.65350  1.0000 -0.5318309582
O   O47       1.0  0.80090  0.15860  0.34650  1.0000 -0.5318309582
O   O48       1.0  0.80090  0.34140  0.15350  1.0000 -0.5318309582
O   O49       1.0  0.24620  0.06320  0.31010  1.0000 -0.4897587422
O   O50       1.0  0.24620  0.43680  0.18990  1.0000 -0.4897587422
O   O51       1.0  0.25380  0.93680  0.81010  1.0000 -0.4897587422
O   O52       1.0  0.25380  0.56320  0.68990  1.0000 -0.4897587422
O   O53       1.0  0.75380  0.93680  0.68990  1.0000 -0.4897587422
O   O54       1.0  0.75380  0.56320  0.81010  1.0000 -0.4897587422
O   O55       1.0  0.74620  0.06320  0.18990  1.0000 -0.4897587422
O   O56       1.0  0.74620  0.43680  0.31010  1.0000 -0.4897587422
O   O57       1.0  0.27810  0.14870  0.25100  1.0000 -0.4167939491
O   O58       1.0  0.27810  0.35130  0.24900  1.0000 -0.4167939491
O   O59       1.0  0.22190  0.85130  0.75100  1.0000 -0.4167939491
O   O60       1.0  0.22190  0.64870  0.74900  1.0000 -0.4167939491
O   O61       1.0  0.72190  0.85130  0.74900  1.0000 -0.4167939491
O   O62       1.0  0.72190  0.64870  0.75100  1.0000 -0.4167939491
O   O63       1.0  0.77810  0.14870  0.24900  1.0000 -0.4167939491
O   O64       1.0  0.77810  0.35130  0.25100  1.0000 -0.4167939491
