# DDEC6 charges by PACMAN v1.1 (https://github.com/mtap-research/PACMAN-charge/)
data_2016[Cu][nbo]3[ASR]25
_chemical_formula_sum              "Cu6 H90 C132 O30"
_cell_length_a       21.4428
_cell_length_b       21.4428
_cell_length_c       21.4428
_cell_angle_alpha    112.764
_cell_angle_beta     112.764
_cell_angle_gamma    112.764

_symmetry_space_group_name_H-M    "P 1"
_symmetry_Int_Tables_number       1

loop_
  _symmetry_equiv_pos_as_xyz
  'x, y, z'

loop_
  _atom_site_type_symbol
  _atom_site_label
  _atom_site_symmetry_multiplicity
  _atom_site_fract_x
  _atom_site_fract_y
  _atom_site_fract_z
  _atom_site_occupancy
  _atom_site_charge
Cu  Cu1       1.0  0.41643  0.93469  0.93469  1.0000 0.8528001521
Cu  Cu2       1.0  0.93469  0.93469  0.41643  1.0000 0.8528001521
Cu  Cu3       1.0  0.93469  0.41643  0.93469  1.0000 0.8528001521
Cu  Cu4       1.0  0.06531  0.58357  0.06531  1.0000 0.8528001521
Cu  Cu5       1.0  0.06531  0.06531  0.58357  1.0000 0.8528001521
Cu  Cu6       1.0  0.58357  0.06531  0.06531  1.0000 0.8528001521
H   H1        1.0  0.67300  0.91890  0.09150  1.0000 0.1258312869
H   H2        1.0  0.91890  0.09150  0.67300  1.0000 0.1258312869
H   H3        1.0  0.09150  0.67300  0.91890  1.0000 0.1258312869
H   H4        1.0  0.08110  0.32700  0.90850  1.0000 0.1258312869
H   H5        1.0  0.90850  0.08110  0.32700  1.0000 0.1258312869
H   H6        1.0  0.32700  0.90850  0.08110  1.0000 0.1258312869
H   H7        1.0  0.32700  0.08110  0.90850  1.0000 0.1258312869
H   H8        1.0  0.08110  0.90850  0.32700  1.0000 0.1258312869
H   H9        1.0  0.90850  0.32700  0.08110  1.0000 0.1258312869
H   H10       1.0  0.91890  0.67300  0.09150  1.0000 0.1258312869
H   H11       1.0  0.09150  0.91890  0.67300  1.0000 0.1258312869
H   H12       1.0  0.67300  0.09150  0.91890  1.0000 0.1258312869
H   H13       1.0  0.69380  0.81910  0.08650  1.0000 0.1211814787
H   H14       1.0  0.81910  0.08650  0.69380  1.0000 0.1211814787
H   H15       1.0  0.08650  0.69380  0.81910  1.0000 0.1211814787
H   H16       1.0  0.18090  0.30620  0.91350  1.0000 0.1211814787
H   H17       1.0  0.91350  0.18090  0.30620  1.0000 0.1211814787
H   H18       1.0  0.30620  0.91350  0.18090  1.0000 0.1211814787
H   H19       1.0  0.30620  0.18090  0.91350  1.0000 0.1211814787
H   H20       1.0  0.18090  0.91350  0.30620  1.0000 0.1211814787
H   H21       1.0  0.91350  0.30620  0.18090  1.0000 0.1211814787
H   H22       1.0  0.81910  0.69380  0.08650  1.0000 0.1211814787
H   H23       1.0  0.08650  0.81910  0.69380  1.0000 0.1211814787
H   H24       1.0  0.69380  0.08650  0.81910  1.0000 0.1211814787
H   H25       1.0  0.44190  0.62520  0.88670  1.0000 0.1117735418
H   H26       1.0  0.62520  0.88670  0.44190  1.0000 0.1117735418
H   H27       1.0  0.88670  0.44190  0.62520  1.0000 0.1117735418
H   H28       1.0  0.37480  0.55810  0.11330  1.0000 0.1211814787
H   H29       1.0  0.11330  0.37480  0.55810  1.0000 0.1117735418
H   H30       1.0  0.55810  0.11330  0.37480  1.0000 0.1117735418
H   H31       1.0  0.55810  0.37480  0.11330  1.0000 0.1211814787
H   H32       1.0  0.37480  0.11330  0.55810  1.0000 0.1117735418
H   H33       1.0  0.11330  0.55810  0.37480  1.0000 0.1117735418
H   H34       1.0  0.62520  0.44190  0.88670  1.0000 0.1117735418
H   H35       1.0  0.88670  0.62520  0.44190  1.0000 0.1117735418
H   H36       1.0  0.44190  0.88670  0.62520  1.0000 0.1117735418
H   H37       1.0  0.42190  0.72470  0.88970  1.0000 0.1258312869
H   H38       1.0  0.72470  0.88970  0.42190  1.0000 0.1258312869
H   H39       1.0  0.88970  0.42190  0.72470  1.0000 0.1258312869
H   H40       1.0  0.27530  0.57810  0.11030  1.0000 0.1258312869
H   H41       1.0  0.11030  0.27530  0.57810  1.0000 0.1258312869
H   H42       1.0  0.57810  0.11030  0.27530  1.0000 0.1258312869
H   H43       1.0  0.57810  0.27530  0.11030  1.0000 0.1258312869
H   H44       1.0  0.27530  0.11030  0.57810  1.0000 0.1258312869
H   H45       1.0  0.11030  0.57810  0.27530  1.0000 0.1258312869
H   H46       1.0  0.72470  0.42190  0.88970  1.0000 0.1258312869
H   H47       1.0  0.88970  0.72470  0.42190  1.0000 0.1258312869
H   H48       1.0  0.42190  0.88970  0.72470  1.0000 0.1258312869
H   H49       1.0  0.48370  0.59580  0.99490  1.0000 0.1117735418
H   H50       1.0  0.59580  0.99490  0.48370  1.0000 0.1117735418
H   H51       1.0  0.99490  0.48370  0.59580  1.0000 0.1117735418
H   H52       1.0  0.40420  0.51630  0.00510  1.0000 0.1117735418
H   H53       1.0  0.00510  0.40420  0.51630  1.0000 0.1117735418
H   H54       1.0  0.51630  0.00510  0.40420  1.0000 0.1117735418
H   H55       1.0  0.51630  0.40420  0.00510  1.0000 0.1117735418
H   H56       1.0  0.40420  0.00510  0.51630  1.0000 0.1117735418
H   H57       1.0  0.00510  0.51630  0.40420  1.0000 0.1117735418
H   H58       1.0  0.59580  0.48370  0.99490  1.0000 0.1117735418
H   H59       1.0  0.99490  0.59580  0.48370  1.0000 0.1117735418
H   H60       1.0  0.48370  0.99490  0.59580  1.0000 0.1117735418
H   H61       1.0  0.65620  0.61320  0.87220  1.0000 0.0796869932
H   H62       1.0  0.61320  0.87220  0.65620  1.0000 0.0796869932
H   H63       1.0  0.87220  0.65620  0.61320  1.0000 0.0796869932
H   H64       1.0  0.38680  0.34380  0.12780  1.0000 0.0796869932
H   H65       1.0  0.12780  0.38680  0.34380  1.0000 0.0796869932
H   H66       1.0  0.34380  0.12780  0.38680  1.0000 0.0796869932
H   H67       1.0  0.34380  0.38680  0.12780  1.0000 0.0796869932
H   H68       1.0  0.38680  0.12780  0.34380  1.0000 0.0796869932
H   H69       1.0  0.12780  0.34380  0.38680  1.0000 0.0796869932
H   H70       1.0  0.61320  0.65620  0.87220  1.0000 0.0796869932
H   H71       1.0  0.87220  0.61320  0.65620  1.0000 0.0796869932
H   H72       1.0  0.65620  0.87220  0.61320  1.0000 0.0796869932
H   H73       1.0  0.65270  0.65270  0.78940  1.0000 0.095012681
H   H74       1.0  0.65270  0.78940  0.65270  1.0000 0.095012681
H   H75       1.0  0.78940  0.65270  0.65270  1.0000 0.095012681
H   H76       1.0  0.34730  0.34730  0.21060  1.0000 0.0869573294
H   H77       1.0  0.21060  0.34730  0.34730  1.0000 0.0869573294
H   H78       1.0  0.34730  0.21060  0.34730  1.0000 0.095012681
H   H79       1.0  0.75070  0.70680  0.86770  1.0000 0.1117735418
H   H80       1.0  0.70680  0.86770  0.75070  1.0000 0.1117735418
H   H81       1.0  0.86770  0.75070  0.70680  1.0000 0.1117735418
H   H82       1.0  0.29320  0.24930  0.13230  1.0000 0.1117735418
H   H83       1.0  0.13230  0.29320  0.24930  1.0000 0.1117735418
H   H84       1.0  0.24930  0.13230  0.29320  1.0000 0.1117735418
H   H85       1.0  0.24930  0.29320  0.13230  1.0000 0.1117735418
H   H86       1.0  0.29320  0.13230  0.24930  1.0000 0.1117735418
H   H87       1.0  0.13230  0.24930  0.29320  1.0000 0.1117735418
H   H88       1.0  0.70680  0.75070  0.86770  1.0000 0.1117735418
H   H89       1.0  0.86770  0.70680  0.75070  1.0000 0.1117735418
H   H90       1.0  0.75070  0.86770  0.70680  1.0000 0.1117735418
C   C1        1.0  0.52942  0.89568  0.99490  1.0000 0.5813720091
C   C2        1.0  0.89568  0.99490  0.52942  1.0000 0.5813720091
C   C3        1.0  0.99490  0.52942  0.89568  1.0000 0.5813720091
C   C4        1.0  0.10432  0.47058  0.00510  1.0000 0.5813720091
C   C5        1.0  0.00510  0.10432  0.47058  1.0000 0.5813720091
C   C6        1.0  0.47058  0.00510  0.10432  1.0000 0.5813720091
C   C7        1.0  0.47058  0.10432  0.00510  1.0000 0.5813720091
C   C8        1.0  0.10432  0.00510  0.47058  1.0000 0.5813720091
C   C9        1.0  0.00510  0.47058  0.10432  1.0000 0.5813720091
C   C10       1.0  0.89568  0.52942  0.99490  1.0000 0.5813720091
C   C11       1.0  0.99490  0.89568  0.52942  1.0000 0.5813720091
C   C12       1.0  0.52942  0.99490  0.89568  1.0000 0.5813720091
C   C13       1.0  0.54414  0.83119  0.98977  1.0000 -0.029800694
C   C14       1.0  0.83119  0.98977  0.54414  1.0000 -0.029800694
C   C15       1.0  0.98977  0.54414  0.83119  1.0000 -0.029800694
C   C16       1.0  0.16881  0.45586  0.01023  1.0000 -0.029800694
C   C17       1.0  0.01023  0.16881  0.45586  1.0000 -0.029800694
C   C18       1.0  0.45586  0.01023  0.16881  1.0000 -0.029800694
C   C19       1.0  0.45586  0.16881  0.01023  1.0000 -0.029800694
C   C20       1.0  0.16881  0.01023  0.45586  1.0000 -0.029800694
C   C21       1.0  0.01023  0.45586  0.16881  1.0000 -0.029800694
C   C22       1.0  0.83119  0.54414  0.98977  1.0000 -0.029800694
C   C23       1.0  0.98977  0.83119  0.54414  1.0000 -0.029800694
C   C24       1.0  0.54414  0.98977  0.83119  1.0000 -0.029800694
C   C25       1.0  0.62597  0.85947  0.04946  1.0000 -0.0867149059
C   C26       1.0  0.85947  0.04946  0.62597  1.0000 -0.0867149059
C   C27       1.0  0.04946  0.62597  0.85947  1.0000 -0.0867149059
C   C28       1.0  0.14053  0.37403  0.95054  1.0000 -0.0867149059
C   C29       1.0  0.95054  0.14053  0.37403  1.0000 -0.0867149059
C   C30       1.0  0.37403  0.95054  0.14053  1.0000 -0.0867149059
C   C31       1.0  0.37403  0.14053  0.95054  1.0000 -0.0867149059
C   C32       1.0  0.14053  0.95054  0.37403  1.0000 -0.0867149059
C   C33       1.0  0.95054  0.37403  0.14053  1.0000 -0.0867149059
C   C34       1.0  0.85947  0.62597  0.04946  1.0000 -0.0867149059
C   C35       1.0  0.04946  0.85947  0.62597  1.0000 -0.0867149059
C   C36       1.0  0.62597  0.04946  0.85947  1.0000 -0.0867149059
C   C37       1.0  0.63831  0.79946  0.04703  1.0000 -0.1485791268
C   C38       1.0  0.79946  0.04703  0.63831  1.0000 -0.1485791268
C   C39       1.0  0.04703  0.63831  0.79946  1.0000 -0.1485791268
C   C40       1.0  0.20054  0.36169  0.95297  1.0000 -0.1485791268
C   C41       1.0  0.95297  0.20054  0.36169  1.0000 -0.1485791268
C   C42       1.0  0.36169  0.95297  0.20054  1.0000 -0.1485791268
C   C43       1.0  0.36169  0.20054  0.95297  1.0000 -0.1485791268
C   C44       1.0  0.20054  0.95297  0.36169  1.0000 -0.1485791268
C   C45       1.0  0.95297  0.36169  0.20054  1.0000 -0.1485791268
C   C46       1.0  0.79946  0.63831  0.04703  1.0000 -0.1485791268
C   C47       1.0  0.04703  0.79946  0.63831  1.0000 -0.1485791268
C   C48       1.0  0.63831  0.04703  0.79946  1.0000 -0.1485791268
C   C49       1.0  0.57015  0.71263  0.98752  1.0000 0.0869573294
C   C50       1.0  0.71263  0.98752  0.57015  1.0000 0.0869573294
C   C51       1.0  0.98752  0.57015  0.71263  1.0000 0.0869573294
C   C52       1.0  0.28737  0.42985  0.01248  1.0000 0.0869573294
C   C53       1.0  0.01248  0.28737  0.42985  1.0000 0.0869573294
C   C54       1.0  0.42985  0.01248  0.28737  1.0000 0.0869573294
C   C55       1.0  0.42985  0.28737  0.01248  1.0000 0.0869573294
C   C56       1.0  0.28737  0.01248  0.42985  1.0000 0.0869573294
C   C57       1.0  0.01248  0.42985  0.28737  1.0000 0.0869573294
C   C58       1.0  0.71263  0.57015  0.98752  1.0000 0.0869573294
C   C59       1.0  0.98752  0.71263  0.57015  1.0000 0.0869573294
C   C60       1.0  0.57015  0.98752  0.71263  1.0000 0.0869573294
C   C61       1.0  0.48911  0.68457  0.92832  1.0000 -0.1575193839
C   C62       1.0  0.68457  0.92832  0.48911  1.0000 -0.1575193839
C   C63       1.0  0.92832  0.48911  0.68457  1.0000 -0.1575193839
C   C64       1.0  0.31543  0.51089  0.07168  1.0000 -0.1575193839
C   C65       1.0  0.07168  0.31543  0.51089  1.0000 -0.1575193839
C   C66       1.0  0.51089  0.07168  0.31543  1.0000 -0.1575193839
C   C67       1.0  0.51089  0.31543  0.07168  1.0000 -0.1575193839
C   C68       1.0  0.31543  0.07168  0.51089  1.0000 -0.1575193839
C   C69       1.0  0.07168  0.51089  0.31543  1.0000 -0.1575193839
C   C70       1.0  0.68457  0.48911  0.92832  1.0000 -0.1575193839
C   C71       1.0  0.92832  0.68457  0.48911  1.0000 -0.1575193839
C   C72       1.0  0.48911  0.92832  0.68457  1.0000 -0.1575193839
C   C73       1.0  0.47729  0.74477  0.93034  1.0000 -0.0867149059
C   C74       1.0  0.74477  0.93034  0.47729  1.0000 -0.0867149059
C   C75       1.0  0.93034  0.47729  0.74477  1.0000 -0.0867149059
C   C76       1.0  0.25523  0.52271  0.06966  1.0000 -0.0867149059
C   C77       1.0  0.06966  0.25523  0.52271  1.0000 -0.0867149059
C   C78       1.0  0.52271  0.06966  0.25523  1.0000 -0.0867149059
C   C79       1.0  0.52271  0.25523  0.06966  1.0000 -0.0867149059
C   C80       1.0  0.25523  0.06966  0.52271  1.0000 -0.0867149059
C   C81       1.0  0.06966  0.52271  0.25523  1.0000 -0.0867149059
C   C82       1.0  0.74477  0.47729  0.93034  1.0000 -0.0867149059
C   C83       1.0  0.93034  0.74477  0.47729  1.0000 -0.0867149059
C   C84       1.0  0.47729  0.93034  0.74477  1.0000 -0.0867149059
C   C85       1.0  0.57980  0.64765  0.98975  1.0000 -0.029800694
C   C86       1.0  0.64765  0.98975  0.57980  1.0000 -0.029800694
C   C87       1.0  0.98975  0.57980  0.64765  1.0000 -0.0241818154
C   C88       1.0  0.35235  0.42020  0.01025  1.0000 -0.0241818154
C   C89       1.0  0.01025  0.35235  0.42020  1.0000 -0.029800694
C   C90       1.0  0.42020  0.01025  0.35235  1.0000 -0.0241818154
C   C91       1.0  0.42020  0.35235  0.01025  1.0000 -0.0241818154
C   C92       1.0  0.35235  0.01025  0.42020  1.0000 -0.029800694
C   C93       1.0  0.01025  0.42020  0.35235  1.0000 -0.029800694
C   C94       1.0  0.64765  0.57980  0.98975  1.0000 -0.029800694
C   C95       1.0  0.98975  0.64765  0.57980  1.0000 -0.029800694
C   C96       1.0  0.57980  0.98975  0.64765  1.0000 -0.029800694
C   C97       1.0  0.52488  0.59156  0.99366  1.0000 -0.1913565645
C   C98       1.0  0.59156  0.99366  0.52488  1.0000 -0.1913565645
C   C99       1.0  0.99366  0.52488  0.59156  1.0000 -0.1913565645
C   C100      1.0  0.40844  0.47512  0.00634  1.0000 -0.1913565645
C   C101      1.0  0.00634  0.40844  0.47512  1.0000 -0.1913565645
C   C102      1.0  0.47512  0.00634  0.40844  1.0000 -0.1913565645
C   C103      1.0  0.47512  0.40844  0.00634  1.0000 -0.1913565645
C   C104      1.0  0.40844  0.00634  0.47512  1.0000 -0.1913565645
C   C105      1.0  0.00634  0.47512  0.40844  1.0000 -0.1913565645
C   C106      1.0  0.59156  0.52488  0.99366  1.0000 -0.1913565645
C   C107      1.0  0.99366  0.59156  0.52488  1.0000 -0.1913565645
C   C108      1.0  0.52488  0.99366  0.59156  1.0000 -0.1913565645
C   C109      1.0  0.52855  0.52855  0.99599  1.0000 0.0655285208
C   C110      1.0  0.52855  0.99599  0.52855  1.0000 0.0655285208
C   C111      1.0  0.99599  0.52855  0.52855  1.0000 0.0637521534
C   C112      1.0  0.47145  0.47144  0.00401  1.0000 0.0655285208
C   C113      1.0  0.00401  0.47144  0.47144  1.0000 0.0655285208
C   C114      1.0  0.47144  0.00401  0.47144  1.0000 0.0655285208
C   C115      1.0  0.64268  0.64268  0.98854  1.0000 0.1644640727
C   C116      1.0  0.64268  0.98854  0.64268  1.0000 0.1644640727
C   C117      1.0  0.98854  0.64268  0.64268  1.0000 0.1644640727
C   C118      1.0  0.35732  0.35732  0.01146  1.0000 0.1644640727
C   C119      1.0  0.01146  0.35732  0.35732  1.0000 0.1644640727
C   C120      1.0  0.35732  0.01146  0.35732  1.0000 0.1644640727
C   C121      1.0  0.66955  0.66955  0.89880  1.0000 0.0203022002
C   C122      1.0  0.66955  0.89880  0.66955  1.0000 0.0203022002
C   C123      1.0  0.89880  0.66955  0.66955  1.0000 0.0203022002
C   C124      1.0  0.33045  0.33045  0.10120  1.0000 0.0203022002
C   C125      1.0  0.10120  0.33045  0.33045  1.0000 0.0203022002
C   C126      1.0  0.33045  0.10120  0.33045  1.0000 0.0203022002
C   C127      1.0  0.69765  0.69765  0.85130  1.0000 -0.37273308
C   C128      1.0  0.69765  0.85130  0.69765  1.0000 -0.37273308
C   C129      1.0  0.85130  0.69765  0.69765  1.0000 -0.37273308
C   C130      1.0  0.30235  0.30235  0.14870  1.0000 -0.37273308
C   C131      1.0  0.14870  0.30235  0.30235  1.0000 -0.37273308
C   C132      1.0  0.30235  0.14870  0.30235  1.0000 -0.37273308
O   O1        1.0  0.45152  0.86369  0.94060  1.0000 -0.523886421
O   O2        1.0  0.86369  0.94060  0.45152  1.0000 -0.523886421
O   O3        1.0  0.94060  0.45152  0.86369  1.0000 -0.523886421
O   O4        1.0  0.13631  0.54848  0.05940  1.0000 -0.523886421
O   O5        1.0  0.05940  0.13631  0.54848  1.0000 -0.523886421
O   O6        1.0  0.54848  0.05940  0.13631  1.0000 -0.523886421
O   O7        1.0  0.54848  0.13631  0.05940  1.0000 -0.523886421
O   O8        1.0  0.13631  0.05940  0.54848  1.0000 -0.523886421
O   O9        1.0  0.05940  0.54848  0.13631  1.0000 -0.523886421
O   O10       1.0  0.86369  0.45152  0.94060  1.0000 -0.523886421
O   O11       1.0  0.94060  0.86369  0.45152  1.0000 -0.523886421
O   O12       1.0  0.45152  0.94060  0.86369  1.0000 -0.523886421
O   O13       1.0  0.59423  0.97487  0.05220  1.0000 -0.5116912759
O   O14       1.0  0.97487  0.05220  0.59423  1.0000 -0.5116912759
O   O15       1.0  0.05220  0.59423  0.97487  1.0000 -0.5116912759
O   O16       1.0  0.02513  0.40577  0.94780  1.0000 -0.5116912759
O   O17       1.0  0.94780  0.02513  0.40577  1.0000 -0.5116912759
O   O18       1.0  0.40577  0.94780  0.02513  1.0000 -0.5116912759
O   O19       1.0  0.40577  0.02513  0.94780  1.0000 -0.5116912759
O   O20       1.0  0.02513  0.94780  0.40577  1.0000 -0.5116912759
O   O21       1.0  0.94780  0.40577  0.02513  1.0000 -0.5116912759
O   O22       1.0  0.97487  0.59423  0.05220  1.0000 -0.5116912759
O   O23       1.0  0.05220  0.97487  0.59423  1.0000 -0.5116912759
O   O24       1.0  0.59423  0.05220  0.97487  1.0000 -0.5116912759
O   O25       1.0  0.69863  0.69863  0.98525  1.0000 -0.2095093416
O   O26       1.0  0.69863  0.98525  0.69863  1.0000 -0.2095093416
O   O27       1.0  0.98525  0.69863  0.69863  1.0000 -0.2095093416
O   O28       1.0  0.30138  0.30138  0.01475  1.0000 -0.2095093416
O   O29       1.0  0.01475  0.30138  0.30138  1.0000 -0.2095093416
O   O30       1.0  0.30138  0.01475  0.30138  1.0000 -0.2095093416
