# DDEC6 charges by PACMAN v1.1 (https://github.com/mtap-research/PACMAN-charge/)
data_2016[Cu][scu]3[ASR]1
_chemical_formula_sum              "Cu6 P8 H28 C28 O24"
_cell_length_a       16.134
_cell_length_b       16.134
_cell_length_c       4.5489
_cell_angle_alpha    90
_cell_angle_beta     90
_cell_angle_gamma    90

_symmetry_space_group_name_H-M    "P 1"
_symmetry_Int_Tables_number       1

loop_
  _symmetry_equiv_pos_as_xyz
  'x, y, z'

loop_
  _atom_site_type_symbol
  _atom_site_label
  _atom_site_symmetry_multiplicity
  _atom_site_fract_x
  _atom_site_fract_y
  _atom_site_fract_z
  _atom_site_occupancy
  _atom_site_charge
Cu  Cu1       1.0  0.18051  0.54291  0.47679  1.0000 1.0271017125
Cu  Cu2       1.0  0.81949  0.45709  0.47679  1.0000 1.0271017125
Cu  Cu3       1.0  0.54291  0.81949  0.52321  1.0000 1.0271017125
Cu  Cu4       1.0  0.45709  0.18051  0.52321  1.0000 1.0271017125
Cu  Cu5       1.0  0.50000  0.00000  0.48591  1.0000 1.0271017125
Cu  Cu6       1.0  0.00000  0.50000  0.51409  1.0000 1.0271017125
P   P1        1.0  0.16369  0.66711  0.00745  1.0000 1.2949999939
P   P2        1.0  0.83631  0.33289  0.00745  1.0000 1.2949999939
P   P3        1.0  0.66711  0.83631  0.99255  1.0000 1.2949999939
P   P4        1.0  0.33289  0.16369  0.99255  1.0000 1.2949999939
P   P5        1.0  0.42269  0.88477  0.95871  1.0000 1.3169494044
P   P6        1.0  0.57731  0.11523  0.95871  1.0000 1.3169494044
P   P7        1.0  0.88477  0.57731  0.04129  1.0000 1.3169494044
P   P8        1.0  0.11523  0.42269  0.04129  1.0000 1.3169494044
H   H1        1.0  0.03925  0.64962  0.17957  1.0000 0.3879928063
H   H2        1.0  0.96075  0.35038  0.17957  1.0000 0.3879928063
H   H3        1.0  0.64962  0.96075  0.82043  1.0000 0.3879928063
H   H4        1.0  0.35038  0.03925  0.82043  1.0000 0.3879928063
H   H5        1.0  0.31513  0.74637  0.17886  1.0000 0.1207651678
H   H6        1.0  0.68487  0.25363  0.17886  1.0000 0.1207651678
H   H7        1.0  0.74637  0.68487  0.82114  1.0000 0.1207651678
H   H8        1.0  0.25363  0.31513  0.82114  1.0000 0.1207651678
H   H9        1.0  0.30484  0.96124  0.61005  1.0000 0.1285412084
H   H10       1.0  0.69516  0.03876  0.61005  1.0000 0.1285412084
H   H11       1.0  0.96124  0.69516  0.38995  1.0000 0.1285412084
H   H12       1.0  0.03876  0.30484  0.38995  1.0000 0.1285412084
H   H13       1.0  0.10693  0.78718  0.59399  1.0000 0.1081425544
H   H14       1.0  0.89307  0.21282  0.59399  1.0000 0.1081425544
H   H15       1.0  0.78718  0.89307  0.40601  1.0000 0.1081425544
H   H16       1.0  0.21282  0.10693  0.40601  1.0000 0.1081425544
H   H17       1.0  0.09389  0.90957  0.32144  1.0000 0.1207651678
H   H18       1.0  0.90611  0.09043  0.32144  1.0000 0.1207651678
H   H19       1.0  0.90957  0.90611  0.67856  1.0000 0.1207651678
H   H20       1.0  0.09043  0.09389  0.67856  1.0000 0.1207651678
H   H21       1.0  0.19009  0.94666  0.16938  1.0000 0.1285412084
H   H22       1.0  0.80991  0.05334  0.16938  1.0000 0.1285412084
H   H23       1.0  0.94666  0.80991  0.83062  1.0000 0.1285412084
H   H24       1.0  0.05334  0.19009  0.83062  1.0000 0.1285412084
H   H25       1.0  0.14286  0.99798  0.47806  1.0000 0.1207651678
H   H26       1.0  0.85714  0.00202  0.47806  1.0000 0.1207651678
H   H27       1.0  0.99798  0.85714  0.52194  1.0000 0.1207651678
H   H28       1.0  0.00202  0.14286  0.52194  1.0000 0.1207651678
C   C1        1.0  0.20771  0.76148  0.89730  1.0000 -0.1982116182
C   C2        1.0  0.79229  0.23852  0.89730  1.0000 -0.1982116182
C   C3        1.0  0.76148  0.79229  0.10270  1.0000 -0.1982116182
C   C4        1.0  0.23852  0.20771  0.10270  1.0000 -0.1982116182
C   C5        1.0  0.28151  0.78782  0.02561  1.0000 -0.0255992715
C   C6        1.0  0.71849  0.21218  0.02561  1.0000 -0.0255992715
C   C7        1.0  0.78782  0.71849  0.97439  1.0000 -0.0255992715
C   C8        1.0  0.21218  0.28151  0.97439  1.0000 -0.0255992715
C   C9        1.0  0.31595  0.86123  0.92064  1.0000 -0.2091650445
C   C10       1.0  0.68405  0.13877  0.92064  1.0000 -0.2091650445
C   C11       1.0  0.86123  0.68405  0.07936  1.0000 -0.2091650445
C   C12       1.0  0.13877  0.31595  0.07936  1.0000 -0.2091650445
C   C13       1.0  0.27531  0.90746  0.70730  1.0000 -0.108852032
C   C14       1.0  0.72469  0.09254  0.70730  1.0000 -0.108852032
C   C15       1.0  0.90746  0.72469  0.29270  1.0000 -0.108852032
C   C16       1.0  0.09254  0.27531  0.29270  1.0000 -0.108852032
C   C17       1.0  0.19956  0.88242  0.58688  1.0000 0.1690431904
C   C18       1.0  0.80044  0.11758  0.58688  1.0000 0.1690431904
C   C19       1.0  0.88242  0.80044  0.41312  1.0000 0.1690431904
C   C20       1.0  0.11758  0.19956  0.41312  1.0000 0.1690431904
C   C21       1.0  0.16580  0.80782  0.68747  1.0000 -0.108852032
C   C22       1.0  0.83420  0.19218  0.68747  1.0000 -0.108852032
C   C23       1.0  0.80782  0.83420  0.31253  1.0000 -0.108852032
C   C24       1.0  0.19218  0.16580  0.31253  1.0000 -0.108852032
C   C25       1.0  0.15458  0.93686  0.37562  1.0000 -0.4033522833
C   C26       1.0  0.84542  0.06314  0.37562  1.0000 -0.4033522833
C   C27       1.0  0.93686  0.84542  0.62438  1.0000 -0.4033522833
C   C28       1.0  0.06314  0.15458  0.62438  1.0000 -0.4033522833
O   O1        1.0  0.08205  0.69477  0.17078  1.0000 -0.6503772963
O   O2        1.0  0.91795  0.30523  0.17078  1.0000 -0.6503772963
O   O3        1.0  0.69477  0.91795  0.82922  1.0000 -0.6503772963
O   O4        1.0  0.30523  0.08205  0.82922  1.0000 -0.6503772963
O   O5        1.0  0.13323  0.61847  0.74105  1.0000 -0.7525634248
O   O6        1.0  0.86677  0.38153  0.74105  1.0000 -0.7525634248
O   O7        1.0  0.61847  0.86677  0.25895  1.0000 -0.7525634248
O   O8        1.0  0.38153  0.13323  0.25895  1.0000 -0.7525634248
O   O9        1.0  0.22628  0.62562  0.21354  1.0000 -0.7284312178
O   O10       1.0  0.77372  0.37438  0.21354  1.0000 -0.7284312178
O   O11       1.0  0.62562  0.77372  0.78646  1.0000 -0.7284312178
O   O12       1.0  0.37438  0.22628  0.78646  1.0000 -0.7284312178
O   O13       1.0  0.42553  0.97094  0.80098  1.0000 -0.7591350306
O   O14       1.0  0.57447  0.02906  0.80098  1.0000 -0.7591350306
O   O15       1.0  0.97094  0.57447  0.19902  1.0000 -0.7591350306
O   O16       1.0  0.02906  0.42553  0.19902  1.0000 -0.7591350306
O   O17       1.0  0.46097  0.89586  0.26649  1.0000 -0.7686763484
O   O18       1.0  0.53903  0.10414  0.26649  1.0000 -0.7686763484
O   O19       1.0  0.89586  0.53903  0.73351  1.0000 -0.7686763484
O   O20       1.0  0.10414  0.46097  0.73351  1.0000 -0.7686763484
O   O21       1.0  0.45986  0.80768  0.80455  1.0000 -0.723942839
O   O22       1.0  0.54014  0.19232  0.80455  1.0000 -0.723942839
O   O23       1.0  0.80768  0.54014  0.19545  1.0000 -0.723942839
O   O24       1.0  0.19232  0.45986  0.19545  1.0000 -0.723942839
