# DDEC6 charges by PACMAN v1.1 (https://github.com/mtap-research/PACMAN-charge/)
data_2016[Zn][nan]3[ASR]36
_chemical_formula_sum              "Zn12 H96 C120 O60"
_cell_length_a       17.0608
_cell_length_b       17.0608
_cell_length_c       17.0608
_cell_angle_alpha    108.41
_cell_angle_beta     108.41
_cell_angle_gamma    108.41

_symmetry_space_group_name_H-M    "P 1"
_symmetry_Int_Tables_number       1

loop_
  _symmetry_equiv_pos_as_xyz
  'x, y, z'

loop_
  _atom_site_type_symbol
  _atom_site_label
  _atom_site_symmetry_multiplicity
  _atom_site_fract_x
  _atom_site_fract_y
  _atom_site_fract_z
  _atom_site_occupancy
  _atom_site_charge
Zn  Zn1       1.0  0.38835  0.73210  0.07640  1.0000 0.9804669855
Zn  Zn2       1.0  0.73210  0.07640  0.38835  1.0000 0.9804669855
Zn  Zn3       1.0  0.07640  0.38835  0.73210  1.0000 0.9804669855
Zn  Zn4       1.0  0.61165  0.26790  0.92360  1.0000 0.9804669855
Zn  Zn5       1.0  0.26790  0.92360  0.61165  1.0000 0.9804669855
Zn  Zn6       1.0  0.92360  0.61165  0.26790  1.0000 0.9804669855
Zn  Zn7       1.0  0.16299  0.72720  0.36417  1.0000 0.9066528914
Zn  Zn8       1.0  0.72720  0.36417  0.16299  1.0000 0.9066528914
Zn  Zn9       1.0  0.36417  0.16299  0.72720  1.0000 0.9066528914
Zn  Zn10      1.0  0.83701  0.27280  0.63583  1.0000 0.9066528914
Zn  Zn11      1.0  0.27280  0.63583  0.83701  1.0000 0.9066528914
Zn  Zn12      1.0  0.63583  0.83701  0.27280  1.0000 0.9066528914
H   H1        1.0  0.44650  0.83750  0.39930  1.0000 0.1382597758
H   H2        1.0  0.83750  0.39930  0.44650  1.0000 0.1382597758
H   H3        1.0  0.39930  0.44650  0.83750  1.0000 0.1382597758
H   H4        1.0  0.55350  0.16250  0.60070  1.0000 0.1382597758
H   H5        1.0  0.16250  0.60070  0.55350  1.0000 0.1382597758
H   H6        1.0  0.60070  0.55350  0.16250  1.0000 0.1382597758
H   H7        1.0  0.70350  0.03160  0.61240  1.0000 0.1382597758
H   H8        1.0  0.03160  0.61240  0.70350  1.0000 0.1382597758
H   H9        1.0  0.61240  0.70350  0.03160  1.0000 0.1382597758
H   H10       1.0  0.29650  0.96840  0.38760  1.0000 0.1382597758
H   H11       1.0  0.96840  0.38760  0.29650  1.0000 0.1382597758
H   H12       1.0  0.38760  0.29650  0.96840  1.0000 0.1382597758
H   H13       1.0  0.48380  0.94520  0.66470  1.0000 0.1382597758
H   H14       1.0  0.94520  0.66470  0.48380  1.0000 0.1382597758
H   H15       1.0  0.66470  0.48380  0.94520  1.0000 0.1382597758
H   H16       1.0  0.51620  0.05480  0.33530  1.0000 0.1382597758
H   H17       1.0  0.05480  0.33530  0.51620  1.0000 0.1382597758
H   H18       1.0  0.33530  0.51620  0.05480  1.0000 0.1382597758
H   H19       1.0  0.78010  0.05580  0.75910  1.0000 0.0812378694
H   H20       1.0  0.05580  0.75910  0.78010  1.0000 0.0812378694
H   H21       1.0  0.75910  0.78010  0.05580  1.0000 0.0812378694
H   H22       1.0  0.21990  0.94420  0.24090  1.0000 0.0812378694
H   H23       1.0  0.94420  0.24090  0.21990  1.0000 0.0812378694
H   H24       1.0  0.24090  0.21990  0.94420  1.0000 0.0812378694
H   H25       1.0  0.77140  0.14980  0.77220  1.0000 0.0962993143
H   H26       1.0  0.14980  0.77220  0.77140  1.0000 0.0962993143
H   H27       1.0  0.77220  0.77140  0.14980  1.0000 0.0962993143
H   H28       1.0  0.22860  0.85020  0.22780  1.0000 0.0962993143
H   H29       1.0  0.85020  0.22780  0.22860  1.0000 0.0962993143
H   H30       1.0  0.22780  0.22860  0.85020  1.0000 0.0962993143
H   H31       1.0  0.78330  0.07750  0.90370  1.0000 0.1305763547
H   H32       1.0  0.07750  0.90370  0.78330  1.0000 0.1305763547
H   H33       1.0  0.90370  0.78330  0.07750  1.0000 0.1305763547
H   H34       1.0  0.21670  0.92250  0.09630  1.0000 0.1305763547
H   H35       1.0  0.92250  0.09630  0.21670  1.0000 0.1305763547
H   H36       1.0  0.09630  0.21670  0.92250  1.0000 0.1305763547
H   H37       1.0  0.86370  0.16970  0.91980  1.0000 0.1305763547
H   H38       1.0  0.16970  0.91980  0.86370  1.0000 0.1305763547
H   H39       1.0  0.91980  0.86370  0.16970  1.0000 0.1305763547
H   H40       1.0  0.13630  0.83030  0.08020  1.0000 0.1305763547
H   H41       1.0  0.83030  0.08020  0.13630  1.0000 0.1305763547
H   H42       1.0  0.08020  0.13630  0.83030  1.0000 0.1305763547
H   H43       1.0  0.76810  0.16770  0.91600  1.0000 0.1382597758
H   H44       1.0  0.16770  0.91600  0.76810  1.0000 0.1382597758
H   H45       1.0  0.91600  0.76810  0.16770  1.0000 0.1382597758
H   H46       1.0  0.23190  0.83230  0.08400  1.0000 0.1382597758
H   H47       1.0  0.83230  0.08400  0.23190  1.0000 0.1382597758
H   H48       1.0  0.08400  0.23190  0.83230  1.0000 0.1382597758
H   H49       1.0  0.16640  0.65310  0.10900  1.0000 0.1382597758
H   H50       1.0  0.65310  0.10900  0.16640  1.0000 0.1382597758
H   H51       1.0  0.10900  0.16640  0.65310  1.0000 0.1382597758
H   H52       1.0  0.83360  0.34690  0.89100  1.0000 0.1305763547
H   H53       1.0  0.34690  0.89100  0.83360  1.0000 0.1382597758
H   H54       1.0  0.89100  0.83360  0.34690  1.0000 0.1382597758
H   H55       1.0  0.01050  0.56490  0.83410  1.0000 0.1501163183
H   H56       1.0  0.56490  0.83410  0.01050  1.0000 0.1501163183
H   H57       1.0  0.83410  0.01050  0.56490  1.0000 0.1501163183
H   H58       1.0  0.98950  0.43510  0.16590  1.0000 0.1501163183
H   H59       1.0  0.43510  0.16590  0.98950  1.0000 0.1501163183
H   H60       1.0  0.16590  0.98950  0.43510  1.0000 0.1501163183
H   H61       1.0  0.89110  0.58340  0.00610  1.0000 0.1382597758
H   H62       1.0  0.58340  0.00610  0.89110  1.0000 0.1382597758
H   H63       1.0  0.00610  0.89110  0.58340  1.0000 0.1382597758
H   H64       1.0  0.10890  0.41660  0.99390  1.0000 0.1382597758
H   H65       1.0  0.41660  0.99390  0.10890  1.0000 0.1382597758
H   H66       1.0  0.99390  0.10890  0.41660  1.0000 0.1382597758
H   H67       1.0  0.77010  0.45980  0.86880  1.0000 0.0928626893
H   H68       1.0  0.45980  0.86880  0.77010  1.0000 0.0928626893
H   H69       1.0  0.86880  0.77010  0.45980  1.0000 0.0928626893
H   H70       1.0  0.22990  0.54020  0.13120  1.0000 0.0928626893
H   H71       1.0  0.54020  0.13120  0.22990  1.0000 0.0928626893
H   H72       1.0  0.13120  0.22990  0.54020  1.0000 0.0928626893
H   H73       1.0  0.76170  0.55130  0.86940  1.0000 0.0812378694
H   H74       1.0  0.55130  0.86940  0.76170  1.0000 0.0812378694
H   H75       1.0  0.86940  0.76170  0.55130  1.0000 0.0812378694
H   H76       1.0  0.23830  0.44870  0.13060  1.0000 0.0812378694
H   H77       1.0  0.44870  0.13060  0.23830  1.0000 0.0812378694
H   H78       1.0  0.13060  0.23830  0.44870  1.0000 0.0812378694
H   H79       1.0  0.70010  0.38720  0.70390  1.0000 0.1382597758
H   H80       1.0  0.38720  0.70390  0.70010  1.0000 0.1382597758
H   H81       1.0  0.70390  0.70010  0.38720  1.0000 0.1382597758
H   H82       1.0  0.29990  0.61280  0.29610  1.0000 0.1382597758
H   H83       1.0  0.61280  0.29610  0.29990  1.0000 0.1382597758
H   H84       1.0  0.29610  0.29990  0.61280  1.0000 0.1382597758
H   H85       1.0  0.63180  0.41620  0.73810  1.0000 0.1305763547
H   H86       1.0  0.41620  0.73810  0.63180  1.0000 0.1305763547
H   H87       1.0  0.73810  0.63180  0.41620  1.0000 0.1305763547
H   H88       1.0  0.36820  0.58380  0.26190  1.0000 0.1305763547
H   H89       1.0  0.58380  0.26190  0.36820  1.0000 0.1305763547
H   H90       1.0  0.26190  0.36820  0.58380  1.0000 0.1305763547
H   H91       1.0  0.69180  0.47820  0.70460  1.0000 0.1305763547
H   H92       1.0  0.47820  0.70460  0.69180  1.0000 0.1305763547
H   H93       1.0  0.70460  0.69180  0.47820  1.0000 0.1305763547
H   H94       1.0  0.30820  0.52180  0.29540  1.0000 0.1305763547
H   H95       1.0  0.52180  0.29540  0.30820  1.0000 0.1305763547
H   H96       1.0  0.29540  0.30820  0.52180  1.0000 0.1305763547
C   C1        1.0  0.34723  0.83348  0.49236  1.0000 0.5846044211
C   C2        1.0  0.83348  0.49236  0.34723  1.0000 0.5846044211
C   C3        1.0  0.49236  0.34723  0.83348  1.0000 0.5846044211
C   C4        1.0  0.65277  0.16652  0.50764  1.0000 0.5846044211
C   C5        1.0  0.16652  0.50764  0.65277  1.0000 0.5846044211
C   C6        1.0  0.50764  0.65277  0.16652  1.0000 0.5846044211
C   C7        1.0  0.45006  0.88513  0.52703  1.0000 -0.0129082384
C   C8        1.0  0.88513  0.52703  0.45006  1.0000 -0.0129082384
C   C9        1.0  0.52703  0.45006  0.88513  1.0000 -0.0129082384
C   C10       1.0  0.54994  0.11487  0.47297  1.0000 -0.0129082384
C   C11       1.0  0.11487  0.47297  0.54994  1.0000 -0.0129082384
C   C12       1.0  0.47297  0.54994  0.11487  1.0000 -0.0129082384
C   C13       1.0  0.48590  0.87888  0.46372  1.0000 -0.1364215698
C   C14       1.0  0.87888  0.46372  0.48590  1.0000 -0.1364215698
C   C15       1.0  0.46372  0.48590  0.87888  1.0000 -0.1364215698
C   C16       1.0  0.51410  0.12112  0.53628  1.0000 -0.1364215698
C   C17       1.0  0.12112  0.53628  0.51410  1.0000 -0.1364215698
C   C18       1.0  0.53628  0.51410  0.12112  1.0000 -0.1364215698
C   C19       1.0  0.57981  0.93369  0.49578  1.0000 -0.0022386468
C   C20       1.0  0.93369  0.49578  0.57981  1.0000 -0.0022386468
C   C21       1.0  0.49578  0.57981  0.93369  1.0000 -0.0022386468
C   C22       1.0  0.42019  0.06631  0.50422  1.0000 -0.0022386468
C   C23       1.0  0.06631  0.50422  0.42019  1.0000 -0.0022386468
C   C24       1.0  0.50422  0.42019  0.06631  1.0000 -0.0022386468
C   C25       1.0  0.61839  0.93361  0.42827  1.0000 0.5846044211
C   C26       1.0  0.93361  0.42827  0.61839  1.0000 0.5846044211
C   C27       1.0  0.42827  0.61839  0.93361  1.0000 0.5846044211
C   C28       1.0  0.38161  0.06639  0.57173  1.0000 0.5846044211
C   C29       1.0  0.06639  0.57173  0.38161  1.0000 0.5846044211
C   C30       1.0  0.57173  0.38161  0.06639  1.0000 0.5846044211
C   C31       1.0  0.63962  0.99280  0.59103  1.0000 -0.2373980419
C   C32       1.0  0.99280  0.59103  0.63962  1.0000 -0.2373980419
C   C33       1.0  0.59103  0.63962  0.99280  1.0000 -0.2373980419
C   C34       1.0  0.36038  0.00720  0.40897  1.0000 -0.2373980419
C   C35       1.0  0.00720  0.40897  0.36038  1.0000 -0.2373980419
C   C36       1.0  0.40897  0.36038  0.00720  1.0000 -0.2373980419
C   C37       1.0  0.60353  0.99356  0.65354  1.0000 0.2513934859
C   C38       1.0  0.99356  0.65354  0.60353  1.0000 0.2513934859
C   C39       1.0  0.65354  0.60353  0.99356  1.0000 0.2513934859
C   C40       1.0  0.39647  0.00644  0.34646  1.0000 0.2513934859
C   C41       1.0  0.00644  0.34646  0.39647  1.0000 0.2513934859
C   C42       1.0  0.34646  0.39647  0.00644  1.0000 0.2513934859
C   C43       1.0  0.50857  0.94180  0.62173  1.0000 -0.2111344126
C   C44       1.0  0.94180  0.62173  0.50857  1.0000 -0.2111344126
C   C45       1.0  0.62173  0.50857  0.94180  1.0000 -0.2111344126
C   C46       1.0  0.49143  0.05820  0.37827  1.0000 -0.2111344126
C   C47       1.0  0.05820  0.37827  0.49143  1.0000 -0.2111344126
C   C48       1.0  0.37827  0.49143  0.05820  1.0000 -0.2111344126
C   C49       1.0  0.75541  0.09659  0.78638  1.0000 0.036493597
C   C50       1.0  0.09659  0.78638  0.75541  1.0000 0.036493597
C   C51       1.0  0.78638  0.75541  0.09659  1.0000 0.036493597
C   C52       1.0  0.24459  0.90341  0.21362  1.0000 0.036493597
C   C53       1.0  0.90341  0.21362  0.24459  1.0000 0.036493597
C   C54       1.0  0.21362  0.24459  0.90341  1.0000 0.036493597
C   C55       1.0  0.79620  0.13093  0.89068  1.0000 -0.4069875043
C   C56       1.0  0.13093  0.89068  0.79620  1.0000 -0.4069875043
C   C57       1.0  0.89068  0.79620  0.13093  1.0000 -0.4069875043
C   C58       1.0  0.20380  0.86907  0.10932  1.0000 -0.4069875043
C   C59       1.0  0.86907  0.10932  0.20380  1.0000 -0.4069875043
C   C60       1.0  0.10932  0.20380  0.86907  1.0000 -0.4069875043
C   C61       1.0  0.03712  0.64068  0.16559  1.0000 0.5899303792
C   C62       1.0  0.64068  0.16559  0.03712  1.0000 0.5899303792
C   C63       1.0  0.16559  0.03712  0.64068  1.0000 0.5899303792
C   C64       1.0  0.96288  0.35932  0.83441  1.0000 0.5899303792
C   C65       1.0  0.35932  0.83441  0.96288  1.0000 0.5899303792
C   C66       1.0  0.83441  0.96288  0.35932  1.0000 0.5899303792
C   C67       1.0  0.03014  0.62104  0.07086  1.0000 -0.0129082384
C   C68       1.0  0.62104  0.07086  0.03014  1.0000 -0.0129082384
C   C69       1.0  0.07086  0.03014  0.62104  1.0000 -0.0129082384
C   C70       1.0  0.96986  0.37896  0.92914  1.0000 -0.0129082384
C   C71       1.0  0.37896  0.92914  0.96986  1.0000 -0.0129082384
C   C72       1.0  0.92914  0.96986  0.37896  1.0000 -0.0129082384
C   C73       1.0  0.10815  0.63141  0.05787  1.0000 -0.1495729646
C   C74       1.0  0.63141  0.05787  0.10815  1.0000 -0.1495729646
C   C75       1.0  0.05787  0.10815  0.63141  1.0000 -0.1495729646
C   C76       1.0  0.89185  0.36859  0.94213  1.0000 -0.1495729646
C   C77       1.0  0.36859  0.94213  0.89185  1.0000 -0.1495729646
C   C78       1.0  0.94213  0.89185  0.36859  1.0000 -0.1495729646
C   C79       1.0  0.10021  0.60966  0.96897  1.0000 -0.0129082384
C   C80       1.0  0.60966  0.96897  0.10021  1.0000 -0.0129082384
C   C81       1.0  0.96897  0.10021  0.60966  1.0000 -0.0129082384
C   C82       1.0  0.89979  0.39034  0.03103  1.0000 -0.0129082384
C   C83       1.0  0.39034  0.03103  0.89979  1.0000 -0.0129082384
C   C84       1.0  0.03103  0.89979  0.39034  1.0000 -0.0129082384
C   C85       1.0  0.18320  0.61914  0.95264  1.0000 0.5959811448
C   C86       1.0  0.61914  0.95264  0.18320  1.0000 0.5959811448
C   C87       1.0  0.95264  0.18320  0.61914  1.0000 0.5959811448
C   C88       1.0  0.81680  0.38086  0.04736  1.0000 0.5959811448
C   C89       1.0  0.38086  0.04736  0.81680  1.0000 0.5959811448
C   C90       1.0  0.04736  0.81680  0.38086  1.0000 0.5959811448
C   C91       1.0  0.01516  0.57827  0.89425  1.0000 -0.2111344126
C   C92       1.0  0.57827  0.89425  0.01516  1.0000 -0.2111344126
C   C93       1.0  0.89425  0.01516  0.57827  1.0000 -0.2111344126
C   C94       1.0  0.98484  0.42173  0.10575  1.0000 -0.2111344126
C   C95       1.0  0.42173  0.10575  0.98484  1.0000 -0.2111344126
C   C96       1.0  0.10575  0.98484  0.42173  1.0000 -0.2111344126
C   C97       1.0  0.93662  0.56640  0.90789  1.0000 0.2513934859
C   C98       1.0  0.56640  0.90789  0.93662  1.0000 0.2513934859
C   C99       1.0  0.90789  0.93662  0.56640  1.0000 0.2513934859
C   C100      1.0  0.06338  0.43360  0.09211  1.0000 0.2513934859
C   C101      1.0  0.43360  0.09211  0.06338  1.0000 0.2513934859
C   C102      1.0  0.09211  0.06338  0.43360  1.0000 0.2513934859
C   C103      1.0  0.94403  0.58924  0.99629  1.0000 -0.2267690064
C   C104      1.0  0.58924  0.99629  0.94403  1.0000 -0.2267690064
C   C105      1.0  0.99629  0.94403  0.58924  1.0000 -0.2267690064
C   C106      1.0  0.05597  0.41076  0.00371  1.0000 -0.2267690064
C   C107      1.0  0.41076  0.00371  0.05597  1.0000 -0.2267690064
C   C108      1.0  0.00371  0.05597  0.41076  1.0000 -0.2267690064
C   C109      1.0  0.76962  0.49779  0.83534  1.0000 0.032664237
C   C110      1.0  0.49779  0.83534  0.76962  1.0000 0.032664237
C   C111      1.0  0.83534  0.76962  0.49779  1.0000 0.032664237
C   C112      1.0  0.23038  0.50221  0.16466  1.0000 0.032664237
C   C113      1.0  0.50221  0.16466  0.23038  1.0000 0.032664237
C   C114      1.0  0.16466  0.23038  0.50221  1.0000 0.032664237
C   C115      1.0  0.69143  0.43975  0.73685  1.0000 -0.3944443823
C   C116      1.0  0.43975  0.73685  0.69143  1.0000 -0.3951933743
C   C117      1.0  0.73685  0.69143  0.43975  1.0000 -0.3951933743
C   C118      1.0  0.30857  0.56025  0.26315  1.0000 -0.3951933743
C   C119      1.0  0.56025  0.26315  0.30857  1.0000 -0.3951933743
C   C120      1.0  0.26315  0.30857  0.56025  1.0000 -0.3951933743
O   O1        1.0  0.29687  0.78540  0.40534  1.0000 -0.5199309947
O   O2        1.0  0.78540  0.40534  0.29687  1.0000 -0.5199309947
O   O3        1.0  0.40534  0.29687  0.78540  1.0000 -0.5199309947
O   O4        1.0  0.70313  0.21460  0.59466  1.0000 -0.5199309947
O   O5        1.0  0.21460  0.59466  0.70313  1.0000 -0.5199309947
O   O6        1.0  0.59466  0.70313  0.21460  1.0000 -0.5199309947
O   O7        1.0  0.31603  0.84017  0.55065  1.0000 -0.5594026905
O   O8        1.0  0.84017  0.55065  0.31603  1.0000 -0.5594026905
O   O9        1.0  0.55065  0.31603  0.84017  1.0000 -0.5594026905
O   O10       1.0  0.68397  0.15983  0.44935  1.0000 -0.5594026905
O   O11       1.0  0.15983  0.44935  0.68397  1.0000 -0.5594026905
O   O12       1.0  0.44935  0.68397  0.15983  1.0000 -0.5594026905
O   O13       1.0  0.57174  0.86356  0.34736  1.0000 -0.5413930776
O   O14       1.0  0.86356  0.34736  0.57174  1.0000 -0.5413930776
O   O15       1.0  0.34736  0.57174  0.86356  1.0000 -0.5413930776
O   O16       1.0  0.42826  0.13644  0.65264  1.0000 -0.5413930776
O   O17       1.0  0.13644  0.65264  0.42826  1.0000 -0.5413930776
O   O18       1.0  0.65264  0.42826  0.13644  1.0000 -0.5413930776
O   O19       1.0  0.69368  0.00135  0.45408  1.0000 -0.5594026905
O   O20       1.0  0.00135  0.45408  0.69368  1.0000 -0.5594026905
O   O21       1.0  0.45408  0.69368  0.00135  1.0000 -0.5594026905
O   O22       1.0  0.30632  0.99865  0.54592  1.0000 -0.5594026905
O   O23       1.0  0.99865  0.54592  0.30632  1.0000 -0.5594026905
O   O24       1.0  0.54592  0.30632  0.99865  1.0000 -0.5594026905
O   O25       1.0  0.65573  0.04519  0.74882  1.0000 -0.1967802407
O   O26       1.0  0.04519  0.74882  0.65573  1.0000 -0.1967802407
O   O27       1.0  0.74882  0.65573  0.04519  1.0000 -0.1967802407
O   O28       1.0  0.34427  0.95481  0.25118  1.0000 -0.1967802407
O   O29       1.0  0.95481  0.25118  0.34427  1.0000 -0.1967802407
O   O30       1.0  0.25118  0.34427  0.95481  1.0000 -0.1967802407
O   O31       1.0  0.11643  0.66933  0.23031  1.0000 -0.5413930776
O   O32       1.0  0.66933  0.23031  0.11643  1.0000 -0.5413930776
O   O33       1.0  0.23031  0.11643  0.66933  1.0000 -0.5413930776
O   O34       1.0  0.88357  0.33067  0.76969  1.0000 -0.5413930776
O   O35       1.0  0.33067  0.76969  0.88357  1.0000 -0.5413930776
O   O36       1.0  0.76969  0.88357  0.33067  1.0000 -0.5413930776
O   O37       1.0  0.96341  0.62729  0.17334  1.0000 -0.5594026905
O   O38       1.0  0.62729  0.17334  0.96341  1.0000 -0.5594026905
O   O39       1.0  0.17334  0.96341  0.62729  1.0000 -0.5594026905
O   O40       1.0  0.03659  0.37271  0.82666  1.0000 -0.5594026905
O   O41       1.0  0.37271  0.82666  0.03659  1.0000 -0.5594026905
O   O42       1.0  0.82666  0.03659  0.37271  1.0000 -0.5594026905
O   O43       1.0  0.25698  0.63734  0.01951  1.0000 -0.5708413483
O   O44       1.0  0.63734  0.01951  0.25698  1.0000 -0.5708413483
O   O45       1.0  0.01951  0.25698  0.63734  1.0000 -0.5708413483
O   O46       1.0  0.74302  0.36266  0.98049  1.0000 -0.5708413483
O   O47       1.0  0.36266  0.98049  0.74302  1.0000 -0.5708413483
O   O48       1.0  0.98049  0.74302  0.36266  1.0000 -0.5708413483
O   O49       1.0  0.17379  0.60730  0.87291  1.0000 -0.5594026905
O   O50       1.0  0.60730  0.87291  0.17379  1.0000 -0.5594026905
O   O51       1.0  0.87291  0.17379  0.60730  1.0000 -0.5594026905
O   O52       1.0  0.82621  0.39270  0.12709  1.0000 -0.5594026905
O   O53       1.0  0.39270  0.12709  0.82621  1.0000 -0.5594026905
O   O54       1.0  0.12709  0.82621  0.39270  1.0000 -0.5594026905
O   O55       1.0  0.85514  0.53009  0.82891  1.0000 -0.181383072
O   O56       1.0  0.53009  0.82891  0.85514  1.0000 -0.181383072
O   O57       1.0  0.82891  0.85514  0.53009  1.0000 -0.181383072
O   O58       1.0  0.14486  0.46991  0.17109  1.0000 -0.181383072
O   O59       1.0  0.46991  0.17109  0.14486  1.0000 -0.181383072
O   O60       1.0  0.17109  0.14486  0.46991  1.0000 -0.181383072
