# DDEC6 charges by PACMAN v1.1 (https://github.com/mtap-research/PACMAN-charge/)
data_2016[Cu][nbo]3[ASR]54
_chemical_formula_sum              "Cu6 H90 C132 O30"
_cell_length_a       21.5047
_cell_length_b       21.5047
_cell_length_c       21.5047
_cell_angle_alpha    110.178
_cell_angle_beta     110.178
_cell_angle_gamma    110.178

_symmetry_space_group_name_H-M    "P 1"
_symmetry_Int_Tables_number       1

loop_
  _symmetry_equiv_pos_as_xyz
  'x, y, z'

loop_
  _atom_site_type_symbol
  _atom_site_label
  _atom_site_symmetry_multiplicity
  _atom_site_fract_x
  _atom_site_fract_y
  _atom_site_fract_z
  _atom_site_occupancy
  _atom_site_charge
Cu  Cu1       1.0  0.44817  0.44817  0.92513  1.0000 0.8622567287
Cu  Cu2       1.0  0.44817  0.92513  0.44817  1.0000 0.8622567287
Cu  Cu3       1.0  0.92513  0.44817  0.44817  1.0000 0.8622567287
Cu  Cu4       1.0  0.55183  0.55183  0.07487  1.0000 0.8622567287
Cu  Cu5       1.0  0.07487  0.55183  0.55183  1.0000 0.8622567287
Cu  Cu6       1.0  0.55183  0.07487  0.55183  1.0000 0.8622567287
H   H1        1.0  0.39650  0.56810  0.15360  1.0000 0.1276408614
H   H2        1.0  0.56810  0.15360  0.39650  1.0000 0.1276408614
H   H3        1.0  0.15360  0.39650  0.56810  1.0000 0.1276408614
H   H4        1.0  0.43190  0.60350  0.84640  1.0000 0.1276408614
H   H5        1.0  0.84640  0.43190  0.60350  1.0000 0.1276408614
H   H6        1.0  0.60350  0.84640  0.43190  1.0000 0.1276408614
H   H7        1.0  0.60350  0.43190  0.84640  1.0000 0.1276408614
H   H8        1.0  0.43190  0.84640  0.60350  1.0000 0.1276408614
H   H9        1.0  0.84640  0.60350  0.43190  1.0000 0.1276408614
H   H10       1.0  0.56810  0.39650  0.15360  1.0000 0.1276408614
H   H11       1.0  0.15360  0.56810  0.39650  1.0000 0.1276408614
H   H12       1.0  0.39650  0.15360  0.56810  1.0000 0.1276408614
H   H13       1.0  0.29620  0.56620  0.17510  1.0000 0.1205440478
H   H14       1.0  0.56620  0.17510  0.29620  1.0000 0.1205440478
H   H15       1.0  0.17510  0.29620  0.56620  1.0000 0.1205440478
H   H16       1.0  0.43380  0.70380  0.82490  1.0000 0.1205440478
H   H17       1.0  0.82490  0.43380  0.70380  1.0000 0.1205440478
H   H18       1.0  0.70380  0.82490  0.43380  1.0000 0.1205440478
H   H19       1.0  0.70380  0.43380  0.82490  1.0000 0.1205440478
H   H20       1.0  0.43380  0.82490  0.70380  1.0000 0.1205440478
H   H21       1.0  0.82490  0.70380  0.43380  1.0000 0.1205440478
H   H22       1.0  0.56620  0.29620  0.17510  1.0000 0.1205440478
H   H23       1.0  0.17510  0.56620  0.29620  1.0000 0.1205440478
H   H24       1.0  0.29620  0.17510  0.56620  1.0000 0.1205440478
H   H25       1.0  0.13700  0.39820  0.94760  1.0000 0.1205440478
H   H26       1.0  0.39820  0.94760  0.13700  1.0000 0.1205440478
H   H27       1.0  0.94760  0.13700  0.39820  1.0000 0.1205440478
H   H28       1.0  0.60180  0.86300  0.05240  1.0000 0.1205440478
H   H29       1.0  0.05240  0.60180  0.86300  1.0000 0.1205440478
H   H30       1.0  0.86300  0.05240  0.60180  1.0000 0.1205440478
H   H31       1.0  0.86300  0.60180  0.05240  1.0000 0.1205440478
H   H32       1.0  0.60180  0.05240  0.86300  1.0000 0.1205440478
H   H33       1.0  0.05240  0.86300  0.60180  1.0000 0.1205440478
H   H34       1.0  0.39820  0.13700  0.94760  1.0000 0.1205440478
H   H35       1.0  0.94760  0.39820  0.13700  1.0000 0.1205440478
H   H36       1.0  0.13700  0.94760  0.39820  1.0000 0.1205440478
H   H37       1.0  0.23750  0.40500  0.92550  1.0000 0.1276408614
H   H38       1.0  0.40500  0.92550  0.23750  1.0000 0.1276408614
H   H39       1.0  0.92550  0.23750  0.40500  1.0000 0.1276408614
H   H40       1.0  0.59500  0.76250  0.07450  1.0000 0.1276408614
H   H41       1.0  0.07450  0.59500  0.76250  1.0000 0.1276408614
H   H42       1.0  0.76250  0.07450  0.59500  1.0000 0.1276408614
H   H43       1.0  0.76250  0.59500  0.07450  1.0000 0.1276408614
H   H44       1.0  0.59500  0.07450  0.76250  1.0000 0.1276408614
H   H45       1.0  0.07450  0.76250  0.59500  1.0000 0.1276408614
H   H46       1.0  0.40500  0.23750  0.92550  1.0000 0.1276408614
H   H47       1.0  0.92550  0.40500  0.23750  1.0000 0.1276408614
H   H48       1.0  0.23750  0.92550  0.40500  1.0000 0.1276408614
H   H49       1.0  0.09380  0.49300  0.97970  1.0000 0.1139577981
H   H50       1.0  0.49300  0.97970  0.09380  1.0000 0.1139577981
H   H51       1.0  0.97970  0.09380  0.49300  1.0000 0.1139577981
H   H52       1.0  0.50700  0.90620  0.02030  1.0000 0.1139577981
H   H53       1.0  0.02030  0.50700  0.90620  1.0000 0.1139577981
H   H54       1.0  0.90620  0.02030  0.50700  1.0000 0.1139577981
H   H55       1.0  0.90620  0.50700  0.02030  1.0000 0.1139577981
H   H56       1.0  0.50700  0.02030  0.90620  1.0000 0.1139577981
H   H57       1.0  0.02030  0.90620  0.50700  1.0000 0.1139577981
H   H58       1.0  0.49300  0.09380  0.97970  1.0000 0.1139577981
H   H59       1.0  0.97970  0.49300  0.09380  1.0000 0.1139577981
H   H60       1.0  0.09380  0.97970  0.49300  1.0000 0.1139577981
H   H61       1.0  0.12080  0.38280  0.16640  1.0000 0.0829900283
H   H62       1.0  0.38280  0.16640  0.12080  1.0000 0.0829900283
H   H63       1.0  0.16640  0.12080  0.38280  1.0000 0.0829900283
H   H64       1.0  0.61720  0.87920  0.83360  1.0000 0.0829900283
H   H65       1.0  0.83360  0.61720  0.87920  1.0000 0.0829900283
H   H66       1.0  0.87920  0.83360  0.61720  1.0000 0.0829900283
H   H67       1.0  0.87920  0.61720  0.83360  1.0000 0.0829900283
H   H68       1.0  0.61720  0.83360  0.87920  1.0000 0.0829900283
H   H69       1.0  0.83360  0.87920  0.61720  1.0000 0.0829900283
H   H70       1.0  0.38280  0.12080  0.16640  1.0000 0.0829900283
H   H71       1.0  0.16640  0.38280  0.12080  1.0000 0.0829900283
H   H72       1.0  0.12080  0.16640  0.38280  1.0000 0.0829900283
H   H73       1.0  0.22870  0.36360  0.22830  1.0000 0.1205440478
H   H74       1.0  0.36360  0.22830  0.22870  1.0000 0.1205440478
H   H75       1.0  0.22830  0.22870  0.36360  1.0000 0.1205440478
H   H76       1.0  0.63640  0.77130  0.77170  1.0000 0.1205440478
H   H77       1.0  0.77170  0.63640  0.77130  1.0000 0.1205440478
H   H78       1.0  0.77130  0.77170  0.63640  1.0000 0.1205440478
H   H79       1.0  0.29060  0.44450  0.24540  1.0000 0.1205440478
H   H80       1.0  0.44450  0.24540  0.29060  1.0000 0.1205440478
H   H81       1.0  0.24540  0.29060  0.44450  1.0000 0.1205440478
H   H82       1.0  0.55550  0.70940  0.75460  1.0000 0.1205440478
H   H83       1.0  0.75460  0.55550  0.70940  1.0000 0.1205440478
H   H84       1.0  0.70940  0.75460  0.55550  1.0000 0.1205440478
H   H85       1.0  0.70940  0.55550  0.75460  1.0000 0.1205440478
H   H86       1.0  0.55550  0.75460  0.70940  1.0000 0.1205440478
H   H87       1.0  0.75460  0.70940  0.55550  1.0000 0.1205440478
H   H88       1.0  0.44450  0.29060  0.24540  1.0000 0.1205440478
H   H89       1.0  0.24540  0.44450  0.29060  1.0000 0.1205440478
H   H90       1.0  0.29060  0.24540  0.44450  1.0000 0.1205440478
C   C1        1.0  0.39081  0.49132  0.02265  1.0000 0.5816591512
C   C2        1.0  0.49132  0.02265  0.39081  1.0000 0.5816591512
C   C3        1.0  0.02265  0.39081  0.49132  1.0000 0.5816591512
C   C4        1.0  0.50868  0.60919  0.97735  1.0000 0.5816591512
C   C5        1.0  0.97735  0.50868  0.60919  1.0000 0.5816591512
C   C6        1.0  0.60919  0.97735  0.50868  1.0000 0.5816591512
C   C7        1.0  0.60919  0.50868  0.97735  1.0000 0.5816591512
C   C8        1.0  0.50868  0.97735  0.60919  1.0000 0.5816591512
C   C9        1.0  0.97735  0.60919  0.50868  1.0000 0.5816591512
C   C10       1.0  0.49132  0.39081  0.02265  1.0000 0.5816591512
C   C11       1.0  0.02265  0.49132  0.39081  1.0000 0.5816591512
C   C12       1.0  0.39081  0.02265  0.49132  1.0000 0.5816591512
C   C13       1.0  0.32611  0.48773  0.03709  1.0000 -0.0289420993
C   C14       1.0  0.48773  0.03709  0.32611  1.0000 -0.0289420993
C   C15       1.0  0.03709  0.32611  0.48773  1.0000 -0.0289420993
C   C16       1.0  0.51227  0.67389  0.96291  1.0000 -0.0289420993
C   C17       1.0  0.96291  0.51227  0.67389  1.0000 -0.0289420993
C   C18       1.0  0.67389  0.96291  0.51227  1.0000 -0.0289420993
C   C19       1.0  0.67389  0.51227  0.96291  1.0000 -0.0289420993
C   C20       1.0  0.51227  0.96291  0.67389  1.0000 -0.0289420993
C   C21       1.0  0.96291  0.67389  0.51227  1.0000 -0.0289420993
C   C22       1.0  0.48773  0.32611  0.03709  1.0000 -0.0289420993
C   C23       1.0  0.03709  0.48773  0.32611  1.0000 -0.0289420993
C   C24       1.0  0.32611  0.03709  0.48773  1.0000 -0.0289420993
C   C25       1.0  0.34383  0.53483  0.11141  1.0000 -0.0891694558
C   C26       1.0  0.53483  0.11141  0.34383  1.0000 -0.0891694558
C   C27       1.0  0.11141  0.34383  0.53483  1.0000 -0.0891694558
C   C28       1.0  0.46517  0.65617  0.88859  1.0000 -0.0891694558
C   C29       1.0  0.88859  0.46517  0.65617  1.0000 -0.0891694558
C   C30       1.0  0.65617  0.88859  0.46517  1.0000 -0.0891694558
C   C31       1.0  0.65617  0.46517  0.88859  1.0000 -0.0891694558
C   C32       1.0  0.46517  0.88859  0.65617  1.0000 -0.0891694558
C   C33       1.0  0.88859  0.65617  0.46517  1.0000 -0.0891694558
C   C34       1.0  0.53483  0.34383  0.11141  1.0000 -0.0891694558
C   C35       1.0  0.11141  0.53483  0.34383  1.0000 -0.0891694558
C   C36       1.0  0.34383  0.11141  0.53483  1.0000 -0.0891694558
C   C37       1.0  0.28388  0.53339  0.12429  1.0000 -0.1568817607
C   C38       1.0  0.53339  0.12429  0.28388  1.0000 -0.1568817607
C   C39       1.0  0.12429  0.28388  0.53339  1.0000 -0.1568817607
C   C40       1.0  0.46661  0.71612  0.87571  1.0000 -0.1568817607
C   C41       1.0  0.87571  0.46661  0.71612  1.0000 -0.1568817607
C   C42       1.0  0.71612  0.87571  0.46661  1.0000 -0.1568817607
C   C43       1.0  0.71612  0.46661  0.87571  1.0000 -0.1568817607
C   C44       1.0  0.46661  0.87571  0.71612  1.0000 -0.1568817607
C   C45       1.0  0.87571  0.71612  0.46661  1.0000 -0.1568817607
C   C46       1.0  0.53339  0.28388  0.12429  1.0000 -0.1568817607
C   C47       1.0  0.12429  0.53339  0.28388  1.0000 -0.1568817607
C   C48       1.0  0.28388  0.12429  0.53339  1.0000 -0.1568817607
C   C49       1.0  0.20746  0.48476  0.06385  1.0000 0.0829900283
C   C50       1.0  0.48476  0.06385  0.20746  1.0000 0.0857198443
C   C51       1.0  0.06385  0.20746  0.48476  1.0000 0.0829900283
C   C52       1.0  0.51524  0.79254  0.93615  1.0000 0.0829900283
C   C53       1.0  0.93615  0.51524  0.79254  1.0000 0.0829900283
C   C54       1.0  0.79254  0.93615  0.51524  1.0000 0.0829900283
C   C55       1.0  0.79254  0.51524  0.93615  1.0000 0.0829900283
C   C56       1.0  0.51524  0.93615  0.79254  1.0000 0.0829900283
C   C57       1.0  0.93615  0.79254  0.51524  1.0000 0.0829900283
C   C58       1.0  0.48476  0.20746  0.06385  1.0000 0.0829900283
C   C59       1.0  0.06385  0.48476  0.20746  1.0000 0.0829900283
C   C60       1.0  0.20746  0.06385  0.48476  1.0000 0.0829900283
C   C61       1.0  0.18980  0.43433  0.98911  1.0000 -0.1652460253
C   C62       1.0  0.43433  0.98911  0.18980  1.0000 -0.1652460253
C   C63       1.0  0.98911  0.18980  0.43433  1.0000 -0.1568817607
C   C64       1.0  0.56567  0.81020  0.01089  1.0000 -0.1652460253
C   C65       1.0  0.01089  0.56567  0.81020  1.0000 -0.1652460253
C   C66       1.0  0.81020  0.01089  0.56567  1.0000 -0.1652460253
C   C67       1.0  0.81020  0.56567  0.01089  1.0000 -0.1652460253
C   C68       1.0  0.56567  0.01089  0.81020  1.0000 -0.1652460253
C   C69       1.0  0.01089  0.81020  0.56567  1.0000 -0.1652460253
C   C70       1.0  0.43433  0.18980  0.98911  1.0000 -0.1652460253
C   C71       1.0  0.98911  0.43433  0.18980  1.0000 -0.1652460253
C   C72       1.0  0.18980  0.98911  0.43433  1.0000 -0.1652460253
C   C73       1.0  0.24943  0.43754  0.97631  1.0000 -0.0891694558
C   C74       1.0  0.43754  0.97631  0.24943  1.0000 -0.0891694558
C   C75       1.0  0.97631  0.24943  0.43754  1.0000 -0.0891694558
C   C76       1.0  0.56246  0.75057  0.02369  1.0000 -0.0891694558
C   C77       1.0  0.02369  0.56246  0.75057  1.0000 -0.0891694558
C   C78       1.0  0.75057  0.02369  0.56246  1.0000 -0.0891694558
C   C79       1.0  0.75057  0.56246  0.02369  1.0000 -0.0891694558
C   C80       1.0  0.56246  0.02369  0.75057  1.0000 -0.0891694558
C   C81       1.0  0.02369  0.75057  0.56246  1.0000 -0.0891694558
C   C82       1.0  0.43754  0.24943  0.97631  1.0000 -0.0891694558
C   C83       1.0  0.97631  0.43754  0.24943  1.0000 -0.0891694558
C   C84       1.0  0.24943  0.97631  0.43754  1.0000 -0.0891694558
C   C85       1.0  0.14323  0.48636  0.07464  1.0000 -0.0222339373
C   C86       1.0  0.48636  0.07464  0.14323  1.0000 -0.0222339373
C   C87       1.0  0.07464  0.14323  0.48636  1.0000 -0.0222339373
C   C88       1.0  0.51364  0.85677  0.92536  1.0000 -0.0222339373
C   C89       1.0  0.92536  0.51364  0.85677  1.0000 -0.0222339373
C   C90       1.0  0.85677  0.92536  0.51364  1.0000 -0.0222339373
C   C91       1.0  0.85677  0.51364  0.92536  1.0000 -0.0222339373
C   C92       1.0  0.51364  0.92536  0.85677  1.0000 -0.0222339373
C   C93       1.0  0.92536  0.85677  0.51364  1.0000 -0.0222339373
C   C94       1.0  0.48636  0.14323  0.07464  1.0000 -0.0222339373
C   C95       1.0  0.07464  0.48636  0.14323  1.0000 -0.0222339373
C   C96       1.0  0.14323  0.07464  0.48636  1.0000 -0.0222339373
C   C97       1.0  0.08848  0.49152  0.02136  1.0000 -0.1972929382
C   C98       1.0  0.49152  0.02136  0.08848  1.0000 -0.1972929382
C   C99       1.0  0.02136  0.08848  0.49152  1.0000 -0.1972929382
C   C100      1.0  0.50848  0.91152  0.97864  1.0000 -0.1972929382
C   C101      1.0  0.97864  0.50848  0.91152  1.0000 -0.1972929382
C   C102      1.0  0.91152  0.97864  0.50848  1.0000 -0.1972929382
C   C103      1.0  0.91152  0.50848  0.97864  1.0000 -0.1972929382
C   C104      1.0  0.50848  0.97864  0.91152  1.0000 -0.1972929382
C   C105      1.0  0.97864  0.91152  0.50848  1.0000 -0.1972929382
C   C106      1.0  0.49152  0.08848  0.02136  1.0000 -0.1972929382
C   C107      1.0  0.02136  0.49152  0.08848  1.0000 -0.1972929382
C   C108      1.0  0.08848  0.02136  0.49152  1.0000 -0.1972929382
C   C109      1.0  0.02649  0.49461  0.02650  1.0000 0.0727768769
C   C110      1.0  0.49461  0.02650  0.02649  1.0000 0.0727768769
C   C111      1.0  0.02650  0.02649  0.49461  1.0000 0.0727768769
C   C112      1.0  0.50539  0.97351  0.97350  1.0000 0.0727768769
C   C113      1.0  0.97350  0.50539  0.97351  1.0000 0.0727768769
C   C114      1.0  0.97351  0.97350  0.50539  1.0000 0.0727768769
C   C115      1.0  0.13567  0.48327  0.13566  1.0000 0.1276408614
C   C116      1.0  0.48327  0.13566  0.13567  1.0000 0.1276408614
C   C117      1.0  0.13566  0.13567  0.48327  1.0000 0.1276408614
C   C118      1.0  0.51673  0.86433  0.86434  1.0000 0.1276408614
C   C119      1.0  0.86434  0.51673  0.86433  1.0000 0.1276408614
C   C120      1.0  0.86433  0.86434  0.51673  1.0000 0.1276408614
C   C121      1.0  0.17129  0.41110  0.17131  1.0000 0.0484762564
C   C122      1.0  0.41110  0.17131  0.17129  1.0000 0.0484762564
C   C123      1.0  0.17131  0.17129  0.41110  1.0000 0.0484762564
C   C124      1.0  0.58890  0.82871  0.82869  1.0000 0.0484762564
C   C125      1.0  0.82869  0.58890  0.82871  1.0000 0.0484762564
C   C126      1.0  0.82871  0.82869  0.58890  1.0000 0.0484762564
C   C127      1.0  0.24094  0.41640  0.24096  1.0000 -0.4220588127
C   C128      1.0  0.41640  0.24096  0.24094  1.0000 -0.4220588127
C   C129      1.0  0.24096  0.24094  0.41640  1.0000 -0.4220588127
C   C130      1.0  0.58360  0.75906  0.75904  1.0000 -0.4220588127
C   C131      1.0  0.75904  0.58360  0.75906  1.0000 -0.4220588127
C   C132      1.0  0.75906  0.75904  0.58360  1.0000 -0.4220588127
O   O1        1.0  0.37138  0.44967  0.95383  1.0000 -0.5147493894
O   O2        1.0  0.44967  0.95383  0.37138  1.0000 -0.5147493894
O   O3        1.0  0.95383  0.37138  0.44967  1.0000 -0.5147493894
O   O4        1.0  0.55033  0.62862  0.04617  1.0000 -0.5147493894
O   O5        1.0  0.04617  0.55033  0.62862  1.0000 -0.5147493894
O   O6        1.0  0.62862  0.04617  0.55033  1.0000 -0.5147493894
O   O7        1.0  0.62862  0.55033  0.04617  1.0000 -0.5147493894
O   O8        1.0  0.55033  0.04617  0.62862  1.0000 -0.5147493894
O   O9        1.0  0.04617  0.62862  0.55033  1.0000 -0.5156184901
O   O10       1.0  0.44967  0.37138  0.95383  1.0000 -0.5147493894
O   O11       1.0  0.95383  0.44967  0.37138  1.0000 -0.5147493894
O   O12       1.0  0.37138  0.95383  0.44967  1.0000 -0.5147493894
O   O13       1.0  0.45968  0.53779  0.08167  1.0000 -0.5290943949
O   O14       1.0  0.53779  0.08167  0.45968  1.0000 -0.5290943949
O   O15       1.0  0.08167  0.45968  0.53779  1.0000 -0.5290943949
O   O16       1.0  0.46221  0.54032  0.91833  1.0000 -0.5290943949
O   O17       1.0  0.91833  0.46221  0.54032  1.0000 -0.5290943949
O   O18       1.0  0.54032  0.91833  0.46221  1.0000 -0.5290943949
O   O19       1.0  0.54032  0.46221  0.91833  1.0000 -0.5290943949
O   O20       1.0  0.46221  0.91833  0.54032  1.0000 -0.5290943949
O   O21       1.0  0.91833  0.54032  0.46221  1.0000 -0.5290943949
O   O22       1.0  0.53779  0.45968  0.08167  1.0000 -0.5290943949
O   O23       1.0  0.08167  0.53779  0.45968  1.0000 -0.5290943949
O   O24       1.0  0.45968  0.08167  0.53779  1.0000 -0.5290943949
O   O25       1.0  0.18998  0.48158  0.18999  1.0000 -0.1828029523
O   O26       1.0  0.48158  0.18999  0.18998  1.0000 -0.1828029523
O   O27       1.0  0.18999  0.18998  0.48158  1.0000 -0.1828029523
O   O28       1.0  0.51842  0.81002  0.81001  1.0000 -0.1828029523
O   O29       1.0  0.81001  0.51842  0.81002  1.0000 -0.1828029523
O   O30       1.0  0.81002  0.81001  0.51842  1.0000 -0.1828029523
