# DDEC6 charges by PACMAN v1.1 (https://github.com/mtap-research/PACMAN-charge/)
data_2016[Eu][ant]3[ASR]1
_chemical_formula_sum              "Eu2 H28 C40 N10 O14"
_cell_length_a       11.9529
_cell_length_b       11.9529
_cell_length_c       9.901
_cell_angle_alpha    70.695
_cell_angle_beta     109.305
_cell_angle_gamma    113.342

_symmetry_space_group_name_H-M    "P 1"
_symmetry_Int_Tables_number       1

loop_
  _symmetry_equiv_pos_as_xyz
  'x, y, z'

loop_
  _atom_site_type_symbol
  _atom_site_label
  _atom_site_symmetry_multiplicity
  _atom_site_fract_x
  _atom_site_fract_y
  _atom_site_fract_z
  _atom_site_occupancy
  _atom_site_charge
Eu  Eu1       1.0  0.94145  0.94145  0.75000  1.0000 1.9489745667
Eu  Eu2       1.0  0.05855  0.05855  0.25000  1.0000 1.9489745667
H   H1        1.0  0.29410  0.11230  0.59580  1.0000 0.2670907175
H   H2        1.0  0.11230  0.29410  0.90420  1.0000 0.2670907175
H   H3        1.0  0.70590  0.88770  0.40420  1.0000 0.2670907175
H   H4        1.0  0.88770  0.70590  0.09580  1.0000 0.2670907175
H   H5        1.0  0.65870  0.08210  0.68360  1.0000 0.1172901685
H   H6        1.0  0.08210  0.65870  0.81640  1.0000 0.1172901685
H   H7        1.0  0.34130  0.91790  0.31640  1.0000 0.1172901685
H   H8        1.0  0.91790  0.34130  0.18360  1.0000 0.1172901685
H   H9        1.0  0.43800  0.19440  0.80070  1.0000 0.1120452826
H   H10       1.0  0.19440  0.43800  0.69930  1.0000 0.1120452826
H   H11       1.0  0.56200  0.80560  0.19930  1.0000 0.1120452826
H   H12       1.0  0.80560  0.56200  0.30070  1.0000 0.1120452826
H   H13       1.0  0.56570  0.18550  0.03310  1.0000 0.1172901685
H   H14       1.0  0.18550  0.56570  0.46690  1.0000 0.1172901685
H   H15       1.0  0.43430  0.81450  0.96690  1.0000 0.1172901685
H   H16       1.0  0.81450  0.43430  0.53310  1.0000 0.1172901685
H   H17       1.0  0.74350  0.13210  0.08930  1.0000 0.1172901685
H   H18       1.0  0.13210  0.74350  0.41070  1.0000 0.1172901685
H   H19       1.0  0.25650  0.86790  0.91070  1.0000 0.1172901685
H   H20       1.0  0.86790  0.25650  0.58930  1.0000 0.1172901685
H   H21       1.0  0.57320  0.19940  0.42260  1.0000 0.1401356896
H   H22       1.0  0.19940  0.57320  0.07740  1.0000 0.1401356896
H   H23       1.0  0.42680  0.80060  0.57740  1.0000 0.1401356896
H   H24       1.0  0.80060  0.42680  0.92260  1.0000 0.1401356896
H   H25       1.0  0.37860  0.19640  0.22800  1.0000 0.1120452826
H   H26       1.0  0.19640  0.37860  0.27200  1.0000 0.1120452826
H   H27       1.0  0.62140  0.80360  0.77200  1.0000 0.1120452826
H   H28       1.0  0.80360  0.62140  0.72800  1.0000 0.1120452826
C   C1        1.0  0.83110  0.06250  0.92870  1.0000 0.6474739482
C   C2        1.0  0.06250  0.83110  0.57130  1.0000 0.6474739482
C   C3        1.0  0.16890  0.93750  0.07130  1.0000 0.6474739482
C   C4        1.0  0.93750  0.16890  0.42870  1.0000 0.6474739482
C   C5        1.0  0.71780  0.10200  0.89070  1.0000 -0.0252700689
C   C6        1.0  0.10200  0.71780  0.60930  1.0000 -0.0252700689
C   C7        1.0  0.28220  0.89800  0.10930  1.0000 -0.02466139
C   C8        1.0  0.89800  0.28220  0.39070  1.0000 -0.02466139
C   C9        1.0  0.64080  0.10520  0.75310  1.0000 -0.1547421793
C   C10       1.0  0.10520  0.64080  0.74690  1.0000 -0.1547421793
C   C11       1.0  0.35920  0.89480  0.24690  1.0000 -0.1547421793
C   C12       1.0  0.89480  0.35920  0.25310  1.0000 -0.1547421793
C   C13       1.0  0.53620  0.14240  0.71640  1.0000 0.0433016495
C   C14       1.0  0.14240  0.53620  0.78360  1.0000 0.0433016495
C   C15       1.0  0.46380  0.85760  0.28360  1.0000 0.0433016495
C   C16       1.0  0.85760  0.46380  0.21640  1.0000 0.0433016495
C   C17       1.0  0.50890  0.17130  0.82300  1.0000 -0.1366709302
C   C18       1.0  0.17130  0.50890  0.67700  1.0000 -0.1366709302
C   C19       1.0  0.49110  0.82870  0.17700  1.0000 -0.1366709302
C   C20       1.0  0.82870  0.49110  0.32300  1.0000 -0.1366709302
C   C21       1.0  0.58550  0.16630  0.96190  1.0000 -0.0882503911
C   C22       1.0  0.16630  0.58550  0.53810  1.0000 -0.0882503911
C   C23       1.0  0.41450  0.83370  0.03810  1.0000 -0.0882503911
C   C24       1.0  0.83370  0.41450  0.46190  1.0000 -0.0882503911
C   C25       1.0  0.69060  0.13340  0.99600  1.0000 -0.1132124196
C   C26       1.0  0.13340  0.69060  0.50400  1.0000 -0.1132124196
C   C27       1.0  0.30940  0.86660  0.00400  1.0000 -0.1132124196
C   C28       1.0  0.86660  0.30940  0.49600  1.0000 -0.1132124196
C   C29       1.0  0.46020  0.15140  0.56580  1.0000 0.1348869373
C   C30       1.0  0.15140  0.46020  0.93420  1.0000 0.1348869373
C   C31       1.0  0.53980  0.84860  0.43420  1.0000 0.1348869373
C   C32       1.0  0.84860  0.53980  0.06580  1.0000 0.1401356896
C   C33       1.0  0.49390  0.18130  0.43590  1.0000 -0.2742694746
C   C34       1.0  0.18130  0.49390  0.06410  1.0000 -0.2751279901
C   C35       1.0  0.50610  0.81870  0.56410  1.0000 -0.2751279901
C   C36       1.0  0.81870  0.50610  0.93590  1.0000 -0.2742694746
C   C37       1.0  0.38390  0.17910  0.32830  1.0000 0.0228291234
C   C38       1.0  0.17910  0.38390  0.17170  1.0000 0.0228291234
C   C39       1.0  0.61610  0.82090  0.67170  1.0000 0.0228291234
C   C40       1.0  0.82090  0.61610  0.82830  1.0000 0.0228291234
N   N1        1.0  0.28730  0.14930  0.38630  1.0000 -0.2941888477
N   N2        1.0  0.14930  0.28730  0.11370  1.0000 -0.2941888477
N   N3        1.0  0.71270  0.85070  0.61370  1.0000 -0.2941888477
N   N4        1.0  0.85070  0.71270  0.88630  1.0000 -0.2941888477
N   N5        1.0  0.33690  0.13270  0.53150  1.0000 -0.0882503911
N   N6        1.0  0.13270  0.33690  0.96850  1.0000 -0.0882503911
N   N7        1.0  0.66310  0.86730  0.46850  1.0000 -0.0882503911
N   N8        1.0  0.86730  0.66310  0.03150  1.0000 -0.0882503911
N   N9        1.0  0.16870  0.16870  0.75000  1.0000 0.6753441264
N   N10       1.0  0.83130  0.83130  0.25000  1.0000 0.6753441264
O   O1        1.0  0.83170  0.99930  0.85130  1.0000 -0.6687367613
O   O2        1.0  0.99930  0.83170  0.64870  1.0000 -0.6687367613
O   O3        1.0  0.16830  0.00070  0.14870  1.0000 -0.6687367613
O   O4        1.0  0.00070  0.16830  0.35130  1.0000 -0.6687367613
O   O5        1.0  0.91628  0.09552  0.03410  1.0000 -0.6687367613
O   O6        1.0  0.09552  0.91628  0.46590  1.0000 -0.6687367613
O   O7        1.0  0.08372  0.90448  0.96590  1.0000 -0.6687367613
O   O8        1.0  0.90448  0.08372  0.53410  1.0000 -0.6687367613
O   O9        1.0  0.15758  0.07742  0.70360  1.0000 -0.4668734203
O   O10       1.0  0.07742  0.15758  0.79640  1.0000 -0.4668734203
O   O11       1.0  0.84242  0.92258  0.29640  1.0000 -0.4668734203
O   O12       1.0  0.92258  0.84242  0.20360  1.0000 -0.4668734203
O   O13       1.0  0.25740  0.25740  0.75000  1.0000 -0.3316482137
O   O14       1.0  0.74260  0.74260  0.25000  1.0000 -0.3316482137
