# DDEC6 charges by PACMAN v1.1 (https://github.com/mtap-research/PACMAN-charge/)
data_2016[Cu][nbo]3[ASR]12
_chemical_formula_sum              "Cu6 H78 C126 O30"
_cell_length_a       21.3676
_cell_length_b       21.3676
_cell_length_c       21.3676
_cell_angle_alpha    112.974
_cell_angle_beta     112.974
_cell_angle_gamma    112.974

_symmetry_space_group_name_H-M    "P 1"
_symmetry_Int_Tables_number       1

loop_
  _symmetry_equiv_pos_as_xyz
  'x, y, z'

loop_
  _atom_site_type_symbol
  _atom_site_label
  _atom_site_symmetry_multiplicity
  _atom_site_fract_x
  _atom_site_fract_y
  _atom_site_fract_z
  _atom_site_occupancy
  _atom_site_charge
Cu  Cu1       1.0  0.91558  0.43177  0.43177  1.0000 0.8548900262
Cu  Cu2       1.0  0.43177  0.43177  0.91558  1.0000 0.8548900262
Cu  Cu3       1.0  0.43177  0.91558  0.43177  1.0000 0.8548900262
Cu  Cu4       1.0  0.56823  0.08442  0.56823  1.0000 0.8548900262
Cu  Cu5       1.0  0.56823  0.56823  0.08442  1.0000 0.8567439809
Cu  Cu6       1.0  0.08442  0.56823  0.56823  1.0000 0.8548900262
H   H1        1.0  0.82100  0.57340  0.39960  1.0000 0.1295740922
H   H2        1.0  0.57340  0.39960  0.82100  1.0000 0.1295740922
H   H3        1.0  0.39960  0.82100  0.57340  1.0000 0.1295740922
H   H4        1.0  0.42660  0.17900  0.60040  1.0000 0.1295740922
H   H5        1.0  0.60040  0.42660  0.17900  1.0000 0.1295740922
H   H6        1.0  0.17900  0.60040  0.42660  1.0000 0.1295740922
H   H7        1.0  0.17900  0.42660  0.60040  1.0000 0.1295740922
H   H8        1.0  0.42660  0.60040  0.17900  1.0000 0.1295740922
H   H9        1.0  0.60040  0.17900  0.42660  1.0000 0.1295740922
H   H10       1.0  0.57340  0.82100  0.39960  1.0000 0.1295740922
H   H11       1.0  0.39960  0.57340  0.82100  1.0000 0.1295740922
H   H12       1.0  0.82100  0.39960  0.57340  1.0000 0.1295740922
H   H13       1.0  0.79620  0.67150  0.40400  1.0000 0.1197510414
H   H14       1.0  0.67150  0.40400  0.79620  1.0000 0.1197510414
H   H15       1.0  0.40400  0.79620  0.67150  1.0000 0.1197510414
H   H16       1.0  0.32850  0.20380  0.59600  1.0000 0.1197510414
H   H17       1.0  0.59600  0.32850  0.20380  1.0000 0.1197510414
H   H18       1.0  0.20380  0.59600  0.32850  1.0000 0.1197510414
H   H19       1.0  0.20380  0.32850  0.59600  1.0000 0.1197510414
H   H20       1.0  0.32850  0.59600  0.20380  1.0000 0.1197510414
H   H21       1.0  0.59600  0.20380  0.32850  1.0000 0.1197510414
H   H22       1.0  0.67150  0.79620  0.40400  1.0000 0.1197510414
H   H23       1.0  0.40400  0.67150  0.79620  1.0000 0.1197510414
H   H24       1.0  0.79620  0.40400  0.67150  1.0000 0.1197510414
H   H25       1.0  0.05400  0.87470  0.61020  1.0000 0.1122103006
H   H26       1.0  0.87470  0.61020  0.05400  1.0000 0.1122103006
H   H27       1.0  0.61020  0.05400  0.87470  1.0000 0.1122103006
H   H28       1.0  0.12530  0.94600  0.38980  1.0000 0.1122103006
H   H29       1.0  0.38980  0.12530  0.94600  1.0000 0.1122103006
H   H30       1.0  0.94600  0.38980  0.12530  1.0000 0.1122103006
H   H31       1.0  0.94600  0.12530  0.38980  1.0000 0.1122103006
H   H32       1.0  0.12530  0.38980  0.94600  1.0000 0.1122103006
H   H33       1.0  0.38980  0.94600  0.12530  1.0000 0.1122103006
H   H34       1.0  0.87470  0.05400  0.61020  1.0000 0.1122103006
H   H35       1.0  0.61020  0.87470  0.05400  1.0000 0.1122103006
H   H36       1.0  0.05400  0.61020  0.87470  1.0000 0.1122103006
H   H37       1.0  0.07620  0.77250  0.60530  1.0000 0.1295740922
H   H38       1.0  0.77250  0.60530  0.07620  1.0000 0.1295740922
H   H39       1.0  0.60530  0.07620  0.77250  1.0000 0.1295740922
H   H40       1.0  0.22750  0.92380  0.39470  1.0000 0.1295740922
H   H41       1.0  0.39470  0.22750  0.92380  1.0000 0.1295740922
H   H42       1.0  0.92380  0.39470  0.22750  1.0000 0.1295740922
H   H43       1.0  0.92380  0.22750  0.39470  1.0000 0.1295740922
H   H44       1.0  0.22750  0.39470  0.92380  1.0000 0.1295740922
H   H45       1.0  0.39470  0.92380  0.22750  1.0000 0.1295740922
H   H46       1.0  0.77250  0.07620  0.60530  1.0000 0.1295740922
H   H47       1.0  0.60530  0.77250  0.07620  1.0000 0.1295740922
H   H48       1.0  0.07620  0.60530  0.77250  1.0000 0.1295740922
H   H49       1.0  0.01300  0.90040  0.50010  1.0000 0.1122103006
H   H50       1.0  0.90040  0.50010  0.01300  1.0000 0.1122103006
H   H51       1.0  0.50010  0.01300  0.90040  1.0000 0.1122103006
H   H52       1.0  0.09960  0.98700  0.49990  1.0000 0.1122103006
H   H53       1.0  0.49990  0.09960  0.98700  1.0000 0.1122103006
H   H54       1.0  0.98700  0.49990  0.09960  1.0000 0.1122103006
H   H55       1.0  0.98700  0.09960  0.49990  1.0000 0.1122103006
H   H56       1.0  0.09960  0.49990  0.98700  1.0000 0.1122103006
H   H57       1.0  0.49990  0.98700  0.09960  1.0000 0.1122103006
H   H58       1.0  0.90040  0.01300  0.50010  1.0000 0.1122103006
H   H59       1.0  0.50010  0.90040  0.01300  1.0000 0.1122103006
H   H60       1.0  0.01300  0.50010  0.90040  1.0000 0.1122103006
H   H61       1.0  0.77870  0.77870  0.58160  1.0000 0.1197510414
H   H62       1.0  0.77870  0.58160  0.77870  1.0000 0.1197510414
H   H63       1.0  0.58160  0.77870  0.77870  1.0000 0.1197510414
H   H64       1.0  0.22130  0.22130  0.41840  1.0000 0.1197510414
H   H65       1.0  0.41840  0.22130  0.22130  1.0000 0.1197510414
H   H66       1.0  0.22130  0.41840  0.22130  1.0000 0.1197510414
H   H67       1.0  0.87780  0.83290  0.61670  1.0000 0.1035307442
H   H68       1.0  0.83290  0.61670  0.87780  1.0000 0.1035307442
H   H69       1.0  0.61670  0.87780  0.83290  1.0000 0.1035307442
H   H70       1.0  0.16710  0.12220  0.38330  1.0000 0.1035307442
H   H71       1.0  0.38330  0.16710  0.12220  1.0000 0.1035307442
H   H72       1.0  0.12220  0.38330  0.16710  1.0000 0.1035307442
H   H73       1.0  0.12220  0.16710  0.38330  1.0000 0.1035307442
H   H74       1.0  0.16710  0.38330  0.12220  1.0000 0.1035307442
H   H75       1.0  0.38330  0.12220  0.16710  1.0000 0.1035307442
H   H76       1.0  0.83290  0.87780  0.61670  1.0000 0.1035307442
H   H77       1.0  0.61670  0.83290  0.87780  1.0000 0.1035307442
H   H78       1.0  0.87780  0.61670  0.83290  1.0000 0.1035307442
C   C1        1.0  0.96340  0.59725  0.49795  1.0000 0.5757757122
C   C2        1.0  0.59725  0.49795  0.96340  1.0000 0.5757757122
C   C3        1.0  0.49795  0.96340  0.59725  1.0000 0.5746440783
C   C4        1.0  0.40275  0.03660  0.50205  1.0000 0.5757757122
C   C5        1.0  0.50205  0.40275  0.03660  1.0000 0.5757757122
C   C6        1.0  0.03660  0.50205  0.40275  1.0000 0.5746440783
C   C7        1.0  0.03660  0.40275  0.50205  1.0000 0.5757757122
C   C8        1.0  0.40275  0.50205  0.03660  1.0000 0.5757757122
C   C9        1.0  0.50205  0.03660  0.40275  1.0000 0.5757757122
C   C10       1.0  0.59725  0.96340  0.49795  1.0000 0.5757757122
C   C11       1.0  0.49795  0.59725  0.96340  1.0000 0.5757757122
C   C12       1.0  0.96340  0.49795  0.59725  1.0000 0.5746440783
C   C13       1.0  0.95019  0.66410  0.50371  1.0000 -0.0092032526
C   C14       1.0  0.66410  0.50371  0.95019  1.0000 -0.0092032526
C   C15       1.0  0.50371  0.95019  0.66410  1.0000 -0.0092032526
C   C16       1.0  0.33590  0.04981  0.49629  1.0000 -0.0092032526
C   C17       1.0  0.49629  0.33590  0.04981  1.0000 -0.0092032526
C   C18       1.0  0.04981  0.49629  0.33590  1.0000 -0.0092032526
C   C19       1.0  0.04981  0.33590  0.49629  1.0000 -0.0092032526
C   C20       1.0  0.33590  0.49629  0.04981  1.0000 -0.0092032526
C   C21       1.0  0.49629  0.04981  0.33590  1.0000 -0.0092032526
C   C22       1.0  0.66410  0.95019  0.50371  1.0000 -0.0092032526
C   C23       1.0  0.50371  0.66410  0.95019  1.0000 -0.0092032526
C   C24       1.0  0.95019  0.50371  0.66410  1.0000 -0.0092032526
C   C25       1.0  0.86910  0.63523  0.44357  1.0000 -0.0983513053
C   C26       1.0  0.63523  0.44357  0.86910  1.0000 -0.0983513053
C   C27       1.0  0.44357  0.86910  0.63523  1.0000 -0.0983513053
C   C28       1.0  0.36477  0.13090  0.55643  1.0000 -0.0983513053
C   C29       1.0  0.55643  0.36477  0.13090  1.0000 -0.0983513053
C   C30       1.0  0.13090  0.55643  0.36477  1.0000 -0.0983513053
C   C31       1.0  0.13090  0.36477  0.55643  1.0000 -0.0983513053
C   C32       1.0  0.36477  0.55643  0.13090  1.0000 -0.0983513053
C   C33       1.0  0.55643  0.13090  0.36477  1.0000 -0.0983513053
C   C34       1.0  0.63523  0.86910  0.44357  1.0000 -0.0983513053
C   C35       1.0  0.44357  0.63523  0.86910  1.0000 -0.0983513053
C   C36       1.0  0.86910  0.44357  0.63523  1.0000 -0.0983513053
C   C37       1.0  0.85442  0.69343  0.44445  1.0000 -0.1389228806
C   C38       1.0  0.69343  0.44445  0.85442  1.0000 -0.1389228806
C   C39       1.0  0.44445  0.85442  0.69343  1.0000 -0.1389228806
C   C40       1.0  0.30657  0.14558  0.55555  1.0000 -0.1389228806
C   C41       1.0  0.55555  0.30657  0.14558  1.0000 -0.1389228806
C   C42       1.0  0.14558  0.55555  0.30657  1.0000 -0.1389228806
C   C43       1.0  0.14558  0.30657  0.55555  1.0000 -0.1389228806
C   C44       1.0  0.30657  0.55555  0.14558  1.0000 -0.1389228806
C   C45       1.0  0.55555  0.14558  0.30657  1.0000 -0.1389228806
C   C46       1.0  0.69343  0.85442  0.44445  1.0000 -0.1389228806
C   C47       1.0  0.44445  0.69343  0.85442  1.0000 -0.1389228806
C   C48       1.0  0.85442  0.44445  0.69343  1.0000 -0.1389228806
C   C49       1.0  0.92204  0.77976  0.50200  1.0000 0.0797350079
C   C50       1.0  0.77976  0.50200  0.92204  1.0000 0.0797350079
C   C51       1.0  0.50200  0.92204  0.77976  1.0000 0.0797350079
C   C52       1.0  0.22024  0.07796  0.49800  1.0000 0.0797350079
C   C53       1.0  0.49800  0.22024  0.07796  1.0000 0.0797350079
C   C54       1.0  0.07796  0.49800  0.22024  1.0000 0.0797350079
C   C55       1.0  0.07796  0.22024  0.49800  1.0000 0.0797350079
C   C56       1.0  0.22024  0.49800  0.07796  1.0000 0.0797350079
C   C57       1.0  0.49800  0.07796  0.22024  1.0000 0.0797350079
C   C58       1.0  0.77976  0.92204  0.50200  1.0000 0.0797350079
C   C59       1.0  0.50200  0.77976  0.92204  1.0000 0.0797350079
C   C60       1.0  0.92204  0.50200  0.77976  1.0000 0.0797350079
C   C61       1.0  0.00618  0.81275  0.56607  1.0000 -0.1683946431
C   C62       1.0  0.81275  0.56607  0.00618  1.0000 -0.1683946431
C   C63       1.0  0.56607  0.00618  0.81275  1.0000 -0.1683946431
C   C64       1.0  0.18725  0.99382  0.43393  1.0000 -0.1683946431
C   C65       1.0  0.43393  0.18725  0.99382  1.0000 -0.1683946431
C   C66       1.0  0.99382  0.43393  0.18725  1.0000 -0.1683946431
C   C67       1.0  0.99382  0.18725  0.43393  1.0000 -0.1683946431
C   C68       1.0  0.18725  0.43393  0.99382  1.0000 -0.1683946431
C   C69       1.0  0.43393  0.99382  0.18725  1.0000 -0.1683946431
C   C70       1.0  0.81275  0.00618  0.56607  1.0000 -0.1683946431
C   C71       1.0  0.56607  0.81275  0.00618  1.0000 -0.1683946431
C   C72       1.0  0.00618  0.56607  0.81275  1.0000 -0.1683946431
C   C73       1.0  0.01876  0.75142  0.56382  1.0000 -0.0944060304
C   C74       1.0  0.75142  0.56382  0.01876  1.0000 -0.0944060304
C   C75       1.0  0.56382  0.01876  0.75142  1.0000 -0.0944060304
C   C76       1.0  0.24858  0.98124  0.43618  1.0000 -0.0944060304
C   C77       1.0  0.43618  0.24858  0.98124  1.0000 -0.0944060304
C   C78       1.0  0.98124  0.43618  0.24858  1.0000 -0.0944060304
C   C79       1.0  0.98124  0.24858  0.43618  1.0000 -0.0944060304
C   C80       1.0  0.24858  0.43618  0.98124  1.0000 -0.0944060304
C   C81       1.0  0.43618  0.98124  0.24858  1.0000 -0.0944060304
C   C82       1.0  0.75142  0.01876  0.56382  1.0000 -0.0944060304
C   C83       1.0  0.56382  0.75142  0.01876  1.0000 -0.0944060304
C   C84       1.0  0.01876  0.56382  0.75142  1.0000 -0.0944060304
C   C85       1.0  0.91396  0.84613  0.50161  1.0000 -0.0161282629
C   C86       1.0  0.84613  0.50161  0.91396  1.0000 -0.0161282629
C   C87       1.0  0.50161  0.91396  0.84613  1.0000 -0.0161282629
C   C88       1.0  0.15387  0.08604  0.49839  1.0000 -0.0161282629
C   C89       1.0  0.49839  0.15387  0.08604  1.0000 -0.0161282629
C   C90       1.0  0.08604  0.49839  0.15387  1.0000 -0.0161282629
C   C91       1.0  0.08604  0.15387  0.49839  1.0000 -0.0161282629
C   C92       1.0  0.15387  0.49839  0.08604  1.0000 -0.0161282629
C   C93       1.0  0.49839  0.08604  0.15387  1.0000 -0.0161282629
C   C94       1.0  0.84613  0.91396  0.50161  1.0000 -0.0161282629
C   C95       1.0  0.50161  0.84613  0.91396  1.0000 -0.0161282629
C   C96       1.0  0.91396  0.50161  0.84613  1.0000 -0.0161282629
C   C97       1.0  0.97048  0.90440  0.50082  1.0000 -0.1967234716
C   C98       1.0  0.90440  0.50082  0.97048  1.0000 -0.1967234716
C   C99       1.0  0.50082  0.97048  0.90440  1.0000 -0.1967234716
C   C100      1.0  0.09560  0.02952  0.49918  1.0000 -0.1967234716
C   C101      1.0  0.49918  0.09560  0.02952  1.0000 -0.1967234716
C   C102      1.0  0.02952  0.49918  0.09560  1.0000 -0.1967234716
C   C103      1.0  0.02952  0.09560  0.49918  1.0000 -0.1967234716
C   C104      1.0  0.09560  0.49918  0.02952  1.0000 -0.1967234716
C   C105      1.0  0.49918  0.02952  0.09560  1.0000 -0.1967234716
C   C106      1.0  0.90440  0.97048  0.50082  1.0000 -0.1967234716
C   C107      1.0  0.50082  0.90440  0.97048  1.0000 -0.1967234716
C   C108      1.0  0.97048  0.50082  0.90440  1.0000 -0.1967234716
C   C109      1.0  0.96985  0.96985  0.50110  1.0000 0.069159624
C   C110      1.0  0.96985  0.50110  0.96985  1.0000 0.069159624
C   C111      1.0  0.50110  0.96985  0.96985  1.0000 0.069159624
C   C112      1.0  0.03015  0.03015  0.49890  1.0000 0.069159624
C   C113      1.0  0.49890  0.03015  0.03015  1.0000 0.069159624
C   C114      1.0  0.03015  0.49890  0.03015  1.0000 0.069159624
C   C115      1.0  0.84889  0.84889  0.49943  1.0000 0.1519716675
C   C116      1.0  0.84889  0.49943  0.84889  1.0000 0.1519716675
C   C117      1.0  0.49943  0.84889  0.84889  1.0000 0.1519716675
C   C118      1.0  0.15112  0.15111  0.50057  1.0000 0.1519716675
C   C119      1.0  0.50057  0.15112  0.15112  1.0000 0.1519716675
C   C120      1.0  0.15112  0.50057  0.15112  1.0000 0.1519716675
C   C121      1.0  0.82230  0.82230  0.58500  1.0000 -0.2314600254
C   C122      1.0  0.82230  0.58500  0.82230  1.0000 -0.2314600254
C   C123      1.0  0.58500  0.82230  0.82230  1.0000 -0.2314600254
C   C124      1.0  0.17770  0.17770  0.41500  1.0000 -0.2314600254
C   C125      1.0  0.41500  0.17770  0.17770  1.0000 -0.2314600254
C   C126      1.0  0.17770  0.41500  0.17770  1.0000 -0.2314600254
O   O1        1.0  0.04576  0.63625  0.55929  1.0000 -0.54159915
O   O2        1.0  0.63625  0.55929  0.04576  1.0000 -0.54159915
O   O3        1.0  0.55929  0.04576  0.63625  1.0000 -0.54159915
O   O4        1.0  0.36375  0.95424  0.44071  1.0000 -0.54159915
O   O5        1.0  0.44071  0.36375  0.95424  1.0000 -0.54159915
O   O6        1.0  0.95424  0.44071  0.36375  1.0000 -0.54159915
O   O7        1.0  0.95424  0.36375  0.44071  1.0000 -0.54159915
O   O8        1.0  0.36375  0.44071  0.95424  1.0000 -0.54159915
O   O9        1.0  0.44071  0.95424  0.36375  1.0000 -0.54159915
O   O10       1.0  0.63625  0.04576  0.55929  1.0000 -0.54159915
O   O11       1.0  0.55929  0.63625  0.04576  1.0000 -0.54159915
O   O12       1.0  0.04576  0.55929  0.63625  1.0000 -0.54159915
O   O13       1.0  0.89829  0.51680  0.44041  1.0000 -0.4964627281
O   O14       1.0  0.51680  0.44041  0.89829  1.0000 -0.4964627281
O   O15       1.0  0.44041  0.89829  0.51680  1.0000 -0.4964627281
O   O16       1.0  0.48320  0.10171  0.55959  1.0000 -0.4964627281
O   O17       1.0  0.55959  0.48320  0.10171  1.0000 -0.4964627281
O   O18       1.0  0.10171  0.55959  0.48320  1.0000 -0.4964627281
O   O19       1.0  0.10171  0.48320  0.55959  1.0000 -0.4964627281
O   O20       1.0  0.48320  0.55959  0.10171  1.0000 -0.4964627281
O   O21       1.0  0.55959  0.10171  0.48320  1.0000 -0.4964627281
O   O22       1.0  0.51680  0.89829  0.44041  1.0000 -0.4964627281
O   O23       1.0  0.44041  0.51680  0.89829  1.0000 -0.4964627281
O   O24       1.0  0.89829  0.44041  0.51680  1.0000 -0.4964627281
O   O25       1.0  0.78972  0.78972  0.49806  1.0000 -0.1683946431
O   O26       1.0  0.78972  0.49806  0.78972  1.0000 -0.1683946431
O   O27       1.0  0.49806  0.78972  0.78972  1.0000 -0.1683946431
O   O28       1.0  0.21028  0.21028  0.50194  1.0000 -0.1683946431
O   O29       1.0  0.50194  0.21028  0.21028  1.0000 -0.1683946431
O   O30       1.0  0.21028  0.50194  0.21028  1.0000 -0.1683946431
