# DDEC6 charges by PACMAN v1.1 (https://github.com/mtap-research/PACMAN-charge/)
data_2016[Dy][nan]3[ASR]3
_chemical_formula_sum              "Dy8 H36 C108 N12 O48"
_cell_length_a       15.2023
_cell_length_b       15.2023
_cell_length_c       25.0765
_cell_angle_alpha    78.4486
_cell_angle_beta     101.551
_cell_angle_gamma    107.955

_symmetry_space_group_name_H-M    "P 1"
_symmetry_Int_Tables_number       1

loop_
  _symmetry_equiv_pos_as_xyz
  'x, y, z'

loop_
  _atom_site_type_symbol
  _atom_site_label
  _atom_site_symmetry_multiplicity
  _atom_site_fract_x
  _atom_site_fract_y
  _atom_site_fract_z
  _atom_site_occupancy
  _atom_site_charge
Dy  Dy1       1.0  0.16806  0.98482  0.25821  1.0000 2.0711840427
Dy  Dy2       1.0  0.98482  0.16806  0.24179  1.0000 2.0711840427
Dy  Dy3       1.0  0.83194  0.01518  0.74179  1.0000 2.0711840427
Dy  Dy4       1.0  0.01518  0.83194  0.75821  1.0000 2.0711840427
Dy  Dy5       1.0  0.47541  0.90653  0.94372  1.0000 2.0646934546
Dy  Dy6       1.0  0.90653  0.47541  0.55628  1.0000 2.0646934546
Dy  Dy7       1.0  0.52459  0.09347  0.05628  1.0000 2.0646934546
Dy  Dy8       1.0  0.09347  0.52459  0.44372  1.0000 2.0646934546
H   H1        1.0  0.79790  0.01030  0.12790  1.0000 0.1307023055
H   H2        1.0  0.01030  0.79790  0.37210  1.0000 0.1307023055
H   H3        1.0  0.20210  0.98970  0.87210  1.0000 0.1307023055
H   H4        1.0  0.98970  0.20210  0.62790  1.0000 0.1307023055
H   H5        1.0  0.28000  0.13640  0.13580  1.0000 0.1361543066
H   H6        1.0  0.13640  0.28000  0.36420  1.0000 0.1361543066
H   H7        1.0  0.72000  0.86360  0.86420  1.0000 0.1361543066
H   H8        1.0  0.86360  0.72000  0.63580  1.0000 0.1361543066
H   H9        1.0  0.68080  0.06900  0.88300  1.0000 0.1361543066
H   H10       1.0  0.06900  0.68080  0.61700  1.0000 0.1361543066
H   H11       1.0  0.31920  0.93100  0.11700  1.0000 0.1361543066
H   H12       1.0  0.93100  0.31920  0.38300  1.0000 0.1361543066
H   H13       1.0  0.70020  0.80600  0.03320  1.0000 0.1307023055
H   H14       1.0  0.80600  0.70020  0.46680  1.0000 0.1307023055
H   H15       1.0  0.29980  0.19400  0.96680  1.0000 0.1307023055
H   H16       1.0  0.19400  0.29980  0.53320  1.0000 0.1307023055
H   H17       1.0  0.39500  0.37060  0.03740  1.0000 0.1307023055
H   H18       1.0  0.37060  0.39500  0.46260  1.0000 0.1307023055
H   H19       1.0  0.60500  0.62940  0.96260  1.0000 0.1307023055
H   H20       1.0  0.62940  0.60500  0.53740  1.0000 0.1307023055
H   H21       1.0  0.85990  0.30150  0.81710  1.0000 0.1307023055
H   H22       1.0  0.30150  0.85990  0.68290  1.0000 0.1307023055
H   H23       1.0  0.14010  0.69850  0.18290  1.0000 0.1307023055
H   H24       1.0  0.69850  0.14010  0.31710  1.0000 0.1307023055
H   H25       1.0  0.94920  0.83380  0.13120  1.0000 0.1361543066
H   H26       1.0  0.83380  0.94920  0.36880  1.0000 0.1361543066
H   H27       1.0  0.05080  0.16620  0.86880  1.0000 0.1361543066
H   H28       1.0  0.16620  0.05080  0.63120  1.0000 0.1361543066
H   H29       1.0  0.17770  0.35730  0.11160  1.0000 0.1361543066
H   H30       1.0  0.35730  0.17770  0.38840  1.0000 0.1361543066
H   H31       1.0  0.82230  0.64270  0.88840  1.0000 0.1361543066
H   H32       1.0  0.64270  0.82230  0.61160  1.0000 0.1361543066
H   H33       1.0  0.71550  0.31490  0.93200  1.0000 0.1361543066
H   H34       1.0  0.31490  0.71550  0.56800  1.0000 0.1361543066
H   H35       1.0  0.28450  0.68510  0.06800  1.0000 0.1361543066
H   H36       1.0  0.68510  0.28450  0.43200  1.0000 0.1361543066
C   C1        1.0  0.88378  0.92892  0.13653  1.0000 -0.0305653436
C   C2        1.0  0.92892  0.88378  0.36347  1.0000 -0.0305653436
C   C3        1.0  0.11622  0.07108  0.86347  1.0000 -0.0305653436
C   C4        1.0  0.07108  0.11622  0.63653  1.0000 -0.0305653436
C   C5        1.0  0.22035  0.24043  0.13083  1.0000 -0.0305653436
C   C6        1.0  0.24043  0.22035  0.36917  1.0000 -0.0305653436
C   C7        1.0  0.77965  0.75957  0.86917  1.0000 -0.0305653436
C   C8        1.0  0.75957  0.77965  0.63083  1.0000 -0.0305653436
C   C9        1.0  0.68628  0.18538  0.91256  1.0000 -0.0305653436
C   C10       1.0  0.18538  0.68628  0.58744  1.0000 -0.0305653436
C   C11       1.0  0.31372  0.81462  0.08744  1.0000 -0.0305653436
C   C12       1.0  0.81462  0.31372  0.41256  1.0000 -0.0305653436
C   C13       1.0  0.80463  0.95913  0.11569  1.0000 -0.0826810488
C   C14       1.0  0.95913  0.80463  0.38431  1.0000 -0.0826810488
C   C15       1.0  0.19537  0.04087  0.88431  1.0000 -0.0826810488
C   C16       1.0  0.04087  0.19537  0.61569  1.0000 -0.0826810488
C   C17       1.0  0.28204  0.19752  0.11971  1.0000 -0.0826810488
C   C18       1.0  0.19752  0.28204  0.38029  1.0000 -0.0826810488
C   C19       1.0  0.71796  0.80248  0.88029  1.0000 -0.0826810488
C   C20       1.0  0.80248  0.71796  0.61971  1.0000 -0.0826810488
C   C21       1.0  0.70890  0.13314  0.88048  1.0000 -0.0882626894
C   C22       1.0  0.13314  0.70890  0.61952  1.0000 -0.0882626894
C   C23       1.0  0.29110  0.86686  0.11952  1.0000 -0.0882626894
C   C24       1.0  0.86686  0.29110  0.38048  1.0000 -0.0882626894
C   C25       1.0  0.73420  0.91400  0.07642  1.0000 -0.0305653436
C   C26       1.0  0.91400  0.73420  0.42358  1.0000 -0.0305653436
C   C27       1.0  0.26580  0.08600  0.92358  1.0000 -0.0305653436
C   C28       1.0  0.08600  0.26580  0.57642  1.0000 -0.0305653436
C   C29       1.0  0.34695  0.24641  0.08432  1.0000 -0.015286299
C   C30       1.0  0.24641  0.34695  0.41568  1.0000 -0.015286299
C   C31       1.0  0.65305  0.75359  0.91568  1.0000 -0.015286299
C   C32       1.0  0.75359  0.65305  0.58432  1.0000 -0.015286299
C   C33       1.0  0.77377  0.17707  0.84451  1.0000 -0.0072197591
C   C34       1.0  0.17707  0.77377  0.65549  1.0000 -0.0072197591
C   C35       1.0  0.22623  0.82293  0.15549  1.0000 -0.0072197591
C   C36       1.0  0.82293  0.22623  0.34451  1.0000 -0.0072197591
C   C37       1.0  0.74579  0.83703  0.05906  1.0000 -0.1132173977
C   C38       1.0  0.83703  0.74579  0.44094  1.0000 -0.1132173977
C   C39       1.0  0.25421  0.16297  0.94094  1.0000 -0.1132173977
C   C40       1.0  0.16297  0.25421  0.55906  1.0000 -0.1132173977
C   C41       1.0  0.35066  0.33760  0.06028  1.0000 -0.1166054663
C   C42       1.0  0.33760  0.35066  0.43972  1.0000 -0.1166054663
C   C43       1.0  0.64934  0.66240  0.93972  1.0000 -0.1166054663
C   C44       1.0  0.66240  0.64934  0.56028  1.0000 -0.1166054663
C   C45       1.0  0.81700  0.27214  0.84139  1.0000 -0.1007026128
C   C46       1.0  0.27214  0.81700  0.65861  1.0000 -0.1007026128
C   C47       1.0  0.18300  0.72786  0.15861  1.0000 -0.1007026128
C   C48       1.0  0.72786  0.18300  0.34139  1.0000 -0.1007026128
C   C49       1.0  0.82505  0.80641  0.08028  1.0000 0.0496999099
C   C50       1.0  0.80641  0.82505  0.41972  1.0000 0.0496999099
C   C51       1.0  0.17495  0.19359  0.91972  1.0000 0.0496999099
C   C52       1.0  0.19359  0.17495  0.58028  1.0000 0.0496999099
C   C53       1.0  0.28761  0.37931  0.07065  1.0000 0.0393816101
C   C54       1.0  0.37931  0.28761  0.42935  1.0000 0.0393816101
C   C55       1.0  0.71239  0.62069  0.92935  1.0000 0.0393816101
C   C56       1.0  0.62069  0.71239  0.57065  1.0000 0.0393816101
C   C57       1.0  0.79613  0.32359  0.87468  1.0000 0.0393816101
C   C58       1.0  0.32359  0.79613  0.62532  1.0000 0.0393816101
C   C59       1.0  0.20387  0.67641  0.12532  1.0000 0.0393816101
C   C60       1.0  0.67641  0.20387  0.37468  1.0000 0.0393816101
C   C61       1.0  0.89536  0.85304  0.11824  1.0000 -0.1132173977
C   C62       1.0  0.85304  0.89536  0.38176  1.0000 -0.1132173977
C   C63       1.0  0.10464  0.14696  0.88176  1.0000 -0.1132173977
C   C64       1.0  0.14696  0.10464  0.61824  1.0000 -0.1132173977
C   C65       1.0  0.22103  0.32985  0.10556  1.0000 -0.1007026128
C   C66       1.0  0.32985  0.22103  0.39444  1.0000 -0.1007026128
C   C67       1.0  0.77897  0.67015  0.89444  1.0000 -0.1007026128
C   C68       1.0  0.67015  0.77897  0.60556  1.0000 -0.1007026128
C   C69       1.0  0.73007  0.28015  0.91007  1.0000 -0.0882626894
C   C70       1.0  0.28015  0.73007  0.58993  1.0000 -0.0882626894
C   C71       1.0  0.26993  0.71985  0.08993  1.0000 -0.0882626894
C   C72       1.0  0.71985  0.26993  0.41007  1.0000 -0.0882626894
C   C73       1.0  0.95970  0.97898  0.17805  1.0000 0.649263028
C   C74       1.0  0.97898  0.95970  0.32195  1.0000 0.649263028
C   C75       1.0  0.04030  0.02102  0.82195  1.0000 0.649263028
C   C76       1.0  0.02102  0.04030  0.67805  1.0000 0.649263028
C   C77       1.0  0.15655  0.18999  0.17283  1.0000 0.6617639549
C   C78       1.0  0.18999  0.15655  0.32717  1.0000 0.6617639549
C   C79       1.0  0.84345  0.81001  0.82717  1.0000 0.6617639549
C   C80       1.0  0.81001  0.84345  0.67283  1.0000 0.6617639549
C   C81       1.0  0.61670  0.13924  0.95209  1.0000 0.6425129211
C   C82       1.0  0.13924  0.61670  0.54791  1.0000 0.6425129211
C   C83       1.0  0.38330  0.86076  0.04791  1.0000 0.6425129211
C   C84       1.0  0.86076  0.38330  0.45209  1.0000 0.6425129211
C   C85       1.0  0.64994  0.94788  0.05270  1.0000 0.6425129211
C   C86       1.0  0.94788  0.64994  0.44730  1.0000 0.6425129211
C   C87       1.0  0.35006  0.05212  0.94730  1.0000 0.6425129211
C   C88       1.0  0.05212  0.35006  0.55270  1.0000 0.6425129211
C   C89       1.0  0.41582  0.19994  0.07472  1.0000 0.5629630721
C   C90       1.0  0.19994  0.41582  0.42528  1.0000 0.5629630721
C   C91       1.0  0.58418  0.80006  0.92528  1.0000 0.5629630721
C   C92       1.0  0.80006  0.58418  0.57472  1.0000 0.5629630721
C   C93       1.0  0.79989  0.12059  0.81031  1.0000 0.5651119388
C   C94       1.0  0.12059  0.79989  0.68969  1.0000 0.5651119388
C   C95       1.0  0.20011  0.87941  0.18969  1.0000 0.5651119388
C   C96       1.0  0.87941  0.20011  0.31031  1.0000 0.5651119388
C   C97       1.0  0.83567  0.72513  0.06291  1.0000 0.2396925948
C   C98       1.0  0.72513  0.83567  0.43709  1.0000 0.2396925948
C   C99       1.0  0.16433  0.27487  0.93709  1.0000 0.2396925948
C   C100      1.0  0.27487  0.16433  0.56291  1.0000 0.2396925948
C   C101      1.0  0.29024  0.47404  0.04663  1.0000 0.2396925948
C   C102      1.0  0.47404  0.29024  0.45337  1.0000 0.2396925948
C   C103      1.0  0.70976  0.52596  0.95337  1.0000 0.2396925948
C   C104      1.0  0.52596  0.70976  0.54663  1.0000 0.2396925948
C   C105      1.0  0.84541  0.42175  0.87388  1.0000 0.2309452779
C   C106      1.0  0.42175  0.84541  0.62612  1.0000 0.2309452779
C   C107      1.0  0.15459  0.57825  0.12612  1.0000 0.2309452779
C   C108      1.0  0.57825  0.15459  0.37388  1.0000 0.2309452779
N   N1        1.0  0.84616  0.66224  0.05007  1.0000 -0.3571483158
N   N2        1.0  0.66224  0.84616  0.44993  1.0000 -0.3571483158
N   N3        1.0  0.15384  0.33776  0.94993  1.0000 -0.3571483158
N   N4        1.0  0.33776  0.15384  0.55007  1.0000 -0.3571483158
N   N5        1.0  0.29301  0.55021  0.02848  1.0000 -0.3380981349
N   N6        1.0  0.55021  0.29301  0.47152  1.0000 -0.3380981349
N   N7        1.0  0.70699  0.44979  0.97152  1.0000 -0.3380981349
N   N8        1.0  0.44979  0.70699  0.52848  1.0000 -0.3380981349
N   N9        1.0  0.88473  0.49941  0.87414  1.0000 -0.3571483158
N   N10       1.0  0.49941  0.88473  0.62586  1.0000 -0.3571483158
N   N11       1.0  0.11527  0.50059  0.12586  1.0000 -0.3571483158
N   N12       1.0  0.50059  0.11527  0.37414  1.0000 -0.3571483158
O   O1        1.0  0.03194  0.95212  0.19136  1.0000 -0.6191048884
O   O2        1.0  0.95212  0.03194  0.30864  1.0000 -0.6191048884
O   O3        1.0  0.96806  0.04788  0.80864  1.0000 -0.6191048884
O   O4        1.0  0.04788  0.96806  0.69136  1.0000 -0.6191048884
O   O5        1.0  0.17947  0.12385  0.20542  1.0000 -0.7001609766
O   O6        1.0  0.12385  0.17947  0.29458  1.0000 -0.7001609766
O   O7        1.0  0.82053  0.87615  0.79458  1.0000 -0.7001609766
O   O8        1.0  0.87615  0.82053  0.70542  1.0000 -0.7001609766
O   O9        1.0  0.56633  0.05703  0.94831  1.0000 -0.7274500692
O   O10       1.0  0.05703  0.56633  0.55169  1.0000 -0.7274500692
O   O11       1.0  0.43367  0.94297  0.05169  1.0000 -0.7274500692
O   O12       1.0  0.94297  0.43367  0.44831  1.0000 -0.7274500692
O   O13       1.0  0.94312  0.04266  0.19591  1.0000 -0.6848679745
O   O14       1.0  0.04266  0.94312  0.30409  1.0000 -0.6848679745
O   O15       1.0  0.05688  0.95734  0.80409  1.0000 -0.6848679745
O   O16       1.0  0.95734  0.05688  0.69591  1.0000 -0.6848679745
O   O17       1.0  0.08869  0.21873  0.17431  1.0000 -0.6341261827
O   O18       1.0  0.21873  0.08869  0.32569  1.0000 -0.6341261827
O   O19       1.0  0.91131  0.78127  0.82569  1.0000 -0.6341261827
O   O20       1.0  0.78127  0.91131  0.67431  1.0000 -0.6341261827
O   O21       1.0  0.61375  0.18551  0.98784  1.0000 -0.6121663564
O   O22       1.0  0.18551  0.61375  0.51216  1.0000 -0.6121663564
O   O23       1.0  0.38625  0.81449  0.01216  1.0000 -0.6121663564
O   O24       1.0  0.81449  0.38625  0.48784  1.0000 -0.6121663564
O   O25       1.0  0.64490  0.01950  0.06776  1.0000 -0.6599747701
O   O26       1.0  0.01950  0.64490  0.43224  1.0000 -0.6599747701
O   O27       1.0  0.35510  0.98050  0.93224  1.0000 -0.6599747701
O   O28       1.0  0.98050  0.35510  0.56776  1.0000 -0.6599747701
O   O29       1.0  0.40715  0.11539  0.09644  1.0000 -0.6599747701
O   O30       1.0  0.11539  0.40715  0.40356  1.0000 -0.6599747701
O   O31       1.0  0.59285  0.88461  0.90356  1.0000 -0.6599747701
O   O32       1.0  0.88461  0.59285  0.59644  1.0000 -0.6599747701
O   O33       1.0  0.78033  0.03363  0.82439  1.0000 -0.6191048884
O   O34       1.0  0.03363  0.78033  0.67561  1.0000 -0.6191048884
O   O35       1.0  0.21967  0.96637  0.17561  1.0000 -0.6191048884
O   O36       1.0  0.96637  0.21967  0.32439  1.0000 -0.6191048884
O   O37       1.0  0.59102  0.89996  0.01974  1.0000 -0.6404965484
O   O38       1.0  0.89996  0.59102  0.48026  1.0000 -0.6404965484
O   O39       1.0  0.40898  0.10004  0.98026  1.0000 -0.6404965484
O   O40       1.0  0.10004  0.40898  0.51974  1.0000 -0.6404965484
O   O41       1.0  0.47825  0.24531  0.04564  1.0000 -0.6014823281
O   O42       1.0  0.24531  0.47825  0.45436  1.0000 -0.6014823281
O   O43       1.0  0.52175  0.75469  0.95436  1.0000 -0.6014823281
O   O44       1.0  0.75469  0.52175  0.54564  1.0000 -0.6014823281
O   O45       1.0  0.83866  0.16220  0.76848  1.0000 -0.6599747701
O   O46       1.0  0.16220  0.83866  0.73152  1.0000 -0.6599747701
O   O47       1.0  0.16134  0.83780  0.23152  1.0000 -0.6599747701
O   O48       1.0  0.83780  0.16134  0.26848  1.0000 -0.6599747701
