# DDEC6 charges by PACMAN v1.1 (https://github.com/mtap-research/PACMAN-charge/)
data_2016[Cu][nbo]3[ASR]52
_chemical_formula_sum              "Cu6 H90 C132 O30"
_cell_length_a       21.4747
_cell_length_b       21.4747
_cell_length_c       21.4747
_cell_angle_alpha    110.513
_cell_angle_beta     110.513
_cell_angle_gamma    110.513

_symmetry_space_group_name_H-M    "P 1"
_symmetry_Int_Tables_number       1

loop_
  _symmetry_equiv_pos_as_xyz
  'x, y, z'

loop_
  _atom_site_type_symbol
  _atom_site_label
  _atom_site_symmetry_multiplicity
  _atom_site_fract_x
  _atom_site_fract_y
  _atom_site_fract_z
  _atom_site_occupancy
  _atom_site_charge
Cu  Cu1       1.0  0.42431  0.94666  0.94666  1.0000 0.8637762698
Cu  Cu2       1.0  0.94666  0.94666  0.42431  1.0000 0.8637762698
Cu  Cu3       1.0  0.94666  0.42431  0.94666  1.0000 0.8660909447
Cu  Cu4       1.0  0.05334  0.57569  0.05334  1.0000 0.8637762698
Cu  Cu5       1.0  0.05334  0.05334  0.57569  1.0000 0.8637762698
Cu  Cu6       1.0  0.57569  0.05334  0.05334  1.0000 0.8637762698
H   H1        1.0  0.65780  0.90050  0.07190  1.0000 0.1267647078
H   H2        1.0  0.90050  0.07190  0.65780  1.0000 0.1267647078
H   H3        1.0  0.07190  0.65780  0.90050  1.0000 0.1267647078
H   H4        1.0  0.09950  0.34220  0.92810  1.0000 0.1267647078
H   H5        1.0  0.92810  0.09950  0.34220  1.0000 0.1267647078
H   H6        1.0  0.34220  0.92810  0.09950  1.0000 0.1267647078
H   H7        1.0  0.34220  0.09950  0.92810  1.0000 0.1267647078
H   H8        1.0  0.09950  0.92810  0.34220  1.0000 0.1267647078
H   H9        1.0  0.92810  0.34220  0.09950  1.0000 0.1267647078
H   H10       1.0  0.90050  0.65780  0.07190  1.0000 0.1267647078
H   H11       1.0  0.07190  0.90050  0.65780  1.0000 0.1267647078
H   H12       1.0  0.65780  0.07190  0.90050  1.0000 0.1267647078
H   H13       1.0  0.67950  0.80030  0.06820  1.0000 0.1267647078
H   H14       1.0  0.80030  0.06820  0.67950  1.0000 0.1267647078
H   H15       1.0  0.06820  0.67950  0.80030  1.0000 0.1267647078
H   H16       1.0  0.19970  0.32050  0.93180  1.0000 0.1163213623
H   H17       1.0  0.93180  0.19970  0.32050  1.0000 0.1267647078
H   H18       1.0  0.32050  0.93180  0.19970  1.0000 0.1267647078
H   H19       1.0  0.32050  0.19970  0.93180  1.0000 0.1267647078
H   H20       1.0  0.19970  0.93180  0.32050  1.0000 0.1267647078
H   H21       1.0  0.93180  0.32050  0.19970  1.0000 0.1267647078
H   H22       1.0  0.80030  0.67950  0.06820  1.0000 0.1267647078
H   H23       1.0  0.06820  0.80030  0.67950  1.0000 0.1267647078
H   H24       1.0  0.67950  0.06820  0.80030  1.0000 0.1267647078
H   H25       1.0  0.44700  0.63660  0.90010  1.0000 0.1163213623
H   H26       1.0  0.63660  0.90010  0.44700  1.0000 0.1163213623
H   H27       1.0  0.90010  0.44700  0.63660  1.0000 0.1163213623
H   H28       1.0  0.36340  0.55300  0.09990  1.0000 0.1163213623
H   H29       1.0  0.09990  0.36340  0.55300  1.0000 0.1163213623
H   H30       1.0  0.55300  0.09990  0.36340  1.0000 0.1163213623
H   H31       1.0  0.55300  0.36340  0.09990  1.0000 0.1163213623
H   H32       1.0  0.36340  0.09990  0.55300  1.0000 0.1163213623
H   H33       1.0  0.09990  0.55300  0.36340  1.0000 0.1163213623
H   H34       1.0  0.63660  0.44700  0.90010  1.0000 0.1163213623
H   H35       1.0  0.90010  0.63660  0.44700  1.0000 0.1163213623
H   H36       1.0  0.44700  0.90010  0.63660  1.0000 0.1163213623
H   H37       1.0  0.42560  0.73740  0.90710  1.0000 0.1267647078
H   H38       1.0  0.73740  0.90710  0.42560  1.0000 0.1267647078
H   H39       1.0  0.90710  0.42560  0.73740  1.0000 0.1267647078
H   H40       1.0  0.26260  0.57440  0.09290  1.0000 0.1267647078
H   H41       1.0  0.09290  0.26260  0.57440  1.0000 0.1267647078
H   H42       1.0  0.57440  0.09290  0.26260  1.0000 0.1267647078
H   H43       1.0  0.57440  0.26260  0.09290  1.0000 0.1267647078
H   H44       1.0  0.26260  0.09290  0.57440  1.0000 0.1267647078
H   H45       1.0  0.09290  0.57440  0.26260  1.0000 0.1267647078
H   H46       1.0  0.73740  0.42560  0.90710  1.0000 0.1267647078
H   H47       1.0  0.90710  0.73740  0.42560  1.0000 0.1267647078
H   H48       1.0  0.42560  0.90710  0.73740  1.0000 0.1267647078
H   H49       1.0  0.48020  0.59410  0.99340  1.0000 0.1117282902
H   H50       1.0  0.59410  0.99340  0.48020  1.0000 0.1117282902
H   H51       1.0  0.99340  0.48020  0.59410  1.0000 0.1117282902
H   H52       1.0  0.40590  0.51980  0.00660  1.0000 0.1117282902
H   H53       1.0  0.00660  0.40590  0.51980  1.0000 0.1117282902
H   H54       1.0  0.51980  0.00660  0.40590  1.0000 0.1117282902
H   H55       1.0  0.51980  0.40590  0.00660  1.0000 0.1117282902
H   H56       1.0  0.40590  0.00660  0.51980  1.0000 0.1117282902
H   H57       1.0  0.00660  0.51980  0.40590  1.0000 0.1117282902
H   H58       1.0  0.59410  0.48020  0.99340  1.0000 0.1117282902
H   H59       1.0  0.99340  0.59410  0.48020  1.0000 0.1117282902
H   H60       1.0  0.48020  0.99340  0.59410  1.0000 0.1117282902
H   H61       1.0  0.66650  0.62100  0.87770  1.0000 0.0709716876
H   H62       1.0  0.62100  0.87770  0.66650  1.0000 0.0709716876
H   H63       1.0  0.87770  0.66650  0.62100  1.0000 0.0709716876
H   H64       1.0  0.37900  0.33350  0.12230  1.0000 0.0709716876
H   H65       1.0  0.12230  0.37900  0.33350  1.0000 0.0709716876
H   H66       1.0  0.33350  0.12230  0.37900  1.0000 0.0709716876
H   H67       1.0  0.33350  0.37900  0.12230  1.0000 0.0709716876
H   H68       1.0  0.37900  0.12230  0.33350  1.0000 0.0709716876
H   H69       1.0  0.12230  0.33350  0.37900  1.0000 0.0709716876
H   H70       1.0  0.62100  0.66650  0.87770  1.0000 0.0709716876
H   H71       1.0  0.87770  0.62100  0.66650  1.0000 0.0709716876
H   H72       1.0  0.66650  0.87770  0.62100  1.0000 0.0709716876
H   H73       1.0  0.72830  0.72830  0.86250  1.0000 0.1117282902
H   H74       1.0  0.72830  0.86250  0.72830  1.0000 0.1117282902
H   H75       1.0  0.86250  0.72830  0.72830  1.0000 0.1117282902
H   H76       1.0  0.27170  0.27170  0.13750  1.0000 0.1117282902
H   H77       1.0  0.13750  0.27170  0.27170  1.0000 0.1117282902
H   H78       1.0  0.27170  0.13750  0.27170  1.0000 0.1117282902
H   H79       1.0  0.78970  0.74440  0.94400  1.0000 0.1163213623
H   H80       1.0  0.74440  0.94400  0.78970  1.0000 0.1117282902
H   H81       1.0  0.94400  0.78970  0.74440  1.0000 0.1163213623
H   H82       1.0  0.25560  0.21030  0.05600  1.0000 0.1163213623
H   H83       1.0  0.05600  0.25560  0.21030  1.0000 0.1163213623
H   H84       1.0  0.21030  0.05600  0.25560  1.0000 0.1163213623
H   H85       1.0  0.21030  0.25560  0.05600  1.0000 0.1163213623
H   H86       1.0  0.25560  0.05600  0.21030  1.0000 0.1163213623
H   H87       1.0  0.05600  0.21030  0.25560  1.0000 0.1163213623
H   H88       1.0  0.74440  0.78970  0.94400  1.0000 0.1163213623
H   H89       1.0  0.94400  0.74440  0.78970  1.0000 0.1163213623
H   H90       1.0  0.78970  0.94400  0.74440  1.0000 0.1163213623
C   C1        1.0  0.52498  0.89228  0.99334  1.0000 0.5814200304
C   C2        1.0  0.89228  0.99334  0.52498  1.0000 0.5814200304
C   C3        1.0  0.99334  0.52498  0.89228  1.0000 0.5814200304
C   C4        1.0  0.10772  0.47502  0.00666  1.0000 0.5814200304
C   C5        1.0  0.00666  0.10772  0.47502  1.0000 0.5814200304
C   C6        1.0  0.47502  0.00666  0.10772  1.0000 0.5814200304
C   C7        1.0  0.47502  0.10772  0.00666  1.0000 0.5814200304
C   C8        1.0  0.10772  0.00666  0.47502  1.0000 0.5814200304
C   C9        1.0  0.00666  0.47502  0.10772  1.0000 0.5814200304
C   C10       1.0  0.89228  0.52498  0.99334  1.0000 0.5814200304
C   C11       1.0  0.99334  0.89228  0.52498  1.0000 0.5814200304
C   C12       1.0  0.52498  0.99334  0.89228  1.0000 0.5814200304
C   C13       1.0  0.53931  0.82789  0.98934  1.0000 -0.0326643828
C   C14       1.0  0.82789  0.98934  0.53931  1.0000 -0.0326643828
C   C15       1.0  0.98934  0.53931  0.82789  1.0000 -0.0326643828
C   C16       1.0  0.17211  0.46069  0.01066  1.0000 -0.0326643828
C   C17       1.0  0.01066  0.17211  0.46069  1.0000 -0.0326643828
C   C18       1.0  0.46069  0.01066  0.17211  1.0000 -0.0326643828
C   C19       1.0  0.46069  0.17211  0.01066  1.0000 -0.0326643828
C   C20       1.0  0.17211  0.01066  0.46069  1.0000 -0.0326643828
C   C21       1.0  0.01066  0.46069  0.17211  1.0000 -0.0326643828
C   C22       1.0  0.82789  0.53931  0.98934  1.0000 -0.0326643828
C   C23       1.0  0.98934  0.82789  0.53931  1.0000 -0.0326643828
C   C24       1.0  0.53931  0.98934  0.82789  1.0000 -0.0326643828
C   C25       1.0  0.61502  0.84689  0.03770  1.0000 -0.0881641988
C   C26       1.0  0.84689  0.03770  0.61502  1.0000 -0.0881641988
C   C27       1.0  0.03770  0.61502  0.84689  1.0000 -0.0881641988
C   C28       1.0  0.15311  0.38498  0.96230  1.0000 -0.0881641988
C   C29       1.0  0.96230  0.15311  0.38498  1.0000 -0.0881641988
C   C30       1.0  0.38498  0.96230  0.15311  1.0000 -0.0881641988
C   C31       1.0  0.38498  0.15311  0.96230  1.0000 -0.0881641988
C   C32       1.0  0.15311  0.96230  0.38498  1.0000 -0.0881641988
C   C33       1.0  0.96230  0.38498  0.15311  1.0000 -0.0881641988
C   C34       1.0  0.84689  0.61502  0.03770  1.0000 -0.0881641988
C   C35       1.0  0.03770  0.84689  0.61502  1.0000 -0.0881641988
C   C36       1.0  0.61502  0.03770  0.84689  1.0000 -0.0881641988
C   C37       1.0  0.62772  0.78735  0.03579  1.0000 -0.1541468737
C   C38       1.0  0.78735  0.03579  0.62772  1.0000 -0.1556954936
C   C39       1.0  0.03579  0.62772  0.78735  1.0000 -0.1556954936
C   C40       1.0  0.21265  0.37228  0.96421  1.0000 -0.1556954936
C   C41       1.0  0.96421  0.21265  0.37228  1.0000 -0.1541468737
C   C42       1.0  0.37228  0.96421  0.21265  1.0000 -0.1556954936
C   C43       1.0  0.37228  0.21265  0.96421  1.0000 -0.1556954936
C   C44       1.0  0.21265  0.96421  0.37228  1.0000 -0.1556954936
C   C45       1.0  0.96421  0.37228  0.21265  1.0000 -0.1541468737
C   C46       1.0  0.78735  0.62772  0.03579  1.0000 -0.1541468737
C   C47       1.0  0.03579  0.78735  0.62772  1.0000 -0.1556954936
C   C48       1.0  0.62772  0.03579  0.78735  1.0000 -0.1556954936
C   C49       1.0  0.56543  0.70904  0.98682  1.0000 0.0942511173
C   C50       1.0  0.70904  0.98682  0.56543  1.0000 0.0960837776
C   C51       1.0  0.98682  0.56543  0.70904  1.0000 0.0960837776
C   C52       1.0  0.29096  0.43457  0.01318  1.0000 0.0960837776
C   C53       1.0  0.01318  0.29096  0.43457  1.0000 0.0942511173
C   C54       1.0  0.43457  0.01318  0.29096  1.0000 0.0960837776
C   C55       1.0  0.43457  0.29096  0.01318  1.0000 0.0960837776
C   C56       1.0  0.29096  0.01318  0.43457  1.0000 0.0960837776
C   C57       1.0  0.01318  0.43457  0.29096  1.0000 0.0960837776
C   C58       1.0  0.70904  0.56543  0.98682  1.0000 0.0942511173
C   C59       1.0  0.98682  0.70904  0.56543  1.0000 0.0960837776
C   C60       1.0  0.56543  0.98682  0.70904  1.0000 0.0942511173
C   C61       1.0  0.48949  0.69017  0.93625  1.0000 -0.1668981599
C   C62       1.0  0.69017  0.93625  0.48949  1.0000 -0.1668981599
C   C63       1.0  0.93625  0.48949  0.69017  1.0000 -0.1668981599
C   C64       1.0  0.30983  0.51051  0.06375  1.0000 -0.1668981599
C   C65       1.0  0.06375  0.30983  0.51051  1.0000 -0.1668981599
C   C66       1.0  0.51051  0.06375  0.30983  1.0000 -0.1668981599
C   C67       1.0  0.51051  0.30983  0.06375  1.0000 -0.1668981599
C   C68       1.0  0.30983  0.06375  0.51051  1.0000 -0.1668981599
C   C69       1.0  0.06375  0.51051  0.30983  1.0000 -0.1668981599
C   C70       1.0  0.69017  0.48949  0.93625  1.0000 -0.1668981599
C   C71       1.0  0.93625  0.69017  0.48949  1.0000 -0.1668981599
C   C72       1.0  0.48949  0.93625  0.69017  1.0000 -0.1668981599
C   C73       1.0  0.47717  0.75007  0.93946  1.0000 -0.0881641988
C   C74       1.0  0.75007  0.93946  0.47717  1.0000 -0.0881641988
C   C75       1.0  0.93946  0.47717  0.75007  1.0000 -0.0881641988
C   C76       1.0  0.24993  0.52283  0.06054  1.0000 -0.0881641988
C   C77       1.0  0.06054  0.24993  0.52283  1.0000 -0.0881641988
C   C78       1.0  0.52283  0.06054  0.24993  1.0000 -0.0881641988
C   C79       1.0  0.52283  0.24993  0.06054  1.0000 -0.0881641988
C   C80       1.0  0.24993  0.06054  0.52283  1.0000 -0.0881641988
C   C81       1.0  0.06054  0.52283  0.24993  1.0000 -0.0881641988
C   C82       1.0  0.75007  0.47717  0.93946  1.0000 -0.0881641988
C   C83       1.0  0.93946  0.75007  0.47717  1.0000 -0.0881641988
C   C84       1.0  0.47717  0.93946  0.75007  1.0000 -0.0881641988
C   C85       1.0  0.57581  0.64458  0.98930  1.0000 -0.0211246276
C   C86       1.0  0.64458  0.98930  0.57581  1.0000 -0.0211246276
C   C87       1.0  0.98930  0.57581  0.64458  1.0000 -0.0211246276
C   C88       1.0  0.35542  0.42419  0.01070  1.0000 -0.0211246276
C   C89       1.0  0.01070  0.35542  0.42419  1.0000 -0.0211246276
C   C90       1.0  0.42419  0.01070  0.35542  1.0000 -0.0211246276
C   C91       1.0  0.42419  0.35542  0.01070  1.0000 -0.0211246276
C   C92       1.0  0.35542  0.01070  0.42419  1.0000 -0.0211246276
C   C93       1.0  0.01070  0.42419  0.35542  1.0000 -0.0211246276
C   C94       1.0  0.64458  0.57581  0.98930  1.0000 -0.0211246276
C   C95       1.0  0.98930  0.64458  0.57581  1.0000 -0.0211246276
C   C96       1.0  0.57581  0.98930  0.64458  1.0000 -0.0211246276
C   C97       1.0  0.52248  0.58972  0.99294  1.0000 -0.1901064974
C   C98       1.0  0.58972  0.99294  0.52248  1.0000 -0.1901064974
C   C99       1.0  0.99294  0.52248  0.58972  1.0000 -0.1901064974
C   C100      1.0  0.41028  0.47752  0.00706  1.0000 -0.1901064974
C   C101      1.0  0.00706  0.41028  0.47752  1.0000 -0.1901064974
C   C102      1.0  0.47752  0.00706  0.41028  1.0000 -0.1901064974
C   C103      1.0  0.47752  0.41028  0.00706  1.0000 -0.1901064974
C   C104      1.0  0.41028  0.00706  0.47752  1.0000 -0.1901064974
C   C105      1.0  0.00706  0.47752  0.41028  1.0000 -0.1901064974
C   C106      1.0  0.58972  0.52248  0.99294  1.0000 -0.1901064974
C   C107      1.0  0.99294  0.58972  0.52248  1.0000 -0.1901064974
C   C108      1.0  0.52248  0.99294  0.58972  1.0000 -0.1901064974
C   C109      1.0  0.52767  0.52767  0.99587  1.0000 0.0709716876
C   C110      1.0  0.52767  0.99587  0.52767  1.0000 0.0709716876
C   C111      1.0  0.99587  0.52767  0.52767  1.0000 0.0709716876
C   C112      1.0  0.47233  0.47233  0.00413  1.0000 0.0709716876
C   C113      1.0  0.00413  0.47233  0.47234  1.0000 0.0709716876
C   C114      1.0  0.47233  0.00413  0.47234  1.0000 0.0709716876
C   C115      1.0  0.63838  0.63838  0.98785  1.0000 0.1660508158
C   C116      1.0  0.63838  0.98785  0.63838  1.0000 0.1660508158
C   C117      1.0  0.98785  0.63838  0.63838  1.0000 0.1660508158
C   C118      1.0  0.36162  0.36162  0.01215  1.0000 0.1660508158
C   C119      1.0  0.01215  0.36162  0.36162  1.0000 0.1649470093
C   C120      1.0  0.36162  0.01215  0.36162  1.0000 0.1660508158
C   C121      1.0  0.67174  0.67174  0.90662  1.0000 0.0250945135
C   C122      1.0  0.67174  0.90662  0.67174  1.0000 0.0239650118
C   C123      1.0  0.90662  0.67174  0.67174  1.0000 0.0239650118
C   C124      1.0  0.32826  0.32826  0.09338  1.0000 0.0239650118
C   C125      1.0  0.09338  0.32826  0.32826  1.0000 0.0239650118
C   C126      1.0  0.32826  0.09338  0.32826  1.0000 0.0239650118
C   C127      1.0  0.73990  0.73990  0.91520  1.0000 -0.3924632159
C   C128      1.0  0.73990  0.91520  0.73990  1.0000 -0.3924632159
C   C129      1.0  0.91520  0.73990  0.73990  1.0000 -0.3924632159
C   C130      1.0  0.26010  0.26010  0.08480  1.0000 -0.3924632159
C   C131      1.0  0.08480  0.26010  0.26010  1.0000 -0.3924632159
C   C132      1.0  0.26010  0.08480  0.26010  1.0000 -0.3924632159
O   O1        1.0  0.45488  0.87145  0.94948  1.0000 -0.5205857493
O   O2        1.0  0.87145  0.94948  0.45488  1.0000 -0.5205857493
O   O3        1.0  0.94948  0.45488  0.87145  1.0000 -0.5205857493
O   O4        1.0  0.12855  0.54512  0.05052  1.0000 -0.5205857493
O   O5        1.0  0.05052  0.12855  0.54512  1.0000 -0.5205857493
O   O6        1.0  0.54512  0.05052  0.12855  1.0000 -0.5205857493
O   O7        1.0  0.54512  0.12855  0.05052  1.0000 -0.5205857493
O   O8        1.0  0.12855  0.05052  0.54512  1.0000 -0.5205857493
O   O9        1.0  0.05052  0.54512  0.12855  1.0000 -0.5205857493
O   O10       1.0  0.87145  0.45488  0.94948  1.0000 -0.5205857493
O   O11       1.0  0.94948  0.87145  0.45488  1.0000 -0.5205857493
O   O12       1.0  0.45488  0.94948  0.87145  1.0000 -0.5205857493
O   O13       1.0  0.58411  0.96224  0.04020  1.0000 -0.5205857493
O   O14       1.0  0.96224  0.04020  0.58411  1.0000 -0.5205857493
O   O15       1.0  0.04020  0.58411  0.96224  1.0000 -0.5205857493
O   O16       1.0  0.03776  0.41589  0.95980  1.0000 -0.5205857493
O   O17       1.0  0.95980  0.03776  0.41589  1.0000 -0.5205857493
O   O18       1.0  0.41589  0.95980  0.03776  1.0000 -0.5205857493
O   O19       1.0  0.41589  0.03776  0.95980  1.0000 -0.5205857493
O   O20       1.0  0.03776  0.95980  0.41589  1.0000 -0.5205857493
O   O21       1.0  0.95980  0.41589  0.03776  1.0000 -0.5205857493
O   O22       1.0  0.96224  0.58411  0.04020  1.0000 -0.5205857493
O   O23       1.0  0.04020  0.96224  0.58411  1.0000 -0.5205857493
O   O24       1.0  0.58411  0.04020  0.96224  1.0000 -0.5205857493
O   O25       1.0  0.69233  0.69233  0.98373  1.0000 -0.2200266433
O   O26       1.0  0.69233  0.98373  0.69233  1.0000 -0.2200266433
O   O27       1.0  0.98373  0.69233  0.69233  1.0000 -0.2200266433
O   O28       1.0  0.30767  0.30767  0.01627  1.0000 -0.2200266433
O   O29       1.0  0.01627  0.30767  0.30767  1.0000 -0.2200266433
O   O30       1.0  0.30767  0.01627  0.30767  1.0000 -0.2200266433
