# DDEC6 charges by PACMAN v1.1 (https://github.com/mtap-research/PACMAN-charge/)
data_2016[CuLa][nan]3[ASR]1
_chemical_formula_sum              "La2 Cu8 H48 C72 I8 N6 O12"
_cell_length_a       9.776
_cell_length_b       16.337
_cell_length_c       21.534
_cell_angle_alpha    103.82
_cell_angle_beta     100.74
_cell_angle_gamma    95.87

_symmetry_space_group_name_H-M    "P 1"
_symmetry_Int_Tables_number       1

loop_
  _symmetry_equiv_pos_as_xyz
  'x, y, z'

loop_
  _atom_site_type_symbol
  _atom_site_label
  _atom_site_symmetry_multiplicity
  _atom_site_fract_x
  _atom_site_fract_y
  _atom_site_fract_z
  _atom_site_occupancy
  _atom_site_charge
La  La1       1.0  0.27874  0.52002  0.99834  1.0000 1.9372975591
La  La2       1.0  0.72126  0.47998  0.00166  1.0000 1.9342535499
Cu  Cu1       1.0  0.01122  0.94095  0.53717  1.0000 0.1438208285
Cu  Cu2       1.0  0.98878  0.05905  0.46283  1.0000 0.1438208285
Cu  Cu3       1.0  0.75150  0.82579  0.49858  1.0000 0.1438208285
Cu  Cu4       1.0  0.24850  0.17421  0.50142  1.0000 0.1438208285
Cu  Cu5       1.0  0.81525  0.94112  0.61767  1.0000 0.1607114587
Cu  Cu6       1.0  0.18475  0.05888  0.38233  1.0000 0.1607114587
Cu  Cu7       1.0  0.95984  0.81265  0.59212  1.0000 0.1438208285
Cu  Cu8       1.0  0.04016  0.18735  0.40788  1.0000 0.1438208285
H   H1        1.0  0.44790  0.83430  0.46830  1.0000 0.1024444961
H   H2        1.0  0.55210  0.16570  0.53170  1.0000 0.1024444961
H   H3        1.0  0.24150  0.76080  0.39810  1.0000 0.1279303196
H   H4        1.0  0.75850  0.23920  0.60190  1.0000 0.1279303196
H   H5        1.0  0.46650  0.60350  0.30320  1.0000 0.1279303196
H   H6        1.0  0.53350  0.39650  0.69680  1.0000 0.1279303196
H   H7        1.0  0.66667  0.67740  0.37940  1.0000 0.1024444961
H   H8        1.0  0.33333  0.32260  0.62060  1.0000 0.1024444961
H   H9        1.0  0.26700  0.61520  0.21210  1.0000 0.1193625833
H   H10       1.0  0.73300  0.38480  0.78790  1.0000 0.1193625833
H   H11       1.0  0.86770  0.50070  0.18080  1.0000 0.1193625833
H   H12       1.0  0.13230  0.49930  0.81920  1.0000 0.1193625833
H   H13       1.0  0.87660  0.54290  0.29230  1.0000 0.1193625833
H   H14       1.0  0.12340  0.45710  0.70770  1.0000 0.1193625833
H   H15       1.0  0.07600  0.62310  0.36220  1.0000 0.1193625833
H   H16       1.0  0.92400  0.37690  0.63780  1.0000 0.1193625833
H   H17       1.0  0.85000  0.11280  0.71950  1.0000 0.1105955203
H   H18       1.0  0.15000  0.88720  0.28050  1.0000 0.1105955203
H   H19       1.0  0.71600  0.20430  0.76460  1.0000 0.1279303196
H   H20       1.0  0.28400  0.79570  0.23540  1.0000 0.1279303196
H   H21       1.0  0.37640  0.03630  0.65890  1.0000 0.1279303196
H   H22       1.0  0.62360  0.96370  0.34110  1.0000 0.1279303196
H   H23       1.0  0.52400  0.94980  0.61920  1.0000 0.1024444961
H   H24       1.0  0.47600  0.05020  0.38080  1.0000 0.1024444961
H   H25       1.0  0.55940  0.25120  0.82820  1.0000 0.1193625833
H   H26       1.0  0.44060  0.74880  0.17180  1.0000 0.1193625833
H   H27       1.0  0.18240  0.32850  0.80690  1.0000 0.1105955203
H   H28       1.0  0.81760  0.67150  0.19310  1.0000 0.1105955203
H   H29       1.0  0.11390  0.23340  0.70200  1.0000 0.1105955203
H   H30       1.0  0.88610  0.76660  0.29800  1.0000 0.1105955203
H   H31       1.0  0.26960  0.15040  0.66330  1.0000 0.1105955203
H   H32       1.0  0.73040  0.84960  0.33670  1.0000 0.1105955203
H   H33       1.0  0.25470  0.79570  0.60460  1.0000 0.1105955203
H   H34       1.0  0.74530  0.20430  0.39540  1.0000 0.1105955203
H   H35       1.0  0.42810  0.73780  0.65900  1.0000 0.1279303196
H   H36       1.0  0.57190  0.26220  0.34100  1.0000 0.1279303196
H   H37       1.0  0.13150  0.62840  0.73090  1.0000 0.1279303196
H   H38       1.0  0.86850  0.37160  0.26910  1.0000 0.1279303196
H   H39       1.0  0.97150  0.68640  0.67320  1.0000 0.1105955203
H   H40       1.0  0.02850  0.31360  0.32680  1.0000 0.1105955203
H   H41       1.0  0.31250  0.63410  0.81560  1.0000 0.1193625833
H   H42       1.0  0.68750  0.36590  0.18440  1.0000 0.1193625833
H   H43       1.0  0.68830  0.55790  0.84390  1.0000 0.1193625833
H   H44       1.0  0.31170  0.44210  0.15610  1.0000 0.1193625833
H   H45       1.0  0.71190  0.57350  0.74070  1.0000 0.1193625833
H   H46       1.0  0.28810  0.42650  0.25930  1.0000 0.1193625833
H   H47       1.0  0.54400  0.62920  0.68000  1.0000 0.1193625833
H   H48       1.0  0.45600  0.37080  0.32000  1.0000 0.1193625833
C   C1        1.0  0.45160  0.78650  0.43530  1.0000 0.0888926971
C   C2        1.0  0.54840  0.21350  0.56470  1.0000 0.0888926971
C   C3        1.0  0.32680  0.74280  0.39270  1.0000 -0.1904651944
C   C4        1.0  0.67320  0.25720  0.60730  1.0000 -0.1904651944
C   C5        1.0  0.32900  0.67380  0.34300  1.0000 0.1105955203
C   C6        1.0  0.67100  0.32620  0.65700  1.0000 0.1105955203
C   C7        1.0  0.45980  0.64940  0.33710  1.0000 -0.1904651944
C   C8        1.0  0.54020  0.35060  0.66290  1.0000 -0.1904651944
C   C9        1.0  0.58000  0.69490  0.38260  1.0000 0.077941722
C   C10       1.0  0.42000  0.30510  0.61740  1.0000 0.077941722
C   C11       1.0  0.19930  0.62620  0.29680  1.0000 0.0579357428
C   C12       1.0  0.80070  0.37380  0.70320  1.0000 0.0579357428
C   C13       1.0  0.18920  0.60090  0.22870  1.0000 -0.1627943304
C   C14       1.0  0.81080  0.39910  0.77130  1.0000 -0.1627943304
C   C15       1.0  0.06690  0.55540  0.18550  1.0000 -0.0241955307
C   C16       1.0  0.93310  0.44460  0.81450  1.0000 -0.0241955307
C   C17       1.0  0.94920  0.53260  0.20950  1.0000 -0.1199236822
C   C18       1.0  0.05080  0.46740  0.79050  1.0000 -0.1199236822
C   C19       1.0  0.95450  0.55770  0.27600  1.0000 -0.0999399733
C   C20       1.0  0.04550  0.44230  0.72400  1.0000 -0.0999399733
C   C21       1.0  0.07560  0.60470  0.31790  1.0000 -0.1414150086
C   C22       1.0  0.92440  0.39530  0.68210  1.0000 -0.1414150086
C   C23       1.0  0.05810  0.53100  0.11230  1.0000 0.6140176717
C   C24       1.0  0.94190  0.46900  0.88770  1.0000 0.6140176717
C   C25       1.0  0.75260  0.09710  0.70710  1.0000 0.0680131752
C   C26       1.0  0.24740  0.90290  0.29290  1.0000 0.0680131752
C   C27       1.0  0.67290  0.15330  0.73420  1.0000 -0.2020450395
C   C28       1.0  0.32710  0.84670  0.26580  1.0000 -0.2020450395
C   C29       1.0  0.52650  0.13420  0.71630  1.0000 0.1193625833
C   C30       1.0  0.47350  0.86580  0.28370  1.0000 0.1193625833
C   C31       1.0  0.47320  0.05410  0.67210  1.0000 -0.1904651944
C   C32       1.0  0.52680  0.94590  0.32790  1.0000 -0.1904651944
C   C33       1.0  0.56340  0.00220  0.64850  1.0000 0.077941722
C   C34       1.0  0.43660  0.99780  0.35150  1.0000 0.077941722
C   C35       1.0  0.43010  0.19130  0.74250  1.0000 0.0579357428
C   C36       1.0  0.56990  0.80870  0.25750  1.0000 0.0579357428
C   C37       1.0  0.46950  0.24760  0.80300  1.0000 -0.1414150086
C   C38       1.0  0.53050  0.75240  0.19700  1.0000 -0.1414150086
C   C39       1.0  0.37680  0.30000  0.82780  1.0000 -0.048906469
C   C40       1.0  0.62320  0.70000  0.17220  1.0000 -0.048906469
C   C41       1.0  0.24500  0.29440  0.79060  1.0000 -0.0999399733
C   C42       1.0  0.75500  0.70560  0.20940  1.0000 -0.0999399733
C   C43       1.0  0.20330  0.23720  0.72760  1.0000 -0.0917678561
C   C44       1.0  0.79670  0.76280  0.27240  1.0000 -0.0917678561
C   C45       1.0  0.29620  0.18780  0.70500  1.0000 -0.1199236822
C   C46       1.0  0.70380  0.81220  0.29500  1.0000 -0.1199236822
C   C47       1.0  0.41640  0.35920  0.89360  1.0000 0.6186945203
C   C48       1.0  0.58360  0.64080  0.10640  1.0000 0.6186945203
C   C49       1.0  0.22970  0.76090  0.63040  1.0000 0.077941722
C   C50       1.0  0.77030  0.23910  0.36960  1.0000 0.077941722
C   C51       1.0  0.33580  0.72640  0.66350  1.0000 -0.1904651944
C   C52       1.0  0.66420  0.27360  0.33650  1.0000 -0.1904651944
C   C53       1.0  0.30290  0.67430  0.70360  1.0000 0.1105955203
C   C54       1.0  0.69710  0.32570  0.29640  1.0000 0.1105955203
C   C55       1.0  0.16140  0.66210  0.70520  1.0000 -0.2020450395
C   C56       1.0  0.83860  0.33790  0.29480  1.0000 -0.2020450395
C   C57       1.0  0.06510  0.69770  0.67060  1.0000 0.0680131752
C   C58       1.0  0.93490  0.30230  0.32940  1.0000 0.0680131752
C   C59       1.0  0.41170  0.63940  0.74190  1.0000 0.0579357428
C   C60       1.0  0.58830  0.36060  0.25810  1.0000 0.0579357428
C   C61       1.0  0.39440  0.62300  0.80120  1.0000 -0.1414150086
C   C62       1.0  0.60560  0.37700  0.19880  1.0000 -0.1414150086
C   C63       1.0  0.49380  0.59110  0.83890  1.0000 -0.0311759843
C   C64       1.0  0.50620  0.40890  0.16110  1.0000 -0.0311759843
C   C65       1.0  0.61670  0.57580  0.81780  1.0000 -0.1095224854
C   C66       1.0  0.38330  0.42420  0.18220  1.0000 -0.1095224854
C   C67       1.0  0.63270  0.58770  0.75640  1.0000 -0.0999399733
C   C68       1.0  0.36730  0.41230  0.24360  1.0000 -0.0999399733
C   C69       1.0  0.53160  0.62020  0.71980  1.0000 -0.1312883731
C   C70       1.0  0.46840  0.37980  0.28020  1.0000 -0.1312883731
C   C71       1.0  0.46880  0.57370  0.90110  1.0000 0.6140176717
C   C72       1.0  0.53120  0.42630  0.09890  1.0000 0.6140176717
I   I1        1.0  0.76244  0.99304  0.49955  1.0000 -0.2530244005
I   I2        1.0  0.23756  0.00696  0.50045  1.0000 -0.2530244005
I   I3        1.0  0.98235  0.77672  0.46579  1.0000 -0.2921007958
I   I4        1.0  0.01765  0.22328  0.53421  1.0000 -0.2921007958
I   I5        1.0  0.08137  0.97505  0.66816  1.0000 -0.2611121771
I   I6        1.0  0.91863  0.02495  0.33184  1.0000 -0.2611121771
I   I7        1.0  0.69872  0.78220  0.60712  1.0000 -0.3374789443
I   I8        1.0  0.30128  0.21780  0.39288  1.0000 -0.3374789443
N   N1        1.0  0.57570  0.76280  0.43080  1.0000 -0.1713018504
N   N2        1.0  0.42430  0.23720  0.56920  1.0000 -0.1713018504
N   N3        1.0  0.70300  0.02120  0.66430  1.0000 -0.178050102
N   N4        1.0  0.29700  0.97880  0.33570  1.0000 -0.178050102
N   N5        1.0  0.09580  0.74730  0.63340  1.0000 -0.1713018504
N   N6        1.0  0.90420  0.25270  0.36660  1.0000 -0.1713018504
O   O1        1.0  0.17020  0.55490  0.09420  1.0000 -0.6589914795
O   O2        1.0  0.82980  0.44510  0.90580  1.0000 -0.6589914795
O   O3        1.0  0.94900  0.48970  0.07620  1.0000 -0.6028630174
O   O4        1.0  0.05100  0.51030  0.92380  1.0000 -0.6058992979
O   O5        1.0  0.54150  0.36410  0.92680  1.0000 -0.6307120112
O   O6        1.0  0.45850  0.63590  0.07320  1.0000 -0.6307120112
O   O7        1.0  0.32790  0.40180  0.91500  1.0000 -0.6307120112
O   O8        1.0  0.67210  0.59820  0.08500  1.0000 -0.6307120112
O   O9        1.0  0.35300  0.58790  0.91530  1.0000 -0.6028630174
O   O10       1.0  0.64700  0.41210  0.08470  1.0000 -0.6028630174
O   O11       1.0  0.56150  0.54750  0.93560  1.0000 -0.6389922139
O   O12       1.0  0.43850  0.45250  0.06440  1.0000 -0.6389922139
