# DDEC6 charges by PACMAN v1.1 (https://github.com/mtap-research/PACMAN-charge/)
data_2016[PrCu][nan]3[ASR]1
_chemical_formula_sum              "Pr4 Cu16 H48 C72 I16 N12 O24"
_cell_length_a       15.289
_cell_length_b       8.168
_cell_length_c       30.1773
_cell_angle_alpha    90
_cell_angle_beta     109.216
_cell_angle_gamma    90

_symmetry_space_group_name_H-M    "P 1"
_symmetry_Int_Tables_number       1

loop_
  _symmetry_equiv_pos_as_xyz
  'x, y, z'

loop_
  _atom_site_type_symbol
  _atom_site_label
  _atom_site_symmetry_multiplicity
  _atom_site_fract_x
  _atom_site_fract_y
  _atom_site_fract_z
  _atom_site_occupancy
  _atom_site_charge
Pr  Pr1       1.0  0.53836  0.25071  0.98819  1.0000 2.1211901889
Pr  Pr2       1.0  0.46164  0.75071  0.51181  1.0000 2.1211901889
Pr  Pr3       1.0  0.46164  0.74929  0.01181  1.0000 2.1211901889
Pr  Pr4       1.0  0.53836  0.24929  0.48819  1.0000 2.1211901889
Cu  Cu1       1.0  0.82827  0.56998  0.82984  1.0000 0.1391398222
Cu  Cu2       1.0  0.17173  0.06998  0.67016  1.0000 0.1391398222
Cu  Cu3       1.0  0.17173  0.43002  0.17016  1.0000 0.1391398222
Cu  Cu4       1.0  0.82827  0.93002  0.32984  1.0000 0.1391398222
Cu  Cu5       1.0  0.93094  0.70179  0.78585  1.0000 0.1582164043
Cu  Cu6       1.0  0.06906  0.20179  0.71415  1.0000 0.1582164043
Cu  Cu7       1.0  0.06906  0.29821  0.21415  1.0000 0.1582164043
Cu  Cu8       1.0  0.93094  0.79821  0.28585  1.0000 0.1582164043
Cu  Cu9       1.0  0.17454  0.92063  0.74951  1.0000 0.1391398222
Cu  Cu10      1.0  0.82546  0.42063  0.75049  1.0000 0.1391398222
Cu  Cu11      1.0  0.82546  0.07937  0.25049  1.0000 0.1391398222
Cu  Cu12      1.0  0.17454  0.57937  0.24951  1.0000 0.1391398222
Cu  Cu13      1.0  0.02814  0.89653  0.67567  1.0000 0.1496949108
Cu  Cu14      1.0  0.97186  0.39653  0.82433  1.0000 0.1496949108
Cu  Cu15      1.0  0.97186  0.10347  0.32433  1.0000 0.1496949108
Cu  Cu16      1.0  0.02814  0.60347  0.17567  1.0000 0.1496949108
H   H1        1.0  0.20350  0.10480  0.13480  1.0000 0.1073671622
H   H2        1.0  0.79650  0.60480  0.36520  1.0000 0.1073671622
H   H3        1.0  0.79650  0.89520  0.86520  1.0000 0.1073671622
H   H4        1.0  0.20350  0.39520  0.63480  1.0000 0.1073671622
H   H5        1.0  0.29150  0.98080  0.09520  1.0000 0.1391398222
H   H6        1.0  0.70850  0.48080  0.40480  1.0000 0.1391398222
H   H7        1.0  0.70850  0.01920  0.90480  1.0000 0.1391398222
H   H8        1.0  0.29150  0.51920  0.59520  1.0000 0.1391398222
H   H9        1.0  0.41540  0.41480  0.09430  1.0000 0.1306803362
H   H10       1.0  0.58460  0.91480  0.40570  1.0000 0.1306803362
H   H11       1.0  0.58460  0.58520  0.90570  1.0000 0.1306803362
H   H12       1.0  0.41540  0.08520  0.59430  1.0000 0.1306803362
H   H13       1.0  0.32150  0.52710  0.13270  1.0000 0.1073671622
H   H14       1.0  0.67850  0.02710  0.36730  1.0000 0.1073671622
H   H15       1.0  0.67850  0.47290  0.86730  1.0000 0.1073671622
H   H16       1.0  0.32150  0.97290  0.63270  1.0000 0.1073671622
H   H17       1.0  0.34330  0.71280  0.77190  1.0000 0.0980654997
H   H18       1.0  0.65670  0.21280  0.72810  1.0000 0.0980654997
H   H19       1.0  0.65670  0.28720  0.22810  1.0000 0.0980654997
H   H20       1.0  0.34330  0.78720  0.27190  1.0000 0.0980654997
H   H21       1.0  0.43640  0.54990  0.83220  1.0000 0.1306803362
H   H22       1.0  0.56360  0.04990  0.66780  1.0000 0.1306803362
H   H23       1.0  0.56360  0.45010  0.16780  1.0000 0.1306803362
H   H24       1.0  0.43640  0.95010  0.33220  1.0000 0.1306803362
H   H25       1.0  0.26420  0.64030  0.90470  1.0000 0.1306803362
H   H26       1.0  0.73580  0.14030  0.59530  1.0000 0.1306803362
H   H27       1.0  0.73580  0.35970  0.09530  1.0000 0.1306803362
H   H28       1.0  0.26420  0.85970  0.40470  1.0000 0.1306803362
H   H29       1.0  0.17320  0.79730  0.84240  1.0000 0.0940169977
H   H30       1.0  0.82680  0.29730  0.65760  1.0000 0.0940169977
H   H31       1.0  0.82680  0.20270  0.15760  1.0000 0.0940169977
H   H32       1.0  0.17320  0.70270  0.34240  1.0000 0.0940169977
H   H33       1.0  0.98010  0.88480  0.10650  1.0000 0.1073671622
H   H34       1.0  0.01990  0.38480  0.39350  1.0000 0.1073671622
H   H35       1.0  0.01990  0.11520  0.89350  1.0000 0.1073671622
H   H36       1.0  0.98010  0.61520  0.60650  1.0000 0.1073671622
H   H37       1.0  0.85000  0.02360  0.06070  1.0000 0.1306803362
H   H38       1.0  0.15000  0.52360  0.43930  1.0000 0.1306803362
H   H39       1.0  0.15000  0.97640  0.93930  1.0000 0.1306803362
H   H40       1.0  0.85000  0.47640  0.56070  1.0000 0.1306803362
H   H41       1.0  0.69750  0.76320  0.12240  1.0000 0.1306803362
H   H42       1.0  0.30250  0.26320  0.37760  1.0000 0.1306803362
H   H43       1.0  0.30250  0.23680  0.87760  1.0000 0.1306803362
H   H44       1.0  0.69750  0.73680  0.62240  1.0000 0.1306803362
H   H45       1.0  0.83230  0.63080  0.16650  1.0000 0.0980654997
H   H46       1.0  0.16770  0.13080  0.33350  1.0000 0.0980654997
H   H47       1.0  0.16770  0.36920  0.83350  1.0000 0.0980654997
H   H48       1.0  0.83230  0.86920  0.66650  1.0000 0.0980654997
C   C1        1.0  0.24610  0.16990  0.12560  1.0000 0.0615850981
C   C2        1.0  0.75390  0.66990  0.37440  1.0000 0.0615850981
C   C3        1.0  0.75390  0.83010  0.87440  1.0000 0.0615850981
C   C4        1.0  0.24610  0.33010  0.62560  1.0000 0.0615850981
C   C5        1.0  0.29920  0.09430  0.10240  1.0000 -0.1426277703
C   C6        1.0  0.70080  0.59430  0.39760  1.0000 -0.1426277703
C   C7        1.0  0.70080  0.90570  0.89760  1.0000 -0.1426277703
C   C8        1.0  0.29920  0.40570  0.60240  1.0000 -0.1426277703
C   C9        1.0  0.36310  0.18400  0.08970  1.0000 0.0038673869
C   C10       1.0  0.63690  0.68400  0.41030  1.0000 0.0038673869
C   C11       1.0  0.63690  0.81600  0.91030  1.0000 0.0038673869
C   C12       1.0  0.36310  0.31600  0.58970  1.0000 0.0038673869
C   C13       1.0  0.37120  0.34810  0.10170  1.0000 -0.1494688383
C   C14       1.0  0.62880  0.84810  0.39830  1.0000 -0.1494688383
C   C15       1.0  0.62880  0.65190  0.89830  1.0000 -0.1494688383
C   C16       1.0  0.37120  0.15190  0.60170  1.0000 -0.1494688383
C   C17       1.0  0.31470  0.41430  0.12460  1.0000 0.0615850981
C   C18       1.0  0.68530  0.91430  0.37540  1.0000 0.0615850981
C   C19       1.0  0.68530  0.58570  0.87540  1.0000 0.0615850981
C   C20       1.0  0.31470  0.08570  0.62460  1.0000 0.0615850981
C   C21       1.0  0.42150  0.10920  0.06380  1.0000 0.6405413733
C   C22       1.0  0.57850  0.60920  0.43620  1.0000 0.6405413733
C   C23       1.0  0.57850  0.89080  0.93620  1.0000 0.6405413733
C   C24       1.0  0.42150  0.39080  0.56380  1.0000 0.6405413733
C   C25       1.0  0.32680  0.69830  0.79930  1.0000 0.0763559009
C   C26       1.0  0.67320  0.19830  0.70070  1.0000 0.0763559009
C   C27       1.0  0.67320  0.30170  0.20070  1.0000 0.0763559009
C   C28       1.0  0.32680  0.80170  0.29930  1.0000 0.0763559009
C   C29       1.0  0.38320  0.60180  0.83540  1.0000 -0.1494688383
C   C30       1.0  0.61680  0.10180  0.66460  1.0000 -0.1426277703
C   C31       1.0  0.61680  0.39820  0.16460  1.0000 -0.1426277703
C   C32       1.0  0.38320  0.89820  0.33540  1.0000 -0.1426277703
C   C33       1.0  0.36070  0.58210  0.87570  1.0000 0.0097658686
C   C34       1.0  0.63930  0.08210  0.62430  1.0000 0.0097658686
C   C35       1.0  0.63930  0.41790  0.12430  1.0000 0.0097658686
C   C36       1.0  0.36070  0.91790  0.37570  1.0000 0.0097658686
C   C37       1.0  0.28230  0.65410  0.87770  1.0000 -0.1426277703
C   C38       1.0  0.71770  0.15410  0.62230  1.0000 -0.1426277703
C   C39       1.0  0.71770  0.34590  0.12230  1.0000 -0.1426277703
C   C40       1.0  0.28230  0.84590  0.37770  1.0000 -0.1426277703
C   C41       1.0  0.22810  0.74820  0.84030  1.0000 0.0763559009
C   C42       1.0  0.77190  0.24820  0.65970  1.0000 0.0708216042
C   C43       1.0  0.77190  0.25180  0.15970  1.0000 0.0763559009
C   C44       1.0  0.22810  0.75180  0.34030  1.0000 0.0763559009
C   C45       1.0  0.42270  0.48040  0.91540  1.0000 0.5819341229
C   C46       1.0  0.57730  0.98040  0.58460  1.0000 0.5819341229
C   C47       1.0  0.57730  0.51960  0.08460  1.0000 0.5819341229
C   C48       1.0  0.42270  0.01960  0.41540  1.0000 0.5819341229
C   C49       1.0  0.92160  0.85800  0.10920  1.0000 0.0708216042
C   C50       1.0  0.07840  0.35800  0.39080  1.0000 0.0708216042
C   C51       1.0  0.07840  0.14200  0.89080  1.0000 0.0708216042
C   C52       1.0  0.92160  0.64200  0.60920  1.0000 0.0708216042
C   C53       1.0  0.84450  0.94090  0.08170  1.0000 -0.1494688383
C   C54       1.0  0.15550  0.44090  0.41830  1.0000 -0.1494688383
C   C55       1.0  0.15550  0.05910  0.91830  1.0000 -0.1494688383
C   C56       1.0  0.84450  0.55910  0.58170  1.0000 -0.1494688383
C   C57       1.0  0.75940  0.90250  0.08520  1.0000 0.0169007588
C   C58       1.0  0.24060  0.40250  0.41480  1.0000 0.0169007588
C   C59       1.0  0.24060  0.09750  0.91480  1.0000 0.0169007588
C   C60       1.0  0.75940  0.59750  0.58520  1.0000 0.0169007588
C   C61       1.0  0.75470  0.78800  0.11790  1.0000 -0.1494688383
C   C62       1.0  0.24530  0.28800  0.38210  1.0000 -0.1494688383
C   C63       1.0  0.24530  0.21200  0.88210  1.0000 -0.1494688383
C   C64       1.0  0.75470  0.71200  0.61790  1.0000 -0.1494688383
C   C65       1.0  0.83560  0.71030  0.14410  1.0000 0.0708216042
C   C66       1.0  0.16440  0.21030  0.35590  1.0000 0.0708216042
C   C67       1.0  0.16440  0.28970  0.85590  1.0000 0.0708216042
C   C68       1.0  0.83560  0.78970  0.64410  1.0000 0.0708216042
C   C69       1.0  0.67300  0.98620  0.05430  1.0000 0.6214053021
C   C70       1.0  0.32700  0.48620  0.44570  1.0000 0.6214053021
C   C71       1.0  0.32700  0.01380  0.94570  1.0000 0.6214053021
C   C72       1.0  0.67300  0.51380  0.55430  1.0000 0.6214053021
I   I1        1.0  0.00122  0.67954  0.87756  1.0000 -0.2880957481
I   I2        1.0  0.99878  0.17954  0.62244  1.0000 -0.2880957481
I   I3        1.0  0.99878  0.32046  0.12244  1.0000 -0.2880957481
I   I4        1.0  0.00122  0.82046  0.37756  1.0000 -0.2846903219
I   I5        1.0  0.75084  0.71975  0.74568  1.0000 -0.2735600783
I   I6        1.0  0.24916  0.21975  0.75432  1.0000 -0.2735600783
I   I7        1.0  0.24916  0.28025  0.25432  1.0000 -0.2735600783
I   I8        1.0  0.75084  0.78025  0.24568  1.0000 -0.2735600783
I   I9        1.0  0.00628  0.96087  0.75902  1.0000 -0.2147184922
I   I10       1.0  0.99372  0.46087  0.74098  1.0000 -0.2168591632
I   I11       1.0  0.99372  0.03913  0.24098  1.0000 -0.2168591632
I   I12       1.0  0.00628  0.53913  0.25902  1.0000 -0.2168591632
I   I13       1.0  0.18059  0.74941  0.67147  1.0000 -0.2880957481
I   I14       1.0  0.81941  0.24941  0.82853  1.0000 -0.2880957481
I   I15       1.0  0.81941  0.25059  0.32853  1.0000 -0.2880957481
I   I16       1.0  0.18059  0.75059  0.17147  1.0000 -0.2880957481
N   N1        1.0  0.25140  0.32830  0.13590  1.0000 -0.1579983
N   N2        1.0  0.74860  0.82830  0.36410  1.0000 -0.1579983
N   N3        1.0  0.74860  0.67170  0.86410  1.0000 -0.1579983
N   N4        1.0  0.25140  0.17170  0.63590  1.0000 -0.1579983
N   N5        1.0  0.25070  0.77160  0.80180  1.0000 -0.1579983
N   N6        1.0  0.74930  0.27160  0.69820  1.0000 -0.1579983
N   N7        1.0  0.74930  0.22840  0.19820  1.0000 -0.1579983
N   N8        1.0  0.25070  0.72840  0.30180  1.0000 -0.1579983
N   N9        1.0  0.91780  0.74080  0.13970  1.0000 -0.1579983
N   N10       1.0  0.08220  0.24080  0.36030  1.0000 -0.1579983
N   N11       1.0  0.08220  0.25920  0.86030  1.0000 -0.1579983
N   N12       1.0  0.91780  0.75920  0.63970  1.0000 -0.1579983
O   O1        1.0  0.41644  0.95790  0.05754  1.0000 -0.6498284652
O   O2        1.0  0.58356  0.45790  0.44246  1.0000 -0.6498284652
O   O3        1.0  0.58356  0.04210  0.94246  1.0000 -0.6498284652
O   O4        1.0  0.41644  0.54210  0.55754  1.0000 -0.6498284652
O   O5        1.0  0.47050  0.20680  0.04940  1.0000 -0.6783064021
O   O6        1.0  0.52950  0.70680  0.45060  1.0000 -0.6783064021
O   O7        1.0  0.52950  0.79320  0.95060  1.0000 -0.6783064021
O   O8        1.0  0.47050  0.29320  0.54940  1.0000 -0.6783064021
O   O9        1.0  0.47352  0.37470  0.90692  1.0000 -0.6004653289
O   O10       1.0  0.52648  0.87470  0.59308  1.0000 -0.6004653289
O   O11       1.0  0.52648  0.62530  0.09308  1.0000 -0.6004653289
O   O12       1.0  0.47352  0.12530  0.40692  1.0000 -0.6004653289
O   O13       1.0  0.42128  0.50590  0.95668  1.0000 -0.7277512266
O   O14       1.0  0.57872  0.00590  0.54332  1.0000 -0.7277512266
O   O15       1.0  0.57872  0.49410  0.04332  1.0000 -0.7277512266
O   O16       1.0  0.42128  0.99410  0.45668  1.0000 -0.7277512266
O   O17       1.0  0.68080  0.12590  0.03950  1.0000 -0.6371076716
O   O18       1.0  0.31920  0.62590  0.46050  1.0000 -0.6371076716
O   O19       1.0  0.31920  0.87410  0.96050  1.0000 -0.6371076716
O   O20       1.0  0.68080  0.37410  0.53950  1.0000 -0.6371076716
O   O21       1.0  0.59750  0.91230  0.04530  1.0000 -0.6920502796
O   O22       1.0  0.40250  0.41230  0.45470  1.0000 -0.6920502796
O   O23       1.0  0.40250  0.08770  0.95470  1.0000 -0.6920502796
O   O24       1.0  0.59750  0.58770  0.54530  1.0000 -0.6920502796
