# DDEC6 charges by PACMAN v1.1 (https://github.com/mtap-research/PACMAN-charge/)
data_2016[Cu][nan]3[ASR]6
_chemical_formula_sum              "Cu16 H112 C176 I8 N32 O32"
_cell_length_a       25.2427
_cell_length_b       25.2427
_cell_length_c       25.2427
_cell_angle_alpha    95.2752
_cell_angle_beta     95.2752
_cell_angle_gamma    144.698

_symmetry_space_group_name_H-M    "P 1"
_symmetry_Int_Tables_number       1

loop_
  _symmetry_equiv_pos_as_xyz
  'x, y, z'

loop_
  _atom_site_type_symbol
  _atom_site_label
  _atom_site_symmetry_multiplicity
  _atom_site_fract_x
  _atom_site_fract_y
  _atom_site_fract_z
  _atom_site_occupancy
  _atom_site_charge
Cu  Cu1       1.0  0.53596  0.78829  0.72465  1.0000 0.7682548837
Cu  Cu2       1.0  0.06364  0.81131  0.27535  1.0000 0.7682548837
Cu  Cu3       1.0  0.06131  0.28596  0.24767  1.0000 0.7682548837
Cu  Cu4       1.0  0.03829  0.81364  0.75233  1.0000 0.7682548837
Cu  Cu5       1.0  0.71404  0.96171  0.77535  1.0000 0.7682548837
Cu  Cu6       1.0  0.18636  0.93869  0.22465  1.0000 0.7682548837
Cu  Cu7       1.0  0.18869  0.46404  0.25233  1.0000 0.7682548837
Cu  Cu8       1.0  0.21171  0.93636  0.74767  1.0000 0.7682548837
Cu  Cu9       1.0  0.59121  0.87697  0.28286  1.0000 0.2114165482
Cu  Cu10      1.0  0.59411  0.30835  0.71714  1.0000 0.2114165482
Cu  Cu11      1.0  0.55835  0.34121  0.21424  1.0000 0.2114165482
Cu  Cu12      1.0  0.12697  0.34411  0.78576  1.0000 0.2114165482
Cu  Cu13      1.0  0.65879  0.87303  0.21714  1.0000 0.2114165482
Cu  Cu14      1.0  0.65589  0.44165  0.78286  1.0000 0.2114165482
Cu  Cu15      1.0  0.69165  0.40879  0.28576  1.0000 0.2114165482
Cu  Cu16      1.0  0.12303  0.40589  0.71424  1.0000 0.2114165482
H   H1        1.0  0.52870  0.81140  0.55970  1.0000 0.1189536187
H   H2        1.0  0.25170  0.96900  0.44030  1.0000 0.1189536187
H   H3        1.0  0.21900  0.27870  0.21730  1.0000 0.1189536187
H   H4        1.0  0.06140  0.00170  0.78270  1.0000 0.1189536187
H   H5        1.0  0.72130  0.93860  0.94030  1.0000 0.1189536187
H   H6        1.0  0.99830  0.78100  0.05970  1.0000 0.1189536187
H   H7        1.0  0.03100  0.47130  0.28270  1.0000 0.1189536187
H   H8        1.0  0.18860  0.74830  0.71730  1.0000 0.1189536187
H   H9        1.0  0.54290  0.85170  0.47680  1.0000 0.1189536187
H   H10       1.0  0.37490  0.06610  0.52320  1.0000 0.1189536187
H   H11       1.0  0.31610  0.29290  0.19120  1.0000 0.1189536187
H   H12       1.0  0.10170  0.12490  0.80880  1.0000 0.1189536187
H   H13       1.0  0.70710  0.89830  0.02320  1.0000 0.1189536187
H   H14       1.0  0.87510  0.68390  0.97680  1.0000 0.1189536187
H   H15       1.0  0.93390  0.45710  0.30880  1.0000 0.1189536187
H   H16       1.0  0.14830  0.62510  0.69120  1.0000 0.1189536187
H   H17       1.0  0.82250  0.11960  0.55230  1.0000 0.1120540963
H   H18       1.0  0.56730  0.27020  0.44770  1.0000 0.1120540963
H   H19       1.0  0.52020  0.57250  0.20290  1.0000 0.1120540963
H   H20       1.0  0.36960  0.31730  0.79710  1.0000 0.1120540963
H   H21       1.0  0.42750  0.63040  0.94770  1.0000 0.1120540963
H   H22       1.0  0.68270  0.47980  0.05230  1.0000 0.1120540963
H   H23       1.0  0.72980  0.17750  0.29710  1.0000 0.1120540963
H   H24       1.0  0.88040  0.43270  0.70290  1.0000 0.1120540963
H   H25       1.0  0.80830  0.07930  0.63520  1.0000 0.1303441537
H   H26       1.0  0.44410  0.17310  0.36480  1.0000 0.1303441537
H   H27       1.0  0.42310  0.55830  0.22900  1.0000 0.1303441537
H   H28       1.0  0.32930  0.19410  0.77100  1.0000 0.1303441537
H   H29       1.0  0.44170  0.67070  0.86480  1.0000 0.1303441537
H   H30       1.0  0.80590  0.57690  0.13520  1.0000 0.1303441537
H   H31       1.0  0.82690  0.19170  0.27100  1.0000 0.1303441537
H   H32       1.0  0.92070  0.55590  0.72900  1.0000 0.1303441537
H   H33       1.0  0.61710  0.89220  0.40390  1.0000 0.1120540963
H   H34       1.0  0.48830  0.21320  0.59610  1.0000 0.1120540963
H   H35       1.0  0.46320  0.36710  0.22490  1.0000 0.1120540963
H   H36       1.0  0.14220  0.23830  0.77510  1.0000 0.1120540963
H   H37       1.0  0.63290  0.85780  0.09610  1.0000 0.1120540963
H   H38       1.0  0.76170  0.53680  0.90390  1.0000 0.1120540963
H   H39       1.0  0.78680  0.38290  0.27510  1.0000 0.1120540963
H   H40       1.0  0.10780  0.51170  0.72490  1.0000 0.1120540963
H   H41       1.0  0.69750  0.07180  0.32190  1.0000 0.0881776059
H   H42       1.0  0.74990  0.37560  0.67810  1.0000 0.0881776059
H   H43       1.0  0.62560  0.44750  0.12570  1.0000 0.0881776059
H   H44       1.0  0.32180  0.49990  0.87430  1.0000 0.0881776059
H   H45       1.0  0.55250  0.67820  0.17810  1.0000 0.0881776059
H   H46       1.0  0.50010  0.37440  0.82190  1.0000 0.0881776059
H   H47       1.0  0.62440  0.30250  0.37430  1.0000 0.0881776059
H   H48       1.0  0.92820  0.25010  0.62570  1.0000 0.0881776059
H   H49       1.0  0.76710  0.14590  0.49020  1.0000 0.1120540963
H   H50       1.0  0.65570  0.27690  0.50980  1.0000 0.1120540963
H   H51       1.0  0.52690  0.51710  0.12120  1.0000 0.1120540963
H   H52       1.0  0.39590  0.40570  0.87880  1.0000 0.1120540963
H   H53       1.0  0.48290  0.60410  0.00980  1.0000 0.1120540963
H   H54       1.0  0.59430  0.47310  0.99020  1.0000 0.1120540963
H   H55       1.0  0.72310  0.23290  0.37880  1.0000 0.1120540963
H   H56       1.0  0.85410  0.34430  0.62120  1.0000 0.1120540963
H   H57       1.0  0.56540  0.64240  0.69960  1.0000 0.1303441537
H   H58       1.0  0.94280  0.86580  0.30040  1.0000 0.1303441537
H   H59       1.0  0.11580  0.31540  0.42300  1.0000 0.1303441537
H   H60       1.0  0.89240  0.69280  0.57700  1.0000 0.1303441537
H   H61       1.0  0.68460  0.10760  0.80040  1.0000 0.1303441537
H   H62       1.0  0.30720  0.88420  0.19960  1.0000 0.1303441537
H   H63       1.0  0.13420  0.43460  0.07700  1.0000 0.1303441537
H   H64       1.0  0.35760  0.05720  0.92300  1.0000 0.1303441537
H   H65       1.0  0.60760  0.58760  0.70380  1.0000 0.1189536187
H   H66       1.0  0.88380  0.90380  0.29620  1.0000 0.1189536187
H   H67       1.0  0.15380  0.35760  0.52000  1.0000 0.1189536187
H   H68       1.0  0.83760  0.63380  0.48000  1.0000 0.1189536187
H   H69       1.0  0.64240  0.16240  0.79620  1.0000 0.1189536187
H   H70       1.0  0.36620  0.84620  0.20380  1.0000 0.1189536187
H   H71       1.0  0.09620  0.39240  0.98000  1.0000 0.1189536187
H   H72       1.0  0.41240  0.11620  0.02000  1.0000 0.1189536187
H   H73       1.0  0.88170  0.85710  0.78680  1.0000 0.1120540963
H   H74       1.0  0.07030  0.09490  0.21320  1.0000 0.1120540963
H   H75       1.0  0.34490  0.63170  0.52460  1.0000 0.1120540963
H   H76       1.0  0.10710  0.82030  0.47540  1.0000 0.1120540963
H   H77       1.0  0.36830  0.89290  0.71320  1.0000 0.1120540963
H   H78       1.0  0.17970  0.65510  0.28680  1.0000 0.1120540963
H   H79       1.0  0.90510  0.11830  0.97540  1.0000 0.1120540963
H   H80       1.0  0.14290  0.92970  0.02460  1.0000 0.1120540963
H   H81       1.0  0.83940  0.91200  0.78260  1.0000 0.1303441537
H   H82       1.0  0.12940  0.05680  0.21740  1.0000 0.1303441537
H   H83       1.0  0.30680  0.58940  0.42740  1.0000 0.1303441537
H   H84       1.0  0.16200  0.87940  0.57260  1.0000 0.1303441537
H   H85       1.0  0.41060  0.83800  0.71740  1.0000 0.1303441537
H   H86       1.0  0.12060  0.69320  0.28260  1.0000 0.1303441537
H   H87       1.0  0.94320  0.16060  0.07260  1.0000 0.1303441537
H   H88       1.0  0.08800  0.87060  0.92740  1.0000 0.1303441537
H   H89       1.0  0.65380  0.55580  0.76180  1.0000 0.1120540963
H   H90       1.0  0.79400  0.89200  0.23820  1.0000 0.1120540963
H   H91       1.0  0.14200  0.40380  0.59800  1.0000 0.1120540963
H   H92       1.0  0.80580  0.54400  0.40200  1.0000 0.1120540963
H   H93       1.0  0.59620  0.19420  0.73820  1.0000 0.1120540963
H   H94       1.0  0.45600  0.85800  0.26180  1.0000 0.1120540963
H   H95       1.0  0.10800  0.34620  0.90200  1.0000 0.1120540963
H   H96       1.0  0.44420  0.20600  0.09800  1.0000 0.1120540963
H   H97       1.0  0.85890  0.61310  0.77200  1.0000 0.1120540963
H   H98       1.0  0.84110  0.08690  0.22800  1.0000 0.1120540963
H   H99       1.0  0.33690  0.60890  0.74580  1.0000 0.1120540963
H   H100      1.0  0.86310  0.59110  0.25420  1.0000 0.1120540963
H   H101      1.0  0.39110  0.13690  0.72800  1.0000 0.1120540963
H   H102      1.0  0.40890  0.66310  0.27200  1.0000 0.1120540963
H   H103      1.0  0.91310  0.14110  0.75420  1.0000 0.1120540963
H   H104      1.0  0.38690  0.15890  0.24580  1.0000 0.1120540963
H   H105      1.0  0.90830  0.80340  0.73950  1.0000 0.1189536187
H   H106      1.0  0.06390  0.16880  0.26050  1.0000 0.1189536187
H   H107      1.0  0.41880  0.65830  0.60490  1.0000 0.1189536187
H   H108      1.0  0.05340  0.81390  0.39510  1.0000 0.1189536187
H   H109      1.0  0.34170  0.94660  0.76050  1.0000 0.1189536187
H   H110      1.0  0.18610  0.58120  0.23950  1.0000 0.1189536187
H   H111      1.0  0.83120  0.09170  0.89510  1.0000 0.1189536187
H   H112      1.0  0.19660  0.93610  0.10490  1.0000 0.1189536187
C   C1        1.0  0.65431  0.91678  0.65929  1.0000 0.5732154102
C   C2        1.0  0.25749  0.99502  0.34071  1.0000 0.5732154102
C   C3        1.0  0.24502  0.40431  0.23753  1.0000 0.5732154102
C   C4        1.0  0.16678  0.00749  0.76247  1.0000 0.5732154102
C   C5        1.0  0.59569  0.83322  0.84071  1.0000 0.5732154102
C   C6        1.0  0.99251  0.75498  0.15929  1.0000 0.5732154102
C   C7        1.0  0.00498  0.34569  0.26247  1.0000 0.5732154102
C   C8        1.0  0.08322  0.74251  0.73753  1.0000 0.5732154102
C   C9        1.0  0.66714  0.94150  0.60524  1.0000 -0.0171270733
C   C10       1.0  0.33626  0.06190  0.39476  1.0000 -0.0171270733
C   C11       1.0  0.31190  0.41714  0.22564  1.0000 -0.0171270733
C   C12       1.0  0.19150  0.08626  0.77436  1.0000 -0.0171270733
C   C13       1.0  0.58286  0.80850  0.89476  1.0000 -0.0171270733
C   C14       1.0  0.91374  0.68810  0.10524  1.0000 -0.0171270733
C   C15       1.0  0.93810  0.33286  0.27436  1.0000 -0.0171270733
C   C16       1.0  0.05850  0.66374  0.72564  1.0000 -0.0171270733
C   C17       1.0  0.58835  0.87394  0.55819  1.0000 -0.1029651546
C   C18       1.0  0.31575  0.03016  0.44181  1.0000 -0.1029651546
C   C19       1.0  0.28016  0.33835  0.21441  1.0000 -0.1029651546
C   C20       1.0  0.12394  0.06575  0.78559  1.0000 -0.1029651546
C   C21       1.0  0.66165  0.87606  0.94181  1.0000 -0.1029651546
C   C22       1.0  0.93425  0.71984  0.05819  1.0000 -0.1029651546
C   C23       1.0  0.96984  0.41165  0.28559  1.0000 -0.1029651546
C   C24       1.0  0.12606  0.68425  0.71441  1.0000 -0.1029651546
C   C25       1.0  0.59683  0.89793  0.50896  1.0000 -0.1589767846
C   C26       1.0  0.38897  0.08787  0.49104  1.0000 -0.1589767846
C   C27       1.0  0.33787  0.34683  0.19890  1.0000 -0.1589767846
C   C28       1.0  0.14793  0.13897  0.80110  1.0000 -0.1589767846
C   C29       1.0  0.65317  0.85207  0.99104  1.0000 -0.1589767846
C   C30       1.0  0.86103  0.66213  0.00896  1.0000 -0.1589767846
C   C31       1.0  0.91213  0.40317  0.30110  1.0000 -0.1589767846
C   C32       1.0  0.10207  0.61103  0.69890  1.0000 -0.1589767846
C   C33       1.0  0.68398  0.98939  0.50677  1.0000 0.0881776059
C   C34       1.0  0.48262  0.17721  0.49323  1.0000 0.0881776059
C   C35       1.0  0.42721  0.43398  0.19459  1.0000 0.0881776059
C   C36       1.0  0.23939  0.23262  0.80541  1.0000 0.0881776059
C   C37       1.0  0.56602  0.76061  0.99323  1.0000 0.0881776059
C   C38       1.0  0.76738  0.57279  0.00677  1.0000 0.0881776059
C   C39       1.0  0.82279  0.31602  0.30541  1.0000 0.0881776059
C   C40       1.0  0.01061  0.51738  0.69459  1.0000 0.0881776059
C   C41       1.0  0.76283  0.05702  0.55383  1.0000 -0.1589767846
C   C42       1.0  0.50319  0.20900  0.44617  1.0000 -0.1589767846
C   C43       1.0  0.45900  0.51283  0.20581  1.0000 -0.1589767846
C   C44       1.0  0.30702  0.25319  0.79419  1.0000 -0.1589767846
C   C45       1.0  0.48717  0.69298  0.94617  1.0000 -0.1589767846
C   C46       1.0  0.74681  0.54100  0.05383  1.0000 -0.1589767846
C   C47       1.0  0.79100  0.23717  0.29419  1.0000 -0.1589767846
C   C48       1.0  0.94298  0.49681  0.70581  1.0000 -0.1589767846
C   C49       1.0  0.75440  0.03306  0.60306  1.0000 -0.0904196028
C   C50       1.0  0.43000  0.15134  0.39694  1.0000 -0.0904196028
C   C51       1.0  0.40134  0.50440  0.22134  1.0000 -0.0904196028
C   C52       1.0  0.28306  0.18000  0.77866  1.0000 -0.0904196028
C   C53       1.0  0.49560  0.71694  0.89694  1.0000 -0.0904196028
C   C54       1.0  0.82000  0.59866  0.10306  1.0000 -0.0904196028
C   C55       1.0  0.84866  0.24560  0.27866  1.0000 -0.0904196028
C   C56       1.0  0.96694  0.57000  0.72134  1.0000 -0.0904196028
C   C57       1.0  0.69175  0.01576  0.45491  1.0000 0.0009259388
C   C58       1.0  0.56085  0.23684  0.54509  1.0000 0.0009259388
C   C59       1.0  0.48684  0.44175  0.17599  1.0000 -0.0023514243
C   C60       1.0  0.26576  0.31085  0.82401  1.0000 -0.0023514243
C   C61       1.0  0.55825  0.73424  0.04509  1.0000 0.0009259388
C   C62       1.0  0.68915  0.51316  0.95491  1.0000 0.0009259388
C   C63       1.0  0.76316  0.30825  0.32401  1.0000 0.0009259388
C   C64       1.0  0.98424  0.43915  0.67599  1.0000 0.0009259388
C   C65       1.0  0.64825  0.95084  0.40449  1.0000 0.0389544358
C   C66       1.0  0.54635  0.24376  0.59551  1.0000 0.0389544358
C   C67       1.0  0.49376  0.39825  0.19741  1.0000 0.0389544358
C   C68       1.0  0.20084  0.29635  0.80259  1.0000 0.0389544358
C   C69       1.0  0.60175  0.79916  0.09551  1.0000 0.0389544358
C   C70       1.0  0.70365  0.50624  0.90449  1.0000 0.0389544358
C   C71       1.0  0.75624  0.35175  0.30259  1.0000 0.0389544358
C   C72       1.0  0.04916  0.45365  0.69741  1.0000 0.0389544358
C   C73       1.0  0.69607  0.05757  0.35584  1.0000 0.1700284892
C   C74       1.0  0.70173  0.34023  0.64416  1.0000 0.1700284892
C   C75       1.0  0.59023  0.44607  0.13850  1.0000 0.1700284892
C   C76       1.0  0.30757  0.45173  0.86150  1.0000 0.1700284892
C   C77       1.0  0.55393  0.69243  0.14416  1.0000 0.1700284892
C   C78       1.0  0.54827  0.40977  0.85584  1.0000 0.1700284892
C   C79       1.0  0.65977  0.30393  0.36150  1.0000 0.1700284892
C   C80       1.0  0.94243  0.29827  0.63850  1.0000 0.1700284892
C   C81       1.0  0.73740  0.10157  0.45577  1.0000 0.0389544358
C   C82       1.0  0.64580  0.28163  0.54423  1.0000 0.0389544358
C   C83       1.0  0.53163  0.48740  0.13583  1.0000 0.0389544358
C   C84       1.0  0.35157  0.39580  0.86417  1.0000 0.0389544358
C   C85       1.0  0.51260  0.64843  0.04423  1.0000 0.0389544358
C   C86       1.0  0.60420  0.46837  0.95577  1.0000 0.0389544358
C   C87       1.0  0.71837  0.26260  0.36417  1.0000 0.0389544358
C   C88       1.0  0.89843  0.35420  0.63583  1.0000 0.0389544358
C   C89       1.0  0.67075  0.81674  0.74149  1.0000 0.5732154102
C   C90       1.0  0.07525  0.92926  0.25851  1.0000 0.5732154102
C   C91       1.0  0.17926  0.42075  0.35401  1.0000 0.5732154102
C   C92       1.0  0.06674  0.82525  0.64599  1.0000 0.5732154102
C   C93       1.0  0.57925  0.93326  0.75851  1.0000 0.5732154102
C   C94       1.0  0.17475  0.82074  0.24149  1.0000 0.5732154102
C   C95       1.0  0.07074  0.32925  0.14599  1.0000 0.5732154102
C   C96       1.0  0.18326  0.92475  0.85401  1.0000 0.5732154102
C   C97       1.0  0.69850  0.78240  0.74070  1.0000 -0.0288716179
C   C98       1.0  0.04170  0.95780  0.25930  1.0000 -0.0288716179
C   C99       1.0  0.20780  0.44850  0.41610  1.0000 -0.0288716179
C   C100      1.0  0.03240  0.79170  0.58390  1.0000 -0.0288716179
C   C101      1.0  0.55150  0.96760  0.75930  1.0000 -0.0288716179
C   C102      1.0  0.20830  0.79220  0.24070  1.0000 -0.0288716179
C   C103      1.0  0.04220  0.30150  0.08390  1.0000 -0.0288716179
C   C104      1.0  0.21760  0.95830  0.91610  1.0000 -0.0288716179
C   C105      1.0  0.62963  0.68605  0.71728  1.0000 -0.0847359485
C   C106      1.0  0.96877  0.91235  0.28272  1.0000 -0.0847359485
C   C107      1.0  0.16235  0.37963  0.44358  1.0000 -0.0904196028
C   C108      1.0  0.93605  0.71877  0.55642  1.0000 -0.0847359485
C   C109      1.0  0.62037  0.06395  0.78272  1.0000 -0.0847359485
C   C110      1.0  0.28123  0.83765  0.21728  1.0000 -0.0904196028
C   C111      1.0  0.08765  0.37037  0.05642  1.0000 -0.0847359485
C   C112      1.0  0.31395  0.03123  0.94358  1.0000 -0.0847359485
C   C113      1.0  0.65460  0.65337  0.71977  1.0000 -0.1589767846
C   C114      1.0  0.93360  0.93483  0.28023  1.0000 -0.1589767846
C   C115      1.0  0.18483  0.40460  0.50123  1.0000 -0.1589767846
C   C116      1.0  0.90337  0.68360  0.49877  1.0000 -0.1589767846
C   C117      1.0  0.59540  0.09663  0.78023  1.0000 -0.1589767846
C   C118      1.0  0.31640  0.81517  0.21977  1.0000 -0.1589767846
C   C119      1.0  0.06517  0.34540  0.99877  1.0000 -0.1589767846
C   C120      1.0  0.34663  0.06640  0.00123  1.0000 -0.1589767846
C   C121      1.0  0.74853  0.71714  0.74567  1.0000 0.0881776059
C   C122      1.0  0.97147  0.00286  0.25433  1.0000 0.0881776059
C   C123      1.0  0.25286  0.49853  0.53139  1.0000 0.0881776059
C   C124      1.0  0.96714  0.72147  0.46861  1.0000 0.0881776059
C   C125      1.0  0.50147  0.03286  0.75433  1.0000 0.0881776059
C   C126      1.0  0.27853  0.74714  0.24567  1.0000 0.0881776059
C   C127      1.0  0.99714  0.25147  0.96861  1.0000 0.0881776059
C   C128      1.0  0.28286  0.02853  0.03139  1.0000 0.0881776059
C   C129      1.0  0.81740  0.81349  0.76909  1.0000 -0.1589767846
C   C130      1.0  0.04440  0.04831  0.23091  1.0000 -0.1589767846
C   C131      1.0  0.29831  0.56740  0.50391  1.0000 -0.1589767846
C   C132      1.0  0.06349  0.79440  0.49609  1.0000 -0.1589767846
C   C133      1.0  0.43260  0.93651  0.73091  1.0000 -0.1589767846
C   C134      1.0  0.20560  0.70169  0.26909  1.0000 -0.1589767846
C   C135      1.0  0.95169  0.18260  0.99609  1.0000 -0.1589767846
C   C136      1.0  0.18651  0.95560  0.00391  1.0000 -0.1664971559
C   C137      1.0  0.79233  0.84606  0.76659  1.0000 -0.0904196028
C   C138      1.0  0.07947  0.02574  0.23341  1.0000 -0.0904196028
C   C139      1.0  0.27574  0.54233  0.44627  1.0000 -0.0904196028
C   C140      1.0  0.09606  0.82947  0.55373  1.0000 -0.0904196028
C   C141      1.0  0.45767  0.90394  0.73341  1.0000 -0.0904196028
C   C142      1.0  0.17053  0.72426  0.26659  1.0000 -0.0904196028
C   C143      1.0  0.97426  0.20767  0.05373  1.0000 -0.0904196028
C   C144      1.0  0.15394  0.92053  0.94627  1.0000 -0.0904196028
C   C145      1.0  0.77613  0.68374  0.74927  1.0000 -0.0023514243
C   C146      1.0  0.93447  0.02686  0.25073  1.0000 -0.0023514243
C   C147      1.0  0.27686  0.52613  0.59239  1.0000 -0.0023514243
C   C148      1.0  0.93374  0.68447  0.40761  1.0000 -0.0023514243
C   C149      1.0  0.47387  0.06626  0.75073  1.0000 -0.0023514243
C   C150      1.0  0.31553  0.72314  0.24927  1.0000 -0.0023514243
C   C151      1.0  0.97314  0.22387  0.90761  1.0000 -0.0023514243
C   C152      1.0  0.31626  0.06553  0.09239  1.0000 -0.0023514243
C   C153      1.0  0.71596  0.59705  0.76015  1.0000 0.0389544358
C   C154      1.0  0.83690  0.95581  0.23985  1.0000 0.0389544358
C   C155      1.0  0.20581  0.46596  0.61891  1.0000 0.0389544358
C   C156      1.0  0.84705  0.58690  0.38109  1.0000 0.0389544358
C   C157      1.0  0.53404  0.15295  0.73985  1.0000 0.0389544358
C   C158      1.0  0.41310  0.79419  0.26015  1.0000 0.0389544358
C   C159      1.0  0.04419  0.28404  0.88109  1.0000 0.0389544358
C   C160      1.0  0.40295  0.16310  0.11891  1.0000 0.0389544358
C   C161      1.0  0.83783  0.63114  0.76617  1.0000 0.2179825735
C   C162      1.0  0.86497  0.07166  0.23383  1.0000 0.2179825735
C   C163      1.0  0.32166  0.58783  0.70669  1.0000 0.2179825735
C   C164      1.0  0.88114  0.61497  0.29331  1.0000 0.2179825735
C   C165      1.0  0.41217  0.11886  0.73383  1.0000 0.2179825735
C   C166      1.0  0.38503  0.67834  0.26617  1.0000 0.2179825735
C   C167      1.0  0.92834  0.16217  0.79331  1.0000 0.2179825735
C   C168      1.0  0.36886  0.13503  0.20669  1.0000 0.2179825735
C   C169      1.0  0.86712  0.74409  0.74685  1.0000 0.0495757224
C   C170      1.0  0.99724  0.12027  0.25315  1.0000 0.0495757224
C   C171      1.0  0.37027  0.61712  0.62303  1.0000 0.0495757224
C   C172      1.0  0.99409  0.74724  0.37697  1.0000 0.0495757224
C   C173      1.0  0.38288  0.00591  0.75315  1.0000 0.0495757224
C   C174      1.0  0.25276  0.62973  0.24685  1.0000 0.0495757224
C   C175      1.0  0.87973  0.13288  0.87697  1.0000 0.0495757224
C   C176      1.0  0.25591  0.00276  0.12303  1.0000 0.0495757224
I   I1        1.0  0.61988  0.79944  0.29996  1.0000 -0.4653604328
I   I2        1.0  0.49948  0.31992  0.70004  1.0000 -0.4642829398
I   I3        1.0  0.56992  0.36988  0.32044  1.0000 -0.4653604328
I   I4        1.0  0.04944  0.24948  0.67956  1.0000 -0.4642829398
I   I5        1.0  0.63012  0.95056  0.20004  1.0000 -0.4642829398
I   I6        1.0  0.75052  0.43008  0.79996  1.0000 -0.4642829398
I   I7        1.0  0.68008  0.38012  0.17956  1.0000 -0.4642829398
I   I8        1.0  0.20056  0.50052  0.82044  1.0000 -0.4642829398
N   N1        1.0  0.65051  0.97185  0.35496  1.0000 -0.1993435527
N   N2        1.0  0.61689  0.29555  0.64504  1.0000 -0.1993435527
N   N3        1.0  0.54555  0.40051  0.17866  1.0000 -0.1993435527
N   N4        1.0  0.22185  0.36689  0.82134  1.0000 -0.1993435527
N   N5        1.0  0.59949  0.77815  0.14504  1.0000 -0.1993435527
N   N6        1.0  0.63311  0.45445  0.85496  1.0000 -0.1993435527
N   N7        1.0  0.70445  0.34949  0.32134  1.0000 -0.1993435527
N   N8        1.0  0.02815  0.38311  0.67866  1.0000 -0.1993435527
N   N9        1.0  0.73956  0.12248  0.40624  1.0000 -0.2787197119
N   N10       1.0  0.71624  0.33333  0.59376  1.0000 -0.2787197119
N   N11       1.0  0.58332  0.48956  0.11708  1.0000 -0.2787197119
N   N12       1.0  0.37248  0.46624  0.88292  1.0000 -0.2787197119
N   N13       1.0  0.51044  0.62752  0.09376  1.0000 -0.2787197119
N   N14       1.0  0.53376  0.41668  0.90624  1.0000 -0.2787197119
N   N15       1.0  0.66667  0.26044  0.38292  1.0000 -0.2787197119
N   N16       1.0  0.87752  0.28376  0.61708  1.0000 -0.2787197119
N   N17       1.0  0.74681  0.57075  0.76860  1.0000 -0.2063995115
N   N18       1.0  0.80215  0.97821  0.23140  1.0000 -0.2063995115
N   N19       1.0  0.22821  0.49681  0.67606  1.0000 -0.2063995115
N   N20       1.0  0.82075  0.55215  0.32394  1.0000 -0.2063995115
N   N21       1.0  0.50319  0.17925  0.73140  1.0000 -0.2063995115
N   N22       1.0  0.44785  0.77179  0.26860  1.0000 -0.2063995115
N   N23       1.0  0.02179  0.25319  0.82394  1.0000 -0.2063995115
N   N24       1.0  0.42925  0.19785  0.17606  1.0000 -0.2063995115
N   N25       1.0  0.89796  0.71778  0.75530  1.0000 -0.2657228484
N   N26       1.0  0.96248  0.14266  0.24470  1.0000 -0.2657228484
N   N27       1.0  0.39266  0.64796  0.68018  1.0000 -0.2657228484
N   N28       1.0  0.96778  0.71248  0.31982  1.0000 -0.2657228484
N   N29       1.0  0.35204  0.03222  0.74470  1.0000 -0.2657228484
N   N30       1.0  0.28752  0.60734  0.25530  1.0000 -0.2657228484
N   N31       1.0  0.85734  0.10204  0.81982  1.0000 -0.2657228484
N   N32       1.0  0.28222  0.03752  0.18018  1.0000 -0.2657228484
O   O1        1.0  0.57334  0.83404  0.65838  1.0000 -0.5106846205
O   O2        1.0  0.17566  0.91496  0.34162  1.0000 -0.5106846205
O   O3        1.0  0.16496  0.32334  0.23930  1.0000 -0.5106846205
O   O4        1.0  0.08404  0.92566  0.76070  1.0000 -0.5106846205
O   O5        1.0  0.67666  0.91596  0.84162  1.0000 -0.5106846205
O   O6        1.0  0.07434  0.83504  0.15838  1.0000 -0.5106846205
O   O7        1.0  0.08504  0.42666  0.26070  1.0000 -0.5106846205
O   O8        1.0  0.16596  0.82434  0.73930  1.0000 -0.5106846205
O   O9        1.0  0.72540  0.98133  0.70133  1.0000 -0.4928013086
O   O10       1.0  0.28000  0.02407  0.29867  1.0000 -0.4928013086
O   O11       1.0  0.27407  0.47540  0.24407  1.0000 -0.4928013086
O   O12       1.0  0.23133  0.03000  0.75593  1.0000 -0.4928013086
O   O13       1.0  0.52460  0.76867  0.79867  1.0000 -0.4928013086
O   O14       1.0  0.97000  0.72593  0.20133  1.0000 -0.4928013086
O   O15       1.0  0.97593  0.27460  0.25593  1.0000 -0.4928013086
O   O16       1.0  0.01867  0.72000  0.74407  1.0000 -0.4928013086
O   O17       1.0  0.58501  0.75638  0.71979  1.0000 -0.5002962648
O   O18       1.0  0.03659  0.86522  0.28021  1.0000 -0.5002962648
O   O19       1.0  0.11522  0.33501  0.32863  1.0000 -0.5002962648
O   O20       1.0  0.00638  0.78659  0.67137  1.0000 -0.5002962648
O   O21       1.0  0.66499  0.99362  0.78021  1.0000 -0.5002962648
O   O22       1.0  0.21341  0.88478  0.21979  1.0000 -0.5002962648
O   O23       1.0  0.13478  0.41499  0.17137  1.0000 -0.5002962648
O   O24       1.0  0.24362  0.96341  0.82863  1.0000 -0.5002962648
O   O25       1.0  0.73602  0.90437  0.76359  1.0000 -0.5106846205
O   O26       1.0  0.14078  0.97243  0.23641  1.0000 -0.5106846205
O   O27       1.0  0.22243  0.48602  0.33165  1.0000 -0.5106846205
O   O28       1.0  0.15437  0.89078  0.66835  1.0000 -0.5106846205
O   O29       1.0  0.51398  0.84563  0.73641  1.0000 -0.5106846205
O   O30       1.0  0.10922  0.77757  0.26359  1.0000 -0.5106846205
O   O31       1.0  0.02757  0.26398  0.16835  1.0000 -0.5106846205
O   O32       1.0  0.09563  0.85922  0.83165  1.0000 -0.5106846205
