# DDEC6 charges by PACMAN v1.1 (https://github.com/mtap-research/PACMAN-charge/)
data_2016[Co][rtl]3[ASR]1
_chemical_formula_sum              "Co4 H36 C64 N8 O16 F12"
_cell_length_a       9.7353
_cell_length_b       17.7435
_cell_length_c       11.7645
_cell_angle_alpha    90
_cell_angle_beta     104.07
_cell_angle_gamma    90

_symmetry_space_group_name_H-M    "P 1"
_symmetry_Int_Tables_number       1

loop_
  _symmetry_equiv_pos_as_xyz
  'x, y, z'

loop_
  _atom_site_type_symbol
  _atom_site_label
  _atom_site_symmetry_multiplicity
  _atom_site_fract_x
  _atom_site_fract_y
  _atom_site_fract_z
  _atom_site_occupancy
  _atom_site_charge
Co  Co1       1.0  0.00000  0.00000  0.00000  1.0000 0.9228511616
Co  Co2       1.0  0.00000  0.50000  0.50000  1.0000 0.9228511616
Co  Co3       1.0  0.50000  0.50000  0.50000  1.0000 0.9080487653
Co  Co4       1.0  0.50000  0.00000  0.00000  1.0000 0.9080487653
H   H1        1.0  0.12390  0.84680  0.93660  1.0000 0.1284644171
H   H2        1.0  0.87610  0.34680  0.56340  1.0000 0.1284644171
H   H3        1.0  0.87610  0.15320  0.06340  1.0000 0.1284644171
H   H4        1.0  0.12390  0.65320  0.43660  1.0000 0.1284644171
H   H5        1.0  0.73230  0.91440  0.86770  1.0000 0.1385682379
H   H6        1.0  0.26770  0.41440  0.63230  1.0000 0.1385682379
H   H7        1.0  0.26770  0.08560  0.13230  1.0000 0.1385682379
H   H8        1.0  0.73230  0.58560  0.36770  1.0000 0.1385682379
H   H9        1.0  0.69660  0.67900  0.71620  1.0000 0.1225756962
H   H10       1.0  0.30340  0.17900  0.78380  1.0000 0.1225756962
H   H11       1.0  0.30340  0.32100  0.28380  1.0000 0.1225756962
H   H12       1.0  0.69660  0.82100  0.21620  1.0000 0.1225756962
H   H13       1.0  0.96240  0.63520  0.70560  1.0000 0.1385682379
H   H14       1.0  0.03760  0.13520  0.79440  1.0000 0.1385682379
H   H15       1.0  0.03760  0.36480  0.29440  1.0000 0.1385682379
H   H16       1.0  0.96240  0.86480  0.20560  1.0000 0.1385682379
H   H17       1.0  0.49490  0.32730  0.47280  1.0000 0.1083912715
H   H18       1.0  0.50510  0.82730  0.02720  1.0000 0.1083912715
H   H19       1.0  0.50510  0.67270  0.52720  1.0000 0.1083912715
H   H20       1.0  0.49490  0.17270  0.97280  1.0000 0.1083912715
H   H21       1.0  0.65930  0.44980  0.74650  1.0000 0.1460982464
H   H22       1.0  0.34070  0.94980  0.75350  1.0000 0.1460982464
H   H23       1.0  0.34070  0.55020  0.25350  1.0000 0.1460982464
H   H24       1.0  0.65930  0.05020  0.24650  1.0000 0.1460982464
H   H25       1.0  0.56510  0.13030  0.73080  1.0000 0.1385682379
H   H26       1.0  0.43490  0.63030  0.76920  1.0000 0.1385682379
H   H27       1.0  0.43490  0.86970  0.26920  1.0000 0.1385682379
H   H28       1.0  0.56510  0.36970  0.23080  1.0000 0.1385682379
H   H29       1.0  0.57050  0.21900  0.57280  1.0000 0.1385682379
H   H30       1.0  0.42950  0.71900  0.92720  1.0000 0.1385682379
H   H31       1.0  0.42950  0.78100  0.42720  1.0000 0.1385682379
H   H32       1.0  0.57050  0.28100  0.07280  1.0000 0.1385682379
H   H33       1.0  0.80580  0.20320  0.84870  1.0000 0.1225756962
H   H34       1.0  0.19420  0.70320  0.65130  1.0000 0.1225756962
H   H35       1.0  0.19420  0.79680  0.15130  1.0000 0.1225756962
H   H36       1.0  0.80580  0.29680  0.34870  1.0000 0.1225756962
C   C1        1.0  0.02840  0.83810  0.90350  1.0000 -0.0933332876
C   C2        1.0  0.97160  0.33810  0.59650  1.0000 -0.0933332876
C   C3        1.0  0.97160  0.16190  0.09650  1.0000 -0.0933332876
C   C4        1.0  0.02840  0.66190  0.40350  1.0000 -0.0933332876
C   C5        1.0  0.79960  0.87838  0.86210  1.0000 -0.0767530635
C   C6        1.0  0.20040  0.37838  0.63790  1.0000 -0.0767530635
C   C7        1.0  0.20040  0.12162  0.13790  1.0000 -0.0767530635
C   C8        1.0  0.79960  0.62162  0.36210  1.0000 -0.0767530635
C   C9        1.0  0.75550  0.81225  0.80270  1.0000 0.2314674347
C   C10       1.0  0.24450  0.31225  0.69730  1.0000 0.2314674347
C   C11       1.0  0.24450  0.18775  0.19730  1.0000 0.2314674347
C   C12       1.0  0.75550  0.68775  0.30270  1.0000 0.2314674347
C   C13       1.0  0.84880  0.75489  0.79360  1.0000 -0.1041844026
C   C14       1.0  0.15120  0.25489  0.70640  1.0000 -0.1041844026
C   C15       1.0  0.15120  0.24511  0.20640  1.0000 -0.1041844026
C   C16       1.0  0.84880  0.74511  0.29360  1.0000 -0.1041844026
C   C17       1.0  0.98920  0.77009  0.84840  1.0000 0.2362605497
C   C18       1.0  0.01080  0.27009  0.65160  1.0000 0.2362605497
C   C19       1.0  0.01080  0.22991  0.15160  1.0000 0.2362605497
C   C20       1.0  0.98920  0.72991  0.34840  1.0000 0.2362605497
C   C21       1.0  0.79410  0.68570  0.73120  1.0000 -0.0685388879
C   C22       1.0  0.20590  0.18570  0.76880  1.0000 -0.0685388879
C   C23       1.0  0.20590  0.31430  0.26880  1.0000 -0.0685388879
C   C24       1.0  0.79410  0.81430  0.23120  1.0000 -0.0685388879
C   C25       1.0  0.78930  0.56388  0.63138  1.0000 0.6216066643
C   C26       1.0  0.21070  0.06388  0.86862  1.0000 0.6216066643
C   C27       1.0  0.21070  0.43612  0.36862  1.0000 0.6216066643
C   C28       1.0  0.78930  0.93612  0.13138  1.0000 0.6216066643
C   C29       1.0  0.86460  0.63145  0.69350  1.0000 -0.2207866465
C   C30       1.0  0.13540  0.13145  0.80650  1.0000 -0.2207866465
C   C31       1.0  0.13540  0.36855  0.30650  1.0000 -0.2207866465
C   C32       1.0  0.86460  0.86855  0.19350  1.0000 -0.2207866465
C   C33       1.0  0.68920  0.33900  0.77330  1.0000 0.1786043658
C   C34       1.0  0.31080  0.83900  0.72670  1.0000 0.1786043658
C   C35       1.0  0.31080  0.66100  0.22670  1.0000 0.1786043658
C   C36       1.0  0.68920  0.16100  0.27330  1.0000 0.1786043658
C   C37       1.0  0.54490  0.33080  0.55080  1.0000 0.0589206475
C   C38       1.0  0.45510  0.83080  0.94920  1.0000 0.0589206475
C   C39       1.0  0.45510  0.66920  0.44920  1.0000 0.0589206475
C   C40       1.0  0.54490  0.16920  0.05080  1.0000 0.0589206475
C   C41       1.0  0.64110  0.40295  0.71040  1.0000 -0.0360279181
C   C42       1.0  0.35890  0.90295  0.78960  1.0000 -0.0360279181
C   C43       1.0  0.35890  0.59705  0.28960  1.0000 -0.0360279181
C   C44       1.0  0.64110  0.09705  0.21040  1.0000 -0.0360279181
C   C45       1.0  0.65200  0.13485  0.78490  1.0000 -0.2207866465
C   C46       1.0  0.34800  0.63485  0.71510  1.0000 -0.2207866465
C   C47       1.0  0.34800  0.86515  0.21510  1.0000 -0.2207866465
C   C48       1.0  0.65200  0.36515  0.28490  1.0000 -0.2207866465
C   C49       1.0  0.59030  0.26521  0.61060  1.0000 -0.1802005753
C   C50       1.0  0.40970  0.76521  0.88940  1.0000 -0.1802005753
C   C51       1.0  0.40970  0.73479  0.38940  1.0000 -0.1802005753
C   C52       1.0  0.59030  0.23479  0.11060  1.0000 -0.1802005753
C   C53       1.0  0.66530  0.26755  0.72670  1.0000 0.032131366
C   C54       1.0  0.33470  0.76755  0.77330  1.0000 0.032131366
C   C55       1.0  0.33470  0.73245  0.27330  1.0000 0.032131366
C   C56       1.0  0.66530  0.23245  0.22670  1.0000 0.032131366
C   C57       1.0  0.71150  0.06800  0.85780  1.0000 0.6285191044
C   C58       1.0  0.28850  0.56800  0.64220  1.0000 0.6285191044
C   C59       1.0  0.28850  0.93200  0.14220  1.0000 0.6285191044
C   C60       1.0  0.71150  0.43200  0.35780  1.0000 0.6285191044
C   C61       1.0  0.71870  0.19991  0.79470  1.0000 -0.1070135631
C   C62       1.0  0.28130  0.69991  0.70530  1.0000 -0.1070135631
C   C63       1.0  0.28130  0.80009  0.20530  1.0000 -0.1070135631
C   C64       1.0  0.71870  0.30009  0.29470  1.0000 -0.1070135631
N   N1        1.0  0.93547  0.89230  0.91171  1.0000 -0.1721128099
N   N2        1.0  0.06453  0.39230  0.58829  1.0000 -0.1721128099
N   N3        1.0  0.06453  0.10770  0.08829  1.0000 -0.1721128099
N   N4        1.0  0.93547  0.60770  0.41171  1.0000 -0.1721128099
N   N5        1.0  0.56880  0.39928  0.59898  1.0000 -0.2052792743
N   N6        1.0  0.43120  0.89928  0.90102  1.0000 -0.2052792743
N   N7        1.0  0.43120  0.60072  0.40102  1.0000 -0.2052792743
N   N8        1.0  0.56880  0.10072  0.09898  1.0000 -0.2052792743
O   O1        1.0  0.65691  0.56409  0.60946  1.0000 -0.5606125281
O   O2        1.0  0.34309  0.06409  0.89054  1.0000 -0.5606125281
O   O3        1.0  0.34309  0.43591  0.39054  1.0000 -0.5606125281
O   O4        1.0  0.65691  0.93591  0.10946  1.0000 -0.5606125281
O   O5        1.0  0.86393  0.51110  0.60789  1.0000 -0.5540465251
O   O6        1.0  0.13607  0.01110  0.89211  1.0000 -0.5540465251
O   O7        1.0  0.13607  0.48890  0.39211  1.0000 -0.5540465251
O   O8        1.0  0.86393  0.98890  0.10789  1.0000 -0.5540465251
O   O9        1.0  0.84417  0.06206  0.88486  1.0000 -0.5606125281
O   O10       1.0  0.15583  0.56206  0.61514  1.0000 -0.5606125281
O   O11       1.0  0.15583  0.93794  0.11514  1.0000 -0.5606125281
O   O12       1.0  0.84417  0.43794  0.38486  1.0000 -0.5606125281
O   O13       1.0  0.62524  0.02268  0.88295  1.0000 -0.5679041877
O   O14       1.0  0.37476  0.52268  0.61705  1.0000 -0.5679041877
O   O15       1.0  0.37476  0.97732  0.11705  1.0000 -0.5679041877
O   O16       1.0  0.62524  0.47732  0.38295  1.0000 -0.5679041877
F   F1        1.0  0.62250  0.80617  0.74470  1.0000 -0.1253126994
F   F2        1.0  0.37750  0.30617  0.75530  1.0000 -0.1253126994
F   F3        1.0  0.37750  0.19383  0.25530  1.0000 -0.1253126994
F   F4        1.0  0.62250  0.69383  0.24470  1.0000 -0.1253126994
F   F5        1.0  0.76100  0.34685  0.88646  1.0000 -0.1253126994
F   F6        1.0  0.23900  0.84685  0.61354  1.0000 -0.1246547908
F   F7        1.0  0.23900  0.65315  0.11354  1.0000 -0.1246547908
F   F8        1.0  0.76100  0.15315  0.38646  1.0000 -0.1246547908
F   F9        1.0  0.08360  0.71800  0.85590  1.0000 -0.1070135631
F   F10       1.0  0.91640  0.21800  0.64410  1.0000 -0.1070135631
F   F11       1.0  0.91640  0.28200  0.14410  1.0000 -0.1070135631
F   F12       1.0  0.08360  0.78200  0.35590  1.0000 -0.1070135631
