# DDEC6 charges by PACMAN v1.1 (https://github.com/mtap-research/PACMAN-charge/)
data_2017[Co][pcu]2[ASR]9
_chemical_formula_sum              "Co8 H88 C144 N56 O48"
_cell_length_a       10.06
_cell_length_b       19.342
_cell_length_c       20.587
_cell_angle_alpha    90
_cell_angle_beta     90
_cell_angle_gamma    90

_symmetry_space_group_name_H-M    "P 1"
_symmetry_Int_Tables_number       1

loop_
  _symmetry_equiv_pos_as_xyz
  'x, y, z'

loop_
  _atom_site_type_symbol
  _atom_site_label
  _atom_site_symmetry_multiplicity
  _atom_site_fract_x
  _atom_site_fract_y
  _atom_site_fract_z
  _atom_site_occupancy
  _atom_site_charge
Co  Co1       1.0  0.57860  0.05142  0.56130  1.0000 0.8352687636
Co  Co2       1.0  0.57860  0.44858  0.06130  1.0000 0.8352687636
Co  Co3       1.0  0.92140  0.94858  0.06130  1.0000 0.8352687636
Co  Co4       1.0  0.92140  0.55142  0.56130  1.0000 0.8352687636
Co  Co5       1.0  0.42140  0.55142  0.93870  1.0000 0.8347590843
Co  Co6       1.0  0.42140  0.94858  0.43870  1.0000 0.8347590843
Co  Co7       1.0  0.07860  0.44858  0.43870  1.0000 0.8347590843
Co  Co8       1.0  0.07860  0.05142  0.93870  1.0000 0.8347590843
H   H1        1.0  0.04340  0.06100  0.56760  1.0000 0.1199785832
H   H2        1.0  0.27960  0.89830  0.60040  1.0000 0.1316934482
H   H3        1.0  0.88300  0.87630  0.60890  1.0000 0.1316934482
H   H4        1.0  0.41840  0.13130  0.45120  1.0000 0.1316934482
H   H5        1.0  0.42620  0.35350  0.16610  1.0000 0.1199785832
H   H6        1.0  0.60930  0.31890  0.36330  1.0000 0.1581845933
H   H7        1.0  0.22030  0.22750  0.29650  1.0000 0.0907054523
H   H8        1.0  0.71840  0.20110  0.55170  1.0000 0.1199785832
H   H9        1.0  0.66730  0.28980  0.47150  1.0000 0.137881629
H   H10       1.0  0.67740  0.41690  0.30280  1.0000 0.1316934482
H   H11       1.0  0.72580  0.47620  0.20180  1.0000 0.1199785832
H   H12       1.0  0.04340  0.43900  0.06760  1.0000 0.1199785832
H   H13       1.0  0.27960  0.60170  0.10040  1.0000 0.1316934482
H   H14       1.0  0.88300  0.62370  0.10890  1.0000 0.1316934482
H   H15       1.0  0.41840  0.36870  0.95120  1.0000 0.1316934482
H   H16       1.0  0.42620  0.14650  0.66610  1.0000 0.1199785832
H   H17       1.0  0.60930  0.18110  0.86330  1.0000 0.1581845933
H   H18       1.0  0.22030  0.27250  0.79650  1.0000 0.0907054523
H   H19       1.0  0.71840  0.29890  0.05170  1.0000 0.1199785832
H   H20       1.0  0.66730  0.21020  0.97150  1.0000 0.137881629
H   H21       1.0  0.67740  0.08310  0.80280  1.0000 0.1316934482
H   H22       1.0  0.72580  0.02380  0.70180  1.0000 0.1199785832
H   H23       1.0  0.45660  0.93900  0.06760  1.0000 0.1199785832
H   H24       1.0  0.22040  0.10170  0.10040  1.0000 0.1316934482
H   H25       1.0  0.61700  0.12370  0.10890  1.0000 0.1316934482
H   H26       1.0  0.08160  0.86870  0.95120  1.0000 0.1316934482
H   H27       1.0  0.07380  0.64650  0.66610  1.0000 0.1199785832
H   H28       1.0  0.89070  0.68110  0.86330  1.0000 0.1581845933
H   H29       1.0  0.27970  0.77250  0.79650  1.0000 0.0907054523
H   H30       1.0  0.78160  0.79890  0.05170  1.0000 0.1199785832
H   H31       1.0  0.83270  0.71020  0.97150  1.0000 0.137881629
H   H32       1.0  0.82260  0.58310  0.80280  1.0000 0.1316934482
H   H33       1.0  0.77420  0.52380  0.70180  1.0000 0.1199785832
H   H34       1.0  0.45660  0.56100  0.56760  1.0000 0.1199785832
H   H35       1.0  0.22040  0.39830  0.60040  1.0000 0.1316934482
H   H36       1.0  0.61700  0.37630  0.60890  1.0000 0.1316934482
H   H37       1.0  0.08160  0.63130  0.45120  1.0000 0.1316934482
H   H38       1.0  0.07380  0.85350  0.16610  1.0000 0.1199785832
H   H39       1.0  0.89070  0.81890  0.36330  1.0000 0.1581845933
H   H40       1.0  0.27970  0.72750  0.29650  1.0000 0.0907054523
H   H41       1.0  0.78160  0.70110  0.55170  1.0000 0.1199785832
H   H42       1.0  0.83270  0.78980  0.47150  1.0000 0.137881629
H   H43       1.0  0.82260  0.91690  0.30280  1.0000 0.1316934482
H   H44       1.0  0.77420  0.97620  0.20180  1.0000 0.1199785832
H   H45       1.0  0.95660  0.56100  0.93240  1.0000 0.1199785832
H   H46       1.0  0.72040  0.39830  0.89960  1.0000 0.1316934482
H   H47       1.0  0.11700  0.37630  0.89110  1.0000 0.1316934482
H   H48       1.0  0.58160  0.63130  0.04880  1.0000 0.1316934482
H   H49       1.0  0.57380  0.85350  0.33390  1.0000 0.1199785832
H   H50       1.0  0.39070  0.81890  0.13670  1.0000 0.1581845933
H   H51       1.0  0.77970  0.72750  0.20350  1.0000 0.0907054523
H   H52       1.0  0.28160  0.70110  0.94830  1.0000 0.1199785832
H   H53       1.0  0.33270  0.78980  0.02850  1.0000 0.137881629
H   H54       1.0  0.32260  0.91690  0.19720  1.0000 0.1316934482
H   H55       1.0  0.27420  0.97620  0.29820  1.0000 0.1199785832
H   H56       1.0  0.95660  0.93900  0.43240  1.0000 0.1199785832
H   H57       1.0  0.72040  0.10170  0.39960  1.0000 0.1316934482
H   H58       1.0  0.11700  0.12370  0.39110  1.0000 0.1316934482
H   H59       1.0  0.58160  0.86870  0.54880  1.0000 0.1316934482
H   H60       1.0  0.57380  0.64650  0.83390  1.0000 0.1199785832
H   H61       1.0  0.39070  0.68110  0.63670  1.0000 0.1581845933
H   H62       1.0  0.77970  0.77250  0.70350  1.0000 0.0907054523
H   H63       1.0  0.28160  0.79890  0.44830  1.0000 0.1199785832
H   H64       1.0  0.33270  0.71020  0.52850  1.0000 0.137881629
H   H65       1.0  0.32260  0.58310  0.69720  1.0000 0.1316934482
H   H66       1.0  0.27420  0.52380  0.79820  1.0000 0.1199785832
H   H67       1.0  0.54340  0.43900  0.43240  1.0000 0.1199785832
H   H68       1.0  0.77960  0.60170  0.39960  1.0000 0.1316934482
H   H69       1.0  0.38300  0.62370  0.39110  1.0000 0.1316934482
H   H70       1.0  0.91840  0.36870  0.54880  1.0000 0.1316934482
H   H71       1.0  0.92620  0.14650  0.83390  1.0000 0.1199785832
H   H72       1.0  0.10930  0.18110  0.63670  1.0000 0.1581845933
H   H73       1.0  0.72030  0.27250  0.70350  1.0000 0.0907054523
H   H74       1.0  0.21840  0.29890  0.44830  1.0000 0.1199785832
H   H75       1.0  0.16730  0.21020  0.52850  1.0000 0.137881629
H   H76       1.0  0.17740  0.08310  0.69720  1.0000 0.1316934482
H   H77       1.0  0.22580  0.02380  0.79820  1.0000 0.1199785832
H   H78       1.0  0.54340  0.06100  0.93240  1.0000 0.1199785832
H   H79       1.0  0.77960  0.89830  0.89960  1.0000 0.1316934482
H   H80       1.0  0.38300  0.87630  0.89110  1.0000 0.1316934482
H   H81       1.0  0.91840  0.13130  0.04880  1.0000 0.1316934482
H   H82       1.0  0.92620  0.35350  0.33390  1.0000 0.1199785832
H   H83       1.0  0.10930  0.31890  0.13670  1.0000 0.1581845933
H   H84       1.0  0.72030  0.22750  0.20350  1.0000 0.0907054523
H   H85       1.0  0.21840  0.20110  0.94830  1.0000 0.1199785832
H   H86       1.0  0.16730  0.28980  0.02850  1.0000 0.137881629
H   H87       1.0  0.17740  0.41690  0.19720  1.0000 0.1316934482
H   H88       1.0  0.22580  0.47620  0.29820  1.0000 0.1199785832
C   C1        1.0  0.05400  0.01430  0.57688  1.0000 -0.1117241702
C   C2        1.0  0.94260  0.97360  0.58588  1.0000 0.0015076974
C   C3        1.0  0.29960  0.03210  0.57076  1.0000 0.5593806782
C   C4        1.0  0.80830  0.00470  0.57745  1.0000 0.5199173072
C   C5        1.0  0.18060  0.98707  0.58133  1.0000 -0.007933733
C   C6        1.0  0.08310  0.87940  0.60860  1.0000 0.0604267025
C   C7        1.0  0.19550  0.91810  0.59731  1.0000 -0.1380559935
C   C8        1.0  0.95670  0.90450  0.60237  1.0000 -0.1476801432
C   C9        1.0  0.48680  0.15938  0.46626  1.0000 0.1490226535
C   C10       1.0  0.49490  0.37670  0.18712  1.0000 0.137881629
C   C11       1.0  0.46320  0.25030  0.38397  1.0000 0.334117187
C   C12       1.0  0.52920  0.30001  0.34940  1.0000 -0.3103108911
C   C13       1.0  0.30020  0.24670  0.31040  1.0000 0.2336573207
C   C14       1.0  0.46820  0.32000  0.29238  1.0000 0.3435075262
C   C15       1.0  0.65100  0.19850  0.52090  1.0000 -0.0254394526
C   C16       1.0  0.62400  0.24770  0.47690  1.0000 -0.0972410312
C   C17       1.0  0.63310  0.41130  0.26350  1.0000 -0.0920645839
C   C18       1.0  0.65900  0.44350  0.20770  1.0000 -0.0230225097
C   C19       1.0  0.05400  0.48570  0.07688  1.0000 -0.1117241702
C   C20       1.0  0.94260  0.52640  0.08588  1.0000 0.0015076974
C   C21       1.0  0.29960  0.46790  0.07076  1.0000 0.5593806782
C   C22       1.0  0.80830  0.49530  0.07745  1.0000 0.5199173072
C   C23       1.0  0.18060  0.51293  0.08133  1.0000 -0.007933733
C   C24       1.0  0.08310  0.62060  0.10860  1.0000 0.0604267025
C   C25       1.0  0.19550  0.58190  0.09731  1.0000 -0.1380559935
C   C26       1.0  0.95670  0.59550  0.10237  1.0000 -0.1476801432
C   C27       1.0  0.48680  0.34062  0.96626  1.0000 0.1490226535
C   C28       1.0  0.49490  0.12330  0.68712  1.0000 0.137881629
C   C29       1.0  0.46320  0.24970  0.88397  1.0000 0.334117187
C   C30       1.0  0.52920  0.19999  0.84940  1.0000 -0.3103108911
C   C31       1.0  0.30020  0.25330  0.81040  1.0000 0.2336573207
C   C32       1.0  0.46820  0.18000  0.79238  1.0000 0.3435075262
C   C33       1.0  0.65100  0.30150  0.02090  1.0000 -0.0254394526
C   C34       1.0  0.62400  0.25230  0.97690  1.0000 -0.0972410312
C   C35       1.0  0.63310  0.08870  0.76350  1.0000 -0.0920645839
C   C36       1.0  0.65900  0.05650  0.70770  1.0000 -0.0230225097
C   C37       1.0  0.44600  0.98570  0.07688  1.0000 -0.1117241702
C   C38       1.0  0.55740  0.02640  0.08588  1.0000 0.0015076974
C   C39       1.0  0.20040  0.96790  0.07076  1.0000 0.5593806782
C   C40       1.0  0.69170  0.99530  0.07745  1.0000 0.5199173072
C   C41       1.0  0.31940  0.01293  0.08133  1.0000 -0.007933733
C   C42       1.0  0.41690  0.12060  0.10860  1.0000 0.0604267025
C   C43       1.0  0.30450  0.08190  0.09731  1.0000 -0.1380559935
C   C44       1.0  0.54330  0.09550  0.10237  1.0000 -0.1476801432
C   C45       1.0  0.01320  0.84062  0.96626  1.0000 0.1490226535
C   C46       1.0  0.00510  0.62330  0.68712  1.0000 0.137881629
C   C47       1.0  0.03680  0.74970  0.88397  1.0000 0.334117187
C   C48       1.0  0.97080  0.69999  0.84940  1.0000 -0.3103108911
C   C49       1.0  0.19980  0.75330  0.81040  1.0000 0.2336573207
C   C50       1.0  0.03180  0.68000  0.79238  1.0000 0.3435075262
C   C51       1.0  0.84900  0.80150  0.02090  1.0000 -0.0254394526
C   C52       1.0  0.87600  0.75230  0.97690  1.0000 -0.0972410312
C   C53       1.0  0.86690  0.58870  0.76350  1.0000 -0.0920645839
C   C54       1.0  0.84100  0.55650  0.70770  1.0000 -0.0230225097
C   C55       1.0  0.44600  0.51430  0.57688  1.0000 -0.1117241702
C   C56       1.0  0.55740  0.47360  0.58588  1.0000 0.0015076974
C   C57       1.0  0.20040  0.53210  0.57076  1.0000 0.5593806782
C   C58       1.0  0.69170  0.50470  0.57745  1.0000 0.5199173072
C   C59       1.0  0.31940  0.48707  0.58133  1.0000 -0.007933733
C   C60       1.0  0.41690  0.37940  0.60860  1.0000 0.0604267025
C   C61       1.0  0.30450  0.41810  0.59731  1.0000 -0.1380559935
C   C62       1.0  0.54330  0.40450  0.60237  1.0000 -0.1476801432
C   C63       1.0  0.01320  0.65938  0.46626  1.0000 0.1490226535
C   C64       1.0  0.00510  0.87670  0.18712  1.0000 0.137881629
C   C65       1.0  0.03680  0.75030  0.38397  1.0000 0.334117187
C   C66       1.0  0.97080  0.80001  0.34940  1.0000 -0.3103108911
C   C67       1.0  0.19980  0.74670  0.31040  1.0000 0.2336573207
C   C68       1.0  0.03180  0.82000  0.29238  1.0000 0.3435075262
C   C69       1.0  0.84900  0.69850  0.52090  1.0000 -0.0254394526
C   C70       1.0  0.87600  0.74770  0.47690  1.0000 -0.0972410312
C   C71       1.0  0.86690  0.91130  0.26350  1.0000 -0.0920645839
C   C72       1.0  0.84100  0.94350  0.20770  1.0000 -0.0230225097
C   C73       1.0  0.94600  0.51430  0.92312  1.0000 -0.1117241702
C   C74       1.0  0.05740  0.47360  0.91412  1.0000 0.0015076974
C   C75       1.0  0.70040  0.53210  0.92924  1.0000 0.5593806782
C   C76       1.0  0.19170  0.50470  0.92255  1.0000 0.5199173072
C   C77       1.0  0.81940  0.48707  0.91867  1.0000 -0.007933733
C   C78       1.0  0.91690  0.37940  0.89140  1.0000 0.0604267025
C   C79       1.0  0.80450  0.41810  0.90269  1.0000 -0.1380559935
C   C80       1.0  0.04330  0.40450  0.89763  1.0000 -0.1476801432
C   C81       1.0  0.51320  0.65938  0.03374  1.0000 0.1490226535
C   C82       1.0  0.50510  0.87670  0.31288  1.0000 0.137881629
C   C83       1.0  0.53680  0.75030  0.11603  1.0000 0.334117187
C   C84       1.0  0.47080  0.80001  0.15060  1.0000 -0.3103108911
C   C85       1.0  0.69980  0.74670  0.18960  1.0000 0.2336573207
C   C86       1.0  0.53180  0.82000  0.20762  1.0000 0.3435075262
C   C87       1.0  0.34900  0.69850  0.97910  1.0000 -0.0230225097
C   C88       1.0  0.37600  0.74770  0.02310  1.0000 -0.0972410312
C   C89       1.0  0.36690  0.91130  0.23650  1.0000 -0.0920645839
C   C90       1.0  0.34100  0.94350  0.29230  1.0000 -0.0230225097
C   C91       1.0  0.94600  0.98570  0.42312  1.0000 -0.1117241702
C   C92       1.0  0.05740  0.02640  0.41412  1.0000 0.0015076974
C   C93       1.0  0.70040  0.96790  0.42924  1.0000 0.5593806782
C   C94       1.0  0.19170  0.99530  0.42255  1.0000 0.5199173072
C   C95       1.0  0.81940  0.01293  0.41867  1.0000 -0.007933733
C   C96       1.0  0.91690  0.12060  0.39140  1.0000 0.0604267025
C   C97       1.0  0.80450  0.08190  0.40269  1.0000 -0.1380559935
C   C98       1.0  0.04330  0.09550  0.39763  1.0000 -0.1476801432
C   C99       1.0  0.51320  0.84062  0.53374  1.0000 0.1490226535
C   C100      1.0  0.50510  0.62330  0.81288  1.0000 0.137881629
C   C101      1.0  0.53680  0.74970  0.61603  1.0000 0.334117187
C   C102      1.0  0.47080  0.69999  0.65060  1.0000 -0.3103108911
C   C103      1.0  0.69980  0.75330  0.68960  1.0000 0.2336573207
C   C104      1.0  0.53180  0.68000  0.70762  1.0000 0.3435075262
C   C105      1.0  0.34900  0.80150  0.47910  1.0000 -0.0254394526
C   C106      1.0  0.37600  0.75230  0.52310  1.0000 -0.0972410312
C   C107      1.0  0.36690  0.58870  0.73650  1.0000 -0.0920645839
C   C108      1.0  0.34100  0.55650  0.79230  1.0000 -0.0230225097
C   C109      1.0  0.55400  0.48570  0.42312  1.0000 -0.1117241702
C   C110      1.0  0.44260  0.52640  0.41412  1.0000 0.0015076974
C   C111      1.0  0.79960  0.46790  0.42924  1.0000 0.5593806782
C   C112      1.0  0.30830  0.49530  0.42255  1.0000 0.5199173072
C   C113      1.0  0.68060  0.51293  0.41867  1.0000 -0.007933733
C   C114      1.0  0.58310  0.62060  0.39140  1.0000 0.0604267025
C   C115      1.0  0.69550  0.58190  0.40269  1.0000 -0.1380559935
C   C116      1.0  0.45670  0.59550  0.39763  1.0000 -0.1476801432
C   C117      1.0  0.98680  0.34062  0.53374  1.0000 0.1490226535
C   C118      1.0  0.99490  0.12330  0.81288  1.0000 0.137881629
C   C119      1.0  0.96320  0.24970  0.61603  1.0000 0.334117187
C   C120      1.0  0.02920  0.19999  0.65060  1.0000 -0.3103108911
C   C121      1.0  0.80020  0.25330  0.68960  1.0000 0.2336573207
C   C122      1.0  0.96820  0.18000  0.70762  1.0000 0.3435075262
C   C123      1.0  0.15100  0.30150  0.47910  1.0000 -0.0254394526
C   C124      1.0  0.12400  0.25230  0.52310  1.0000 -0.0972410312
C   C125      1.0  0.13310  0.08870  0.73650  1.0000 -0.0920645839
C   C126      1.0  0.15900  0.05650  0.79230  1.0000 -0.0230225097
C   C127      1.0  0.55400  0.01430  0.92312  1.0000 -0.1117241702
C   C128      1.0  0.44260  0.97360  0.91412  1.0000 0.0015076974
C   C129      1.0  0.79960  0.03210  0.92924  1.0000 0.5593806782
C   C130      1.0  0.30830  0.00470  0.92255  1.0000 0.5199173072
C   C131      1.0  0.68060  0.98707  0.91867  1.0000 -0.007933733
C   C132      1.0  0.58310  0.87940  0.89140  1.0000 0.0604267025
C   C133      1.0  0.69550  0.91810  0.90269  1.0000 -0.1380559935
C   C134      1.0  0.45670  0.90450  0.89763  1.0000 -0.1476801432
C   C135      1.0  0.98680  0.15938  0.03374  1.0000 0.1490226535
C   C136      1.0  0.99490  0.37670  0.31288  1.0000 0.137881629
C   C137      1.0  0.96320  0.25030  0.11603  1.0000 0.334117187
C   C138      1.0  0.02920  0.30001  0.15060  1.0000 -0.3103108911
C   C139      1.0  0.80020  0.24670  0.18960  1.0000 0.2336573207
C   C140      1.0  0.96820  0.32000  0.20762  1.0000 0.3435075262
C   C141      1.0  0.15100  0.19850  0.97910  1.0000 -0.0230225097
C   C142      1.0  0.12400  0.24770  0.02310  1.0000 -0.0972410312
C   C143      1.0  0.13310  0.41130  0.23650  1.0000 -0.0920645839
C   C144      1.0  0.15900  0.44350  0.29230  1.0000 -0.0230225097
N   N1        1.0  0.51790  0.22239  0.44107  1.0000 -0.0230225097
N   N2        1.0  0.57240  0.42149  0.15953  1.0000 -0.2892596221
N   N3        1.0  0.56480  0.14369  0.51389  1.0000 -0.2892596221
N   N4        1.0  0.34810  0.22321  0.36625  1.0000 -0.3639146837
N   N5        1.0  0.52720  0.36805  0.25095  1.0000 -0.0230225097
N   N6        1.0  0.09990  0.80760  0.62970  1.0000 0.5073770338
N   N7        1.0  0.35310  0.29415  0.27217  1.0000 -0.3639146837
N   N8        1.0  0.51790  0.27761  0.94107  1.0000 -0.0230225097
N   N9        1.0  0.57240  0.07851  0.65953  1.0000 -0.2892596221
N   N10       1.0  0.56480  0.35631  0.01389  1.0000 -0.2892596221
N   N11       1.0  0.34810  0.27679  0.86625  1.0000 -0.3639146837
N   N12       1.0  0.52720  0.13195  0.75095  1.0000 -0.0230225097
N   N13       1.0  0.09990  0.69240  0.12970  1.0000 0.5073770338
N   N14       1.0  0.35310  0.20585  0.77217  1.0000 -0.3639146837
N   N15       1.0  0.98210  0.77761  0.94107  1.0000 -0.0230225097
N   N16       1.0  0.92760  0.57851  0.65953  1.0000 -0.2892596221
N   N17       1.0  0.93520  0.85631  0.01389  1.0000 -0.2892596221
N   N18       1.0  0.15190  0.77679  0.86625  1.0000 -0.3639146837
N   N19       1.0  0.97280  0.63195  0.75095  1.0000 -0.0230225097
N   N20       1.0  0.40010  0.19240  0.12970  1.0000 0.5073770338
N   N21       1.0  0.14690  0.70585  0.77217  1.0000 -0.3639146837
N   N22       1.0  0.98210  0.72239  0.44107  1.0000 -0.0230225097
N   N23       1.0  0.92760  0.92149  0.15953  1.0000 -0.2892596221
N   N24       1.0  0.93520  0.64369  0.51389  1.0000 -0.2892596221
N   N25       1.0  0.15190  0.72321  0.36625  1.0000 -0.3639146837
N   N26       1.0  0.97280  0.86805  0.25095  1.0000 -0.0230225097
N   N27       1.0  0.40010  0.30760  0.62970  1.0000 0.5073770338
N   N28       1.0  0.14690  0.79415  0.27217  1.0000 -0.3639146837
N   N29       1.0  0.48210  0.72239  0.05893  1.0000 -0.0230225097
N   N30       1.0  0.42760  0.92149  0.34047  1.0000 -0.2892596221
N   N31       1.0  0.43520  0.64369  0.98611  1.0000 -0.2892596221
N   N32       1.0  0.65190  0.72321  0.13375  1.0000 -0.3639146837
N   N33       1.0  0.47280  0.86805  0.24905  1.0000 -0.0230225097
N   N34       1.0  0.90010  0.30760  0.87030  1.0000 0.5073770338
N   N35       1.0  0.64690  0.79415  0.22783  1.0000 -0.3639146837
N   N36       1.0  0.48210  0.77761  0.55893  1.0000 -0.0230225097
N   N37       1.0  0.42760  0.57851  0.84047  1.0000 -0.2892596221
N   N38       1.0  0.43520  0.85631  0.48611  1.0000 -0.2892596221
N   N39       1.0  0.65190  0.77679  0.63375  1.0000 -0.3639146837
N   N40       1.0  0.47280  0.63195  0.74905  1.0000 -0.0230225097
N   N41       1.0  0.90010  0.19240  0.37030  1.0000 0.5073770338
N   N42       1.0  0.64690  0.70585  0.72783  1.0000 -0.3639146837
N   N43       1.0  0.01790  0.27761  0.55893  1.0000 -0.0230225097
N   N44       1.0  0.07240  0.07851  0.84047  1.0000 -0.2892596221
N   N45       1.0  0.06480  0.35631  0.48611  1.0000 -0.2892596221
N   N46       1.0  0.84810  0.27679  0.63375  1.0000 -0.3639146837
N   N47       1.0  0.02720  0.13195  0.74905  1.0000 -0.0230225097
N   N48       1.0  0.59990  0.69240  0.37030  1.0000 0.5073770338
N   N49       1.0  0.85310  0.20585  0.72783  1.0000 -0.3639146837
N   N50       1.0  0.01790  0.22239  0.05893  1.0000 -0.0230225097
N   N51       1.0  0.07240  0.42149  0.34047  1.0000 -0.2892596221
N   N52       1.0  0.06480  0.14369  0.98611  1.0000 -0.2892596221
N   N53       1.0  0.84810  0.22321  0.13375  1.0000 -0.3639146837
N   N54       1.0  0.02720  0.36805  0.24905  1.0000 -0.0230225097
N   N55       1.0  0.59990  0.80760  0.87030  1.0000 0.5073770338
N   N56       1.0  0.85310  0.29415  0.22783  1.0000 -0.3639146837
O   O1        1.0  0.40560  0.00179  0.55163  1.0000 -0.56935096
O   O2        1.0  0.70720  0.96667  0.57969  1.0000 -0.5122295937
O   O3        1.0  0.79740  0.06803  0.56788  1.0000 -0.5238605907
O   O4        1.0  0.28870  0.09491  0.58125  1.0000 -0.5529754481
O   O5        1.0  0.21130  0.78642  0.64010  1.0000 -0.3103108911
O   O6        1.0  0.00190  0.77348  0.63780  1.0000 -0.3012800722
O   O7        1.0  0.40560  0.49821  0.05163  1.0000 -0.56935096
O   O8        1.0  0.70720  0.53333  0.07969  1.0000 -0.5122295937
O   O9        1.0  0.79740  0.43197  0.06788  1.0000 -0.5238605907
O   O10       1.0  0.28870  0.40509  0.08125  1.0000 -0.5529754481
O   O11       1.0  0.21130  0.71358  0.14010  1.0000 -0.3103108911
O   O12       1.0  0.00190  0.72652  0.13780  1.0000 -0.3012800722
O   O13       1.0  0.09440  0.99821  0.05163  1.0000 -0.56935096
O   O14       1.0  0.79280  0.03333  0.07969  1.0000 -0.5122295937
O   O15       1.0  0.70260  0.93197  0.06788  1.0000 -0.5238605907
O   O16       1.0  0.21130  0.90509  0.08125  1.0000 -0.5529754481
O   O17       1.0  0.28870  0.21358  0.14010  1.0000 -0.3103108911
O   O18       1.0  0.49810  0.22652  0.13780  1.0000 -0.3012800722
O   O19       1.0  0.09440  0.50179  0.55163  1.0000 -0.56935096
O   O20       1.0  0.79280  0.46667  0.57969  1.0000 -0.5122295937
O   O21       1.0  0.70260  0.56803  0.56788  1.0000 -0.5238605907
O   O22       1.0  0.21130  0.59491  0.58125  1.0000 -0.5529754481
O   O23       1.0  0.28870  0.28642  0.64010  1.0000 -0.3103108911
O   O24       1.0  0.49810  0.27348  0.63780  1.0000 -0.3012800722
O   O25       1.0  0.59440  0.50179  0.94837  1.0000 -0.56935096
O   O26       1.0  0.29280  0.46667  0.92031  1.0000 -0.5122295937
O   O27       1.0  0.20260  0.56803  0.93212  1.0000 -0.5238605907
O   O28       1.0  0.71130  0.59491  0.91875  1.0000 -0.5529754481
O   O29       1.0  0.78870  0.28642  0.85990  1.0000 -0.3103108911
O   O30       1.0  0.99810  0.27348  0.86220  1.0000 -0.3012800722
O   O31       1.0  0.59440  0.99821  0.44837  1.0000 -0.56935096
O   O32       1.0  0.29280  0.03333  0.42031  1.0000 -0.5122295937
O   O33       1.0  0.20260  0.93197  0.43212  1.0000 -0.5238605907
O   O34       1.0  0.71130  0.90509  0.41875  1.0000 -0.5529754481
O   O35       1.0  0.78870  0.21358  0.35990  1.0000 -0.3103108911
O   O36       1.0  0.99810  0.22652  0.36220  1.0000 -0.3012800722
O   O37       1.0  0.90560  0.49821  0.44837  1.0000 -0.56935096
O   O38       1.0  0.20720  0.53333  0.42031  1.0000 -0.5122295937
O   O39       1.0  0.29740  0.43197  0.43212  1.0000 -0.5238605907
O   O40       1.0  0.78870  0.40509  0.41875  1.0000 -0.5529754481
O   O41       1.0  0.71130  0.71358  0.35990  1.0000 -0.3103108911
O   O42       1.0  0.50190  0.72652  0.36220  1.0000 -0.3012800722
O   O43       1.0  0.90560  0.00179  0.94837  1.0000 -0.56935096
O   O44       1.0  0.20720  0.96667  0.92031  1.0000 -0.5122295937
O   O45       1.0  0.29740  0.06803  0.93212  1.0000 -0.5238605907
O   O46       1.0  0.78870  0.09491  0.91875  1.0000 -0.5529754481
O   O47       1.0  0.71130  0.78642  0.85990  1.0000 -0.3103108911
O   O48       1.0  0.50190  0.77348  0.86220  1.0000 -0.3012800722
