# DDEC6 charges by PACMAN v1.1 (https://github.com/mtap-research/PACMAN-charge/)
data_2017[Er][nan]3[ASR]2
_chemical_formula_sum              "Er6 H80 C128 O32"
_cell_length_a       17.2949
_cell_length_b       17.2949
_cell_length_c       25.8822
_cell_angle_alpha    89.9929
_cell_angle_beta     90.0071
_cell_angle_gamma    124.557

_symmetry_space_group_name_H-M    "P 1"
_symmetry_Int_Tables_number       1

loop_
  _symmetry_equiv_pos_as_xyz
  'x, y, z'

loop_
  _atom_site_type_symbol
  _atom_site_label
  _atom_site_symmetry_multiplicity
  _atom_site_fract_x
  _atom_site_fract_y
  _atom_site_fract_z
  _atom_site_occupancy
  _atom_site_charge
Er  Er1       1.0  0.91132  0.91022  0.93719  1.0000 2.0887482986
Er  Er2       1.0  0.08978  0.08868  0.43719  1.0000 2.0887482986
Er  Er3       1.0  0.78593  0.78413  0.74971  1.0000 2.0709501132
Er  Er4       1.0  0.21587  0.21407  0.24971  1.0000 2.0709501132
Er  Er5       1.0  0.92342  0.92142  0.56282  1.0000 2.0780347214
Er  Er6       1.0  0.07858  0.07658  0.06282  1.0000 2.0780347214
H   H1        1.0  0.88070  0.61990  0.79120  1.0000 0.1100551947
H   H2        1.0  0.38010  0.11930  0.29120  1.0000 0.1100551947
H   H3        1.0  0.93230  0.52410  0.81200  1.0000 0.1100551947
H   H4        1.0  0.47590  0.06770  0.31200  1.0000 0.1100551947
H   H5        1.0  0.00800  0.63860  0.95040  1.0000 0.1008500364
H   H6        1.0  0.36140  0.99200  0.45040  1.0000 0.1008500364
H   H7        1.0  0.95800  0.73660  0.93160  1.0000 0.1100551947
H   H8        1.0  0.26340  0.04200  0.43160  1.0000 0.1100551947
H   H9        1.0  0.06210  0.53730  0.91410  1.0000 0.1210008149
H   H10       1.0  0.46270  0.93790  0.41410  1.0000 0.1210008149
H   H11       1.0  0.59950  0.82510  0.80230  1.0000 0.1100551947
H   H12       1.0  0.17490  0.40050  0.30230  1.0000 0.1100551947
H   H13       1.0  0.48330  0.85670  0.81150  1.0000 0.1100551947
H   H14       1.0  0.14330  0.51670  0.31150  1.0000 0.1100551947
H   H15       1.0  0.63890  0.04510  0.92070  1.0000 0.1100551947
H   H16       1.0  0.95490  0.36110  0.42070  1.0000 0.1100551947
H   H17       1.0  0.75660  0.01560  0.91170  1.0000 0.1100551947
H   H18       1.0  0.98440  0.24340  0.41170  1.0000 0.1100551947
H   H19       1.0  0.42940  0.92480  0.84700  1.0000 0.1210008149
H   H20       1.0  0.07520  0.57060  0.34700  1.0000 0.1210008149
H   H21       1.0  0.92240  0.14580  0.87720  1.0000 0.1210008149
H   H22       1.0  0.85420  0.07760  0.37720  1.0000 0.1210008149
H   H23       1.0  0.90350  0.26370  0.85020  1.0000 0.1100551947
H   H24       1.0  0.73630  0.09650  0.35020  1.0000 0.1100551947
H   H25       1.0  0.07060  0.42600  0.96320  1.0000 0.1100551947
H   H26       1.0  0.57400  0.92940  0.46320  1.0000 0.1100551947
H   H27       1.0  0.09150  0.30990  0.99120  1.0000 0.1100551947
H   H28       1.0  0.69010  0.90850  0.49120  1.0000 0.1100551947
H   H29       1.0  0.92220  0.40360  0.85930  1.0000 0.1100551947
H   H30       1.0  0.59640  0.07780  0.35930  1.0000 0.1100551947
H   H31       1.0  0.70950  0.92310  0.99400  1.0000 0.1100551947
H   H32       1.0  0.07690  0.29050  0.49400  1.0000 0.1100551947
H   H33       1.0  0.57540  0.92180  0.01130  1.0000 0.1100551947
H   H34       1.0  0.07820  0.42460  0.51130  1.0000 0.1100551947
H   H35       1.0  0.68540  0.05540  0.14310  1.0000 0.1100551947
H   H36       1.0  0.94460  0.31460  0.64310  1.0000 0.1100551947
H   H37       1.0  0.82080  0.05780  0.12730  1.0000 0.1260481651
H   H38       1.0  0.94220  0.17920  0.62730  1.0000 0.1260481651
H   H39       1.0  0.47530  0.93610  0.06890  1.0000 0.1210008149
H   H40       1.0  0.06390  0.52470  0.56890  1.0000 0.1210008149
H   H41       1.0  0.61710  0.86730  0.70550  1.0000 0.1100551947
H   H42       1.0  0.13270  0.38290  0.20550  1.0000 0.1100551947
H   H43       1.0  0.50090  0.89310  0.68490  1.0000 0.1100551947
H   H44       1.0  0.10690  0.49910  0.18490  1.0000 0.1100551947
H   H45       1.0  0.64500  0.03220  0.55970  1.0000 0.1008500364
H   H46       1.0  0.96780  0.35500  0.05970  1.0000 0.1008500364
H   H47       1.0  0.76260  0.00800  0.57960  1.0000 0.1100551947
H   H48       1.0  0.99200  0.23740  0.07960  1.0000 0.1100551947
H   H49       1.0  0.49030  0.99110  0.56890  1.0000 0.1100551947
H   H50       1.0  0.00890  0.50970  0.06890  1.0000 0.1100551947
H   H51       1.0  0.37600  0.13320  0.20710  1.0000 0.1100551947
H   H52       1.0  0.86680  0.62400  0.70710  1.0000 0.1100551947
H   H53       1.0  0.49380  0.10720  0.19280  1.0000 0.1100551947
H   H54       1.0  0.89280  0.50620  0.69280  1.0000 0.1100551947
H   H55       1.0  0.38770  0.00670  0.05420  1.0000 0.1008500364
H   H56       1.0  0.99330  0.61230  0.55420  1.0000 0.1008500364
H   H57       1.0  0.26840  0.03100  0.06720  1.0000 0.1100551947
H   H58       1.0  0.96900  0.73160  0.56720  1.0000 0.1100551947
H   H59       1.0  0.58090  0.07850  0.13090  1.0000 0.1100551947
H   H60       1.0  0.92150  0.41910  0.63090  1.0000 0.1100551947
H   H61       1.0  0.15570  0.95310  0.62730  1.0000 0.1260481651
H   H62       1.0  0.04690  0.84430  0.12730  1.0000 0.1260481651
H   H63       1.0  0.27210  0.93570  0.66190  1.0000 0.1100551947
H   H64       1.0  0.06430  0.72790  0.16190  1.0000 0.1100551947
H   H65       1.0  0.44150  0.07770  0.54410  1.0000 0.1008500364
H   H66       1.0  0.92230  0.55850  0.04410  1.0000 0.1008500364
H   H67       1.0  0.32750  0.09710  0.50770  1.0000 0.1100551947
H   H68       1.0  0.90290  0.67250  0.00770  1.0000 0.1100551947
H   H69       1.0  0.43810  0.99050  0.66490  1.0000 0.1100551947
H   H70       1.0  0.00950  0.56190  0.16490  1.0000 0.1100551947
H   H71       1.0  0.29950  0.08530  0.99750  1.0000 0.1100551947
H   H72       1.0  0.91470  0.70050  0.49750  1.0000 0.1100551947
H   H73       1.0  0.42680  0.08280  0.96740  1.0000 0.1008500364
H   H74       1.0  0.91720  0.57320  0.46740  1.0000 0.1008500364
H   H75       1.0  0.28150  0.93230  0.84550  1.0000 0.1100551947
H   H76       1.0  0.06770  0.71850  0.34550  1.0000 0.1100551947
H   H77       1.0  0.15220  0.93300  0.87370  1.0000 0.1260481651
H   H78       1.0  0.06700  0.84780  0.37370  1.0000 0.1260481651
H   H79       1.0  0.50320  0.06940  0.89780  1.0000 0.1210008149
H   H80       1.0  0.93060  0.49680  0.39780  1.0000 0.1210008149
C   C1        1.0  0.88200  0.75120  0.84640  1.0000 0.6803731844
C   C2        1.0  0.24880  0.11800  0.34640  1.0000 0.6803731844
C   C3        1.0  0.91450  0.68790  0.85910  1.0000 -0.0461240345
C   C4        1.0  0.31210  0.08550  0.35910  1.0000 -0.0461240345
C   C5        1.0  0.90650  0.62470  0.82350  1.0000 -0.1000899066
C   C6        1.0  0.37530  0.09350  0.32350  1.0000 -0.1000899066
C   C7        1.0  0.93770  0.56650  0.83630  1.0000 -0.1814275845
C   C8        1.0  0.43350  0.06230  0.33630  1.0000 -0.1814275845
C   C9        1.0  0.97510  0.57170  0.88340  1.0000 0.1100551947
C   C10       1.0  0.42830  0.02490  0.38340  1.0000 0.1100551947
C   C11       1.0  0.98230  0.63450  0.91810  1.0000 -0.1870210973
C   C12       1.0  0.36550  0.01770  0.41810  1.0000 -0.1814275845
C   C13       1.0  0.95230  0.69430  0.90700  1.0000 -0.0918701705
C   C14       1.0  0.30570  0.04770  0.40700  1.0000 -0.0918701705
C   C15       1.0  0.00640  0.50960  0.89550  1.0000 -0.1292099505
C   C16       1.0  0.49040  0.99360  0.39550  1.0000 -0.1292099505
C   C17       1.0  0.76060  0.89560  0.84880  1.0000 0.6567666556
C   C18       1.0  0.10440  0.23940  0.34880  1.0000 0.6567666556
C   C19       1.0  0.68770  0.91770  0.85590  1.0000 -0.0397734521
C   C20       1.0  0.08230  0.31230  0.35590  1.0000 -0.0397734521
C   C21       1.0  0.60770  0.86950  0.82600  1.0000 -0.0918701705
C   C22       1.0  0.13050  0.39230  0.32600  1.0000 -0.0918701705
C   C23       1.0  0.53760  0.88800  0.83140  1.0000 -0.1814275845
C   C24       1.0  0.11200  0.46240  0.33140  1.0000 -0.1814275845
C   C25       1.0  0.55330  0.95350  0.86690  1.0000 0.1008500364
C   C26       1.0  0.04650  0.44670  0.36690  1.0000 0.1008500364
C   C27       1.0  0.63160  0.00120  0.89680  1.0000 -0.1870210973
C   C28       1.0  0.99880  0.36840  0.39680  1.0000 -0.1870210973
C   C29       1.0  0.70240  0.98360  0.89160  1.0000 -0.0918701705
C   C30       1.0  0.01640  0.29760  0.39160  1.0000 -0.0918701705
C   C31       1.0  0.47630  0.96750  0.86960  1.0000 -0.1110399432
C   C32       1.0  0.03250  0.52370  0.36960  1.0000 -0.1110399432
C   C33       1.0  0.01810  0.13610  0.95220  1.0000 0.6404565697
C   C34       1.0  0.86390  0.98190  0.45220  1.0000 0.6404565697
C   C35       1.0  0.00870  0.21530  0.93660  1.0000 -0.0397734521
C   C36       1.0  0.78470  0.99130  0.43660  1.0000 -0.0397734521
C   C37       1.0  0.95310  0.20250  0.89500  1.0000 -0.1000899066
C   C38       1.0  0.79750  0.04690  0.39500  1.0000 -0.1000899066
C   C39       1.0  0.94120  0.27380  0.87850  1.0000 -0.1814275845
C   C40       1.0  0.72620  0.05880  0.37850  1.0000 -0.1814275845
C   C41       1.0  0.98550  0.35670  0.90440  1.0000 0.1008500364
C   C42       1.0  0.64330  0.01450  0.40440  1.0000 0.1008500364
C   C43       1.0  0.04030  0.36910  0.94550  1.0000 -0.1870210973
C   C44       1.0  0.63090  0.95970  0.44550  1.0000 -0.1870210973
C   C45       1.0  0.05350  0.29910  0.96290  1.0000 -0.0918701705
C   C46       1.0  0.70090  0.94650  0.46290  1.0000 -0.0918701705
C   C47       1.0  0.96910  0.42690  0.88440  1.0000 -0.1110399432
C   C48       1.0  0.57310  0.03090  0.38440  1.0000 -0.1110399432
C   C49       1.0  0.86540  0.99160  0.04680  1.0000 0.6404565697
C   C50       1.0  0.00840  0.13460  0.54680  1.0000 0.6404565697
C   C51       1.0  0.77900  0.99100  0.05890  1.0000 -0.0397734521
C   C52       1.0  0.00900  0.22100  0.55890  1.0000 -0.0397734521
C   C53       1.0  0.70590  0.95010  0.02420  1.0000 -0.0918701705
C   C54       1.0  0.04990  0.29410  0.52420  1.0000 -0.0918701705
C   C55       1.0  0.62460  0.94940  0.03490  1.0000 -0.1814275845
C   C56       1.0  0.05060  0.37540  0.53490  1.0000 -0.1814275845
C   C57       1.0  0.61740  0.98820  0.07880  1.0000 0.1008500364
C   C58       1.0  0.01180  0.38260  0.57880  1.0000 0.1008500364
C   C59       1.0  0.68970  0.02850  0.11300  1.0000 -0.1814275845
C   C60       1.0  0.97150  0.31030  0.61300  1.0000 -0.1814275845
C   C61       1.0  0.77200  0.03020  0.10350  1.0000 -0.0918701705
C   C62       1.0  0.96980  0.22800  0.60350  1.0000 -0.0918701705
C   C63       1.0  0.52940  0.98320  0.08570  1.0000 -0.1292099505
C   C64       1.0  0.01680  0.47060  0.58570  1.0000 -0.1292099505
C   C65       1.0  0.77970  0.92190  0.65520  1.0000 0.6655951664
C   C66       1.0  0.07810  0.22030  0.15520  1.0000 0.6655951664
C   C67       1.0  0.70110  0.93470  0.64490  1.0000 -0.0461240345
C   C68       1.0  0.06530  0.29890  0.14490  1.0000 -0.0461240345
C   C69       1.0  0.62360  0.90100  0.67590  1.0000 -0.1000899066
C   C70       1.0  0.09900  0.37640  0.17590  1.0000 -0.1000899066
C   C71       1.0  0.55290  0.91630  0.66360  1.0000 -0.1814275845
C   C72       1.0  0.08370  0.44710  0.16360  1.0000 -0.1814275845
C   C73       1.0  0.56300  0.96540  0.62020  1.0000 0.1210008149
C   C74       1.0  0.03460  0.43700  0.12020  1.0000 0.1100551947
C   C75       1.0  0.63930  0.99890  0.58940  1.0000 -0.1702733486
C   C76       1.0  0.00110  0.36070  0.08940  1.0000 -0.1702733486
C   C77       1.0  0.71080  0.98440  0.60110  1.0000 -0.1000899066
C   C78       1.0  0.01560  0.28920  0.10110  1.0000 -0.1000899066
C   C79       1.0  0.49260  0.98420  0.60440  1.0000 -0.1397818699
C   C80       1.0  0.01580  0.50740  0.10440  1.0000 -0.1397818699
C   C81       1.0  0.23670  0.10350  0.15130  1.0000 0.6803731844
C   C82       1.0  0.89650  0.76330  0.65130  1.0000 0.6803731844
C   C83       1.0  0.31070  0.08470  0.13900  1.0000 -0.0397734521
C   C84       1.0  0.91530  0.68930  0.63900  1.0000 -0.0397734521
C   C85       1.0  0.37750  0.10730  0.17600  1.0000 -0.1000899066
C   C86       1.0  0.89270  0.62250  0.67600  1.0000 -0.1000899066
C   C87       1.0  0.44920  0.09180  0.16750  1.0000 -0.1814275845
C   C88       1.0  0.90820  0.55080  0.66750  1.0000 -0.1814275845
C   C89       1.0  0.45150  0.05430  0.12190  1.0000 0.1008500364
C   C90       1.0  0.94570  0.54850  0.62190  1.0000 0.1008500364
C   C91       1.0  0.38540  0.03220  0.08540  1.0000 -0.1702733486
C   C92       1.0  0.96780  0.61460  0.58540  1.0000 -0.1702733486
C   C93       1.0  0.31270  0.04670  0.09270  1.0000 -0.1000899066
C   C94       1.0  0.95330  0.68730  0.59270  1.0000 -0.1000899066
C   C95       1.0  0.52600  0.03820  0.11250  1.0000 -0.1110399432
C   C96       1.0  0.96180  0.47400  0.61250  1.0000 -0.1110399432
C   C97       1.0  0.15820  0.03740  0.54220  1.0000 0.6404565697
C   C98       1.0  0.96260  0.84180  0.04220  1.0000 0.6404565697
C   C99       1.0  0.23260  0.02620  0.56460  1.0000 -0.0341054946
C   C100      1.0  0.97380  0.76740  0.06460  1.0000 -0.0341054946
C   C101      1.0  0.21270  0.97810  0.61050  1.0000 -0.0918701705
C   C102      1.0  0.02190  0.78730  0.11050  1.0000 -0.0918701705
C   C103      1.0  0.28300  0.96800  0.63110  1.0000 -0.1702733486
C   C104      1.0  0.03200  0.71700  0.13110  1.0000 -0.1702733486
C   C105      1.0  0.36570  0.00530  0.60570  1.0000 0.1008500364
C   C106      1.0  0.99470  0.63430  0.10570  1.0000 0.1008500364
C   C107      1.0  0.38430  0.05290  0.56060  1.0000 -0.1702733486
C   C108      1.0  0.94710  0.61570  0.06060  1.0000 -0.1702733486
C   C109      1.0  0.31590  0.06470  0.53860  1.0000 -0.1000899066
C   C110      1.0  0.93530  0.68410  0.03860  1.0000 -0.1000899066
C   C111      1.0  0.43610  0.99250  0.62900  1.0000 -0.1110399432
C   C112      1.0  0.00750  0.56390  0.12900  1.0000 -0.1110399432
C   C113      1.0  0.13030  0.00890  0.95640  1.0000 0.6567666556
C   C114      1.0  0.99110  0.86970  0.45640  1.0000 0.6543163881
C   C115      1.0  0.21400  0.00880  0.93800  1.0000 -0.0397734521
C   C116      1.0  0.99120  0.78600  0.43800  1.0000 -0.0397734521
C   C117      1.0  0.29480  0.05440  0.96700  1.0000 -0.0918701705
C   C118      1.0  0.94560  0.70520  0.46700  1.0000 -0.0918701705
C   C119      1.0  0.37130  0.05250  0.94840  1.0000 -0.1870210973
C   C120      1.0  0.94750  0.62870  0.44840  1.0000 -0.1870210973
C   C121      1.0  0.36610  0.00770  0.90410  1.0000 0.0917869732
C   C122      1.0  0.99230  0.63390  0.40410  1.0000 0.0917869732
C   C123      1.0  0.28570  0.96310  0.87590  1.0000 -0.1870210973
C   C124      1.0  0.03690  0.71430  0.37590  1.0000 -0.1870210973
C   C125      1.0  0.20730  0.96330  0.89290  1.0000 -0.0825093575
C   C126      1.0  0.03670  0.79270  0.39290  1.0000 -0.0825093575
C   C127      1.0  0.45050  0.01070  0.88880  1.0000 -0.1110399432
C   C128      1.0  0.98930  0.54950  0.38880  1.0000 -0.1110399432
O   O1        1.0  0.84790  0.74570  0.80330  1.0000 -0.747177042
O   O2        1.0  0.25430  0.15210  0.30330  1.0000 -0.747177042
O   O3        1.0  0.89240  0.80520  0.88150  1.0000 -0.720727779
O   O4        1.0  0.19480  0.10760  0.38150  1.0000 -0.720727779
O   O5        1.0  0.73990  0.83510  0.81560  1.0000 -0.7280533388
O   O6        1.0  0.16490  0.26010  0.31560  1.0000 -0.7280533388
O   O7        1.0  0.83130  0.94030  0.87650  1.0000 -0.6591729
O   O8        1.0  0.05970  0.16870  0.37650  1.0000 -0.6591729
O   O9        1.0  0.97470  0.06330  0.92600  1.0000 -0.6591729
O   O10       1.0  0.93670  0.02530  0.42600  1.0000 -0.6591729
O   O11       1.0  0.06950  0.15510  0.99020  1.0000 -0.6693609133
O   O12       1.0  0.84490  0.93050  0.49020  1.0000 -0.6693609133
O   O13       1.0  0.86010  0.95330  0.00520  1.0000 -0.7090134099
O   O14       1.0  0.04670  0.13990  0.50520  1.0000 -0.7090134099
O   O15       1.0  0.92660  0.03000  0.08080  1.0000 -0.6294630542
O   O16       1.0  0.97000  0.07340  0.58080  1.0000 -0.6294630542
O   O17       1.0  0.77160  0.87740  0.69460  1.0000 -0.7280533388
O   O18       1.0  0.12260  0.22840  0.19460  1.0000 -0.7280533388
O   O19       1.0  0.84660  0.95500  0.62490  1.0000 -0.6512684896
O   O20       1.0  0.04500  0.15340  0.12490  1.0000 -0.6512684896
O   O21       1.0  0.24500  0.13780  0.19450  1.0000 -0.7446358874
O   O22       1.0  0.86220  0.75500  0.69450  1.0000 -0.7446358874
O   O23       1.0  0.17680  0.08340  0.11790  1.0000 -0.720727779
O   O24       1.0  0.91660  0.82320  0.61790  1.0000 -0.720727779
O   O25       1.0  0.08500  0.00140  0.56770  1.0000 -0.6693609133
O   O26       1.0  0.99860  0.91500  0.06770  1.0000 -0.6693609133
O   O27       1.0  0.17570  0.08070  0.50100  1.0000 -0.6807289049
O   O28       1.0  0.91930  0.82430  0.00100  1.0000 -0.6807289049
O   O29       1.0  0.14370  0.05170  0.99750  1.0000 -0.7004987672
O   O30       1.0  0.94830  0.85630  0.49750  1.0000 -0.7004987672
O   O31       1.0  0.06090  0.96610  0.92770  1.0000 -0.6807289049
O   O32       1.0  0.03390  0.93910  0.42770  1.0000 -0.6807289049
