# DDEC6 charges by PACMAN v1.1 (https://github.com/mtap-research/PACMAN-charge/)
data_2017[Zn][pcu]3[ASR]20
_chemical_formula_sum              "Zn8 H48 C84 O26"
_cell_length_a       17.2027
_cell_length_b       17.2027
_cell_length_c       17.2267
_cell_angle_alpha    89.0608
_cell_angle_beta     90.9392
_cell_angle_gamma    91.5224

_symmetry_space_group_name_H-M    "P 1"
_symmetry_Int_Tables_number       1

loop_
  _symmetry_equiv_pos_as_xyz
  'x, y, z'

loop_
  _atom_site_type_symbol
  _atom_site_label
  _atom_site_symmetry_multiplicity
  _atom_site_fract_x
  _atom_site_fract_y
  _atom_site_fract_z
  _atom_site_occupancy
  _atom_site_charge
Zn  Zn1       1.0  0.91770  0.08230  0.31980  1.0000 0.9212925421
Zn  Zn2       1.0  0.91888  0.21288  0.18990  1.0000 0.9212925421
Zn  Zn3       1.0  0.78712  0.08112  0.18990  1.0000 0.9212925421
Zn  Zn4       1.0  0.78690  0.21310  0.31960  1.0000 0.9512961642
Zn  Zn5       1.0  0.08230  0.91770  0.68020  1.0000 0.9212925421
Zn  Zn6       1.0  0.21288  0.91888  0.81010  1.0000 0.9252627926
Zn  Zn7       1.0  0.08112  0.78712  0.81010  1.0000 0.9252627926
Zn  Zn8       1.0  0.21310  0.78690  0.68040  1.0000 0.9512961642
H   H1        1.0  0.78250  0.21750  0.55130  1.0000 0.1198094356
H   H2        1.0  0.77660  0.22340  0.68700  1.0000 0.1198094356
H   H3        1.0  0.93950  0.06050  0.70580  1.0000 0.1198094356
H   H4        1.0  0.94680  0.05320  0.57080  1.0000 0.1277900251
H   H5        1.0  0.94270  0.22250  0.81780  1.0000 0.1277900251
H   H6        1.0  0.77750  0.05730  0.81780  1.0000 0.1277900251
H   H7        1.0  0.92430  0.23430  0.95000  1.0000 0.1277900251
H   H8        1.0  0.76570  0.07570  0.95000  1.0000 0.1277900251
H   H9        1.0  0.77760  0.58360  0.32600  1.0000 0.1198094356
H   H10       1.0  0.41640  0.22240  0.32600  1.0000 0.1198094356
H   H11       1.0  0.78680  0.44940  0.33350  1.0000 0.1198094356
H   H12       1.0  0.55060  0.21320  0.33350  1.0000 0.1198094356
H   H13       1.0  0.94920  0.45820  0.16840  1.0000 0.1198094356
H   H14       1.0  0.54180  0.05080  0.16840  1.0000 0.1198094356
H   H15       1.0  0.94000  0.59240  0.16080  1.0000 0.1198094356
H   H16       1.0  0.40760  0.06000  0.16080  1.0000 0.1198094356
H   H17       1.0  0.78710  0.83310  0.15450  1.0000 0.1198094356
H   H18       1.0  0.16690  0.21290  0.15450  1.0000 0.1198094356
H   H19       1.0  0.93880  0.83880  0.33430  1.0000 0.1198094356
H   H20       1.0  0.16120  0.06120  0.33430  1.0000 0.1198094356
H   H21       1.0  0.93940  0.70400  0.33740  1.0000 0.1198094356
H   H22       1.0  0.29600  0.06060  0.33740  1.0000 0.1198094356
H   H23       1.0  0.78780  0.69820  0.15760  1.0000 0.1147679822
H   H24       1.0  0.30180  0.21220  0.15760  1.0000 0.1147679822
H   H25       1.0  0.21750  0.78250  0.44870  1.0000 0.1198094356
H   H26       1.0  0.22340  0.77660  0.31300  1.0000 0.1198094356
H   H27       1.0  0.06050  0.93950  0.29420  1.0000 0.1198094356
H   H28       1.0  0.05320  0.94680  0.42920  1.0000 0.1277900251
H   H29       1.0  0.22250  0.94270  0.18220  1.0000 0.1277900251
H   H30       1.0  0.05730  0.77750  0.18220  1.0000 0.1277900251
H   H31       1.0  0.23430  0.92430  0.05000  1.0000 0.1277900251
H   H32       1.0  0.07570  0.76570  0.05000  1.0000 0.1277900251
H   H33       1.0  0.58360  0.77760  0.67400  1.0000 0.1198094356
H   H34       1.0  0.22240  0.41640  0.67400  1.0000 0.1198094356
H   H35       1.0  0.44940  0.78680  0.66650  1.0000 0.1198094356
H   H36       1.0  0.21320  0.55060  0.66650  1.0000 0.1198094356
H   H37       1.0  0.45820  0.94920  0.83160  1.0000 0.1198094356
H   H38       1.0  0.05080  0.54180  0.83160  1.0000 0.1198094356
H   H39       1.0  0.59240  0.94000  0.83920  1.0000 0.1198094356
H   H40       1.0  0.06000  0.40760  0.83920  1.0000 0.1198094356
H   H41       1.0  0.83310  0.78710  0.84550  1.0000 0.1198094356
H   H42       1.0  0.21290  0.16690  0.84550  1.0000 0.1198094356
H   H43       1.0  0.83880  0.93880  0.66570  1.0000 0.1198094356
H   H44       1.0  0.06120  0.16120  0.66570  1.0000 0.1198094356
H   H45       1.0  0.70400  0.93940  0.66260  1.0000 0.1198094356
H   H46       1.0  0.06060  0.29600  0.66260  1.0000 0.1198094356
H   H47       1.0  0.69820  0.78780  0.84240  1.0000 0.1147679822
H   H48       1.0  0.21220  0.30180  0.84240  1.0000 0.1147679822
C   C1        1.0  0.86360  0.13640  0.45800  1.0000 0.5896185276
C   C2        1.0  0.81400  0.18600  0.58300  1.0000 -0.0983894208
C   C3        1.0  0.81000  0.19000  0.66400  1.0000 -0.1506035826
C   C4        1.0  0.85800  0.14200  0.70900  1.0000 0.0791101815
C   C5        1.0  0.90800  0.09200  0.67400  1.0000 -0.1506035826
C   C6        1.0  0.91300  0.08700  0.59400  1.0000 -0.0983894208
C   C7        1.0  0.86500  0.13500  0.55100  1.0000 -0.0220538118
C   C8        1.0  0.84900  0.15100  0.80100  1.0000 0.0791101815
C   C9        1.0  0.90280  0.19500  0.84300  1.0000 -0.1833439408
C   C10       1.0  0.80500  0.09720  0.84300  1.0000 -0.1833439408
C   C11       1.0  0.89630  0.19690  0.92200  1.0000 -0.0804897095
C   C12       1.0  0.80310  0.10370  0.92200  1.0000 -0.0804897095
C   C13       1.0  0.85200  0.14800  0.95700  1.0000 -0.056732289
C   C14       1.0  0.85000  0.15000  0.04400  1.0000 0.6203662889
C   C15       1.0  0.87000  0.34600  0.25200  1.0000 0.5896185276
C   C16       1.0  0.65400  0.13000  0.25200  1.0000 0.5896185276
C   C17       1.0  0.81180  0.55820  0.29400  1.0000 -0.1506035826
C   C18       1.0  0.44180  0.18820  0.29400  1.0000 -0.1506035826
C   C19       1.0  0.81780  0.47780  0.29900  1.0000 -0.0983894208
C   C20       1.0  0.52220  0.18220  0.29900  1.0000 -0.0983894208
C   C21       1.0  0.86890  0.44050  0.25200  1.0000 -0.0322001194
C   C22       1.0  0.55950  0.13110  0.25200  1.0000 -0.0322001194
C   C23       1.0  0.91470  0.48330  0.20000  1.0000 -0.0931022032
C   C24       1.0  0.51670  0.08530  0.20000  1.0000 -0.0931022032
C   C25       1.0  0.90950  0.56350  0.19550  1.0000 -0.1578490301
C   C26       1.0  0.43650  0.09050  0.19550  1.0000 -0.1578490301
C   C27       1.0  0.85790  0.60130  0.24300  1.0000 0.0585458079
C   C28       1.0  0.39870  0.14210  0.24300  1.0000 0.0585458079
C   C29       1.0  0.81760  0.80720  0.19120  1.0000 -0.1084001133
C   C30       1.0  0.19280  0.18240  0.19120  1.0000 -0.1084001133
C   C31       1.0  0.86290  0.84930  0.24400  1.0000 -0.0220538118
C   C32       1.0  0.15070  0.13710  0.24400  1.0000 -0.0220538118
C   C33       1.0  0.90850  0.81070  0.29890  1.0000 -0.0983894208
C   C34       1.0  0.18930  0.09150  0.29890  1.0000 -0.0983894208
C   C35       1.0  0.90890  0.72990  0.30070  1.0000 -0.1578490301
C   C36       1.0  0.27010  0.09110  0.30070  1.0000 -0.1578490301
C   C37       1.0  0.86370  0.68770  0.24800  1.0000 0.0691865185
C   C38       1.0  0.31230  0.13630  0.24800  1.0000 0.0691865185
C   C39       1.0  0.81800  0.72640  0.19300  1.0000 -0.1506035826
C   C40       1.0  0.27360  0.18200  0.19300  1.0000 -0.1506035826
C   C41       1.0  0.85400  0.94200  0.25200  1.0000 0.5797855244
C   C42       1.0  0.05800  0.14600  0.25200  1.0000 0.5797855244
C   C43       1.0  0.13640  0.86360  0.54200  1.0000 0.5896185276
C   C44       1.0  0.18600  0.81400  0.41700  1.0000 -0.0983894208
C   C45       1.0  0.19000  0.81000  0.33600  1.0000 -0.1506035826
C   C46       1.0  0.14200  0.85800  0.29100  1.0000 0.0791101815
C   C47       1.0  0.09200  0.90800  0.32600  1.0000 -0.1506035826
C   C48       1.0  0.08700  0.91300  0.40600  1.0000 -0.0983894208
C   C49       1.0  0.13500  0.86500  0.44900  1.0000 -0.0220538118
C   C50       1.0  0.15100  0.84900  0.19900  1.0000 0.0791101815
C   C51       1.0  0.19500  0.90280  0.15700  1.0000 -0.1833439408
C   C52       1.0  0.09720  0.80500  0.15700  1.0000 -0.1833439408
C   C53       1.0  0.19690  0.89630  0.07800  1.0000 -0.0804897095
C   C54       1.0  0.10370  0.80310  0.07800  1.0000 -0.0804897095
C   C55       1.0  0.14800  0.85200  0.04300  1.0000 -0.056732289
C   C56       1.0  0.15000  0.85000  0.95600  1.0000 0.6203662889
C   C57       1.0  0.34600  0.87000  0.74800  1.0000 0.5896185276
C   C58       1.0  0.13000  0.65400  0.74800  1.0000 0.5896185276
C   C59       1.0  0.55820  0.81180  0.70600  1.0000 -0.1506035826
C   C60       1.0  0.18820  0.44180  0.70600  1.0000 -0.1506035826
C   C61       1.0  0.47780  0.81780  0.70100  1.0000 -0.0983894208
C   C62       1.0  0.18220  0.52220  0.70100  1.0000 -0.0983894208
C   C63       1.0  0.44050  0.86890  0.74800  1.0000 -0.0322001194
C   C64       1.0  0.13110  0.55950  0.74800  1.0000 -0.0322001194
C   C65       1.0  0.48330  0.91470  0.80000  1.0000 -0.0931022032
C   C66       1.0  0.08530  0.51670  0.80000  1.0000 -0.0931022032
C   C67       1.0  0.56350  0.90950  0.80450  1.0000 -0.1578490301
C   C68       1.0  0.09050  0.43650  0.80450  1.0000 -0.1578490301
C   C69       1.0  0.60130  0.85790  0.75700  1.0000 0.0585458079
C   C70       1.0  0.14210  0.39870  0.75700  1.0000 0.0585458079
C   C71       1.0  0.80720  0.81760  0.80880  1.0000 -0.1084001133
C   C72       1.0  0.18240  0.19280  0.80880  1.0000 -0.1084001133
C   C73       1.0  0.84930  0.86290  0.75600  1.0000 -0.0220538118
C   C74       1.0  0.13710  0.15070  0.75600  1.0000 -0.0220538118
C   C75       1.0  0.81070  0.90850  0.70110  1.0000 -0.0983894208
C   C76       1.0  0.09150  0.18930  0.70110  1.0000 -0.0983894208
C   C77       1.0  0.72990  0.90890  0.69930  1.0000 -0.1578490301
C   C78       1.0  0.09110  0.27010  0.69930  1.0000 -0.1578490301
C   C79       1.0  0.68770  0.86370  0.75200  1.0000 0.0691865185
C   C80       1.0  0.13630  0.31230  0.75200  1.0000 0.0691865185
C   C81       1.0  0.72640  0.81800  0.80700  1.0000 -0.1506035826
C   C82       1.0  0.18200  0.27360  0.80700  1.0000 -0.1506035826
C   C83       1.0  0.94200  0.85400  0.74800  1.0000 0.5797855244
C   C84       1.0  0.14600  0.05800  0.74800  1.0000 0.5797855244
O   O1        1.0  0.85350  0.14650  0.25430  1.0000 -1.0271885557
O   O2        1.0  0.91020  0.08980  0.43270  1.0000 -0.5209653739
O   O3        1.0  0.81900  0.18100  0.42300  1.0000 -0.5556394421
O   O4        1.0  0.89960  0.19220  0.08120  1.0000 -0.5405010296
O   O5        1.0  0.80780  0.10040  0.08120  1.0000 -0.5405010296
O   O6        1.0  0.91240  0.32500  0.19970  1.0000 -0.5112797631
O   O7        1.0  0.67500  0.08760  0.19970  1.0000 -0.5112797631
O   O8        1.0  0.82410  0.31170  0.29600  1.0000 -0.5556394421
O   O9        1.0  0.68830  0.17590  0.29600  1.0000 -0.5556394421
O   O10       1.0  0.81000  0.97320  0.20710  1.0000 -0.4914919226
O   O11       1.0  0.02680  0.19000  0.20710  1.0000 -0.4914919226
O   O12       1.0  0.90300  0.96940  0.29740  1.0000 -0.5209653739
O   O13       1.0  0.03060  0.09700  0.29740  1.0000 -0.5209653739
O   O14       1.0  0.14650  0.85350  0.74570  1.0000 -1.0271885557
O   O15       1.0  0.08980  0.91020  0.56730  1.0000 -0.5209653739
O   O16       1.0  0.18100  0.81900  0.57700  1.0000 -0.5556394421
O   O17       1.0  0.19220  0.89960  0.91880  1.0000 -0.5405010296
O   O18       1.0  0.10040  0.80780  0.91880  1.0000 -0.5405010296
O   O19       1.0  0.32500  0.91240  0.80030  1.0000 -0.5112797631
O   O20       1.0  0.08760  0.67500  0.80030  1.0000 -0.5112797631
O   O21       1.0  0.31170  0.82410  0.70400  1.0000 -0.5556394421
O   O22       1.0  0.17590  0.68830  0.70400  1.0000 -0.5556394421
O   O23       1.0  0.97320  0.81000  0.79290  1.0000 -0.4914919226
O   O24       1.0  0.19000  0.02680  0.79290  1.0000 -0.4914919226
O   O25       1.0  0.96940  0.90300  0.70260  1.0000 -0.5209653739
O   O26       1.0  0.09700  0.03060  0.70260  1.0000 -0.5209653739
