# DDEC6 charges by PACMAN v1.1 (https://github.com/mtap-research/PACMAN-charge/)
data_2017[Cu][cpa]2[ASR]1
_chemical_formula_sum              "Cu4 H38 C60 N4 Cl2 O24"
_cell_length_a       8.3866
_cell_length_b       13.7642
_cell_length_c       16.359
_cell_angle_alpha    71.192
_cell_angle_beta     78.549
_cell_angle_gamma    75.018

_symmetry_space_group_name_H-M    "P 1"
_symmetry_Int_Tables_number       1

loop_
  _symmetry_equiv_pos_as_xyz
  'x, y, z'

loop_
  _atom_site_type_symbol
  _atom_site_label
  _atom_site_symmetry_multiplicity
  _atom_site_fract_x
  _atom_site_fract_y
  _atom_site_fract_z
  _atom_site_occupancy
  _atom_site_charge
Cu  Cu1       1.0  0.41091  0.36166  0.41276  1.0000 0.889205982
Cu  Cu2       1.0  0.63119  0.04291  0.99813  1.0000 0.8488190668
Cu  Cu3       1.0  0.58909  0.63834  0.58724  1.0000 0.889205982
Cu  Cu4       1.0  0.36881  0.95709  0.00187  1.0000 0.8488190668
H   H1        1.0  0.35360  0.05570  0.51560  1.0000 0.1192196711
H   H2        1.0  0.30010  0.88900  0.58320  1.0000 0.1313940413
H   H3        1.0  0.24300  0.94280  0.81550  1.0000 0.1313940413
H   H4        1.0  0.29980  0.10670  0.74890  1.0000 0.1192196711
H   H5        1.0  0.25610  0.76790  0.80800  1.0000 0.1313940413
H   H6        1.0  0.28130  0.74610  0.71740  1.0000 0.1389942107
H   H7        1.0  0.05230  0.71170  0.68060  1.0000 0.1389942107
H   H8        1.0  0.10110  0.02170  0.43300  1.0000 0.3596543568
H   H9        1.0  0.58650  0.81160  0.78240  1.0000 0.14559408
H   H10       1.0  0.97640  0.88700  0.83830  1.0000 0.1389942107
H   H11       1.0  0.50960  0.65880  0.20660  1.0000 0.1389942107
H   H12       1.0  0.92420  0.77260  0.14750  1.0000 0.1389942107
H   H13       1.0  0.92420  0.48910  0.30970  1.0000 0.1389942107
H   H14       1.0  0.17480  0.54570  0.26460  1.0000 0.1313940413
H   H15       1.0  0.18970  0.64020  0.18030  1.0000 0.1389942107
H   H16       1.0  0.20500  0.80460  0.19310  1.0000 0.1313940413
H   H17       1.0  0.19530  0.91320  0.27560  1.0000 0.1192196711
H   H18       1.0  0.04410  0.69880  0.49160  1.0000 0.1313940413
H   H19       1.0  0.06320  0.58790  0.40860  1.0000 0.1313940413
H   H20       1.0  0.64640  0.94430  0.48440  1.0000 0.1192196711
H   H21       1.0  0.69990  0.11100  0.41680  1.0000 0.1313940413
H   H22       1.0  0.75700  0.05720  0.18450  1.0000 0.1313940413
H   H23       1.0  0.70020  0.89330  0.25110  1.0000 0.1192196711
H   H24       1.0  0.74390  0.23210  0.19200  1.0000 0.1389942107
H   H25       1.0  0.71870  0.25390  0.28260  1.0000 0.1389942107
H   H26       1.0  0.94770  0.28830  0.31940  1.0000 0.1389942107
H   H27       1.0  0.89890  0.97830  0.56700  1.0000 0.3596543568
H   H28       1.0  0.41350  0.18840  0.21760  1.0000 0.14559408
H   H29       1.0  0.02360  0.11300  0.16170  1.0000 0.1389942107
H   H30       1.0  0.49040  0.34120  0.79340  1.0000 0.1389942107
H   H31       1.0  0.07580  0.22740  0.85250  1.0000 0.1389942107
H   H32       1.0  0.07580  0.51090  0.69030  1.0000 0.1389942107
H   H33       1.0  0.82520  0.45430  0.73540  1.0000 0.1313940413
H   H34       1.0  0.81030  0.35980  0.81970  1.0000 0.1389942107
H   H35       1.0  0.79500  0.19540  0.80690  1.0000 0.1313940413
H   H36       1.0  0.80470  0.08680  0.72440  1.0000 0.1192196711
H   H37       1.0  0.95590  0.30120  0.50840  1.0000 0.1313940413
H   H38       1.0  0.93680  0.41210  0.59140  1.0000 0.1313940413
C   C1        1.0  0.36250  0.20760  0.58010  1.0000 0.5637479174
C   C2        1.0  0.32960  0.09980  0.62490  1.0000 -0.0307097899
C   C3        1.0  0.33080  0.03310  0.57590  1.0000 -0.0907556256
C   C4        1.0  0.29830  0.93330  0.61620  1.0000 -0.1425673654
C   C5        1.0  0.26330  0.90060  0.70610  1.0000 0.0962847332
C   C6        1.0  0.26480  0.96580  0.75510  1.0000 -0.1479173405
C   C7        1.0  0.29820  0.06390  0.71530  1.0000 -0.0907556256
C   C8        1.0  0.22090  0.79450  0.75040  1.0000 -0.1772781787
C   C9        1.0  0.97800  0.74930  0.71560  1.0000 0.0204184041
C   C10       1.0  0.81150  0.75310  0.72300  1.0000 -0.0307097899
C   C11       1.0  0.70020  0.80860  0.77630  1.0000 -0.0524569405
C   C12       1.0  0.76380  0.86020  0.82060  1.0000 -0.0307097899
C   C13       1.0  0.93310  0.85330  0.80950  1.0000 0.0204184041
C   C14       1.0  0.75360  0.69500  0.67290  1.0000 0.550938308
C   C15       1.0  0.61900  0.47320  0.32310  1.0000 0.550938308
C   C16       1.0  0.65590  0.91840  0.88310  1.0000 0.5637479174
C   C17       1.0  0.62020  0.65180  0.21280  1.0000 -0.0412791337
C   C18       1.0  0.70280  0.56130  0.26850  1.0000 -0.0412791337
C   C19       1.0  0.70380  0.73150  0.16650  1.0000 -0.0524569405
C   C20       1.0  0.86810  0.71850  0.17610  1.0000 0.0387402708
C   C21       1.0  0.86730  0.55010  0.27370  1.0000 0.0204184041
C   C22       1.0  0.62080  0.83170  0.10770  1.0000 0.5727278488
C   C23       1.0  0.12630  0.61830  0.23700  1.0000 -0.1772781787
C   C24       1.0  0.13390  0.68550  0.29140  1.0000 0.1072550165
C   C25       1.0  0.17330  0.78310  0.25280  1.0000 -0.1425673654
C   C26       1.0  0.16580  0.84860  0.30220  1.0000 -0.0837490959
C   C27       1.0  0.11520  0.82000  0.39080  1.0000 -0.0524569405
C   C28       1.0  0.07640  0.71980  0.43190  1.0000 -0.0674724905
C   C29       1.0  0.08720  0.65410  0.38200  1.0000 -0.1336901141
C   C30       1.0  0.08260  0.89450  0.44210  1.0000 0.550938308
C   C31       1.0  0.63750  0.79240  0.41990  1.0000 0.5637479174
C   C32       1.0  0.67040  0.90020  0.37510  1.0000 -0.0307097899
C   C33       1.0  0.66920  0.96690  0.42410  1.0000 -0.0907556256
C   C34       1.0  0.70170  0.06670  0.38380  1.0000 -0.1425673654
C   C35       1.0  0.73670  0.09940  0.29390  1.0000 0.0962847332
C   C36       1.0  0.73520  0.03420  0.24490  1.0000 -0.1479173405
C   C37       1.0  0.70180  0.93610  0.28470  1.0000 -0.0907556256
C   C38       1.0  0.77910  0.20550  0.24960  1.0000 -0.1772781787
C   C39       1.0  0.02200  0.25070  0.28440  1.0000 0.0204184041
C   C40       1.0  0.18850  0.24690  0.27700  1.0000 -0.0307097899
C   C41       1.0  0.29980  0.19140  0.22370  1.0000 -0.0524569405
C   C42       1.0  0.23620  0.13980  0.17940  1.0000 -0.0307097899
C   C43       1.0  0.06690  0.14670  0.19050  1.0000 0.0204184041
C   C44       1.0  0.24640  0.30500  0.32710  1.0000 0.550938308
C   C45       1.0  0.38100  0.52680  0.67690  1.0000 0.550938308
C   C46       1.0  0.34410  0.08160  0.11690  1.0000 0.5637479174
C   C47       1.0  0.37980  0.34820  0.78720  1.0000 -0.0412791337
C   C48       1.0  0.29720  0.43870  0.73150  1.0000 -0.0307097899
C   C49       1.0  0.29620  0.26850  0.83350  1.0000 -0.0524569405
C   C50       1.0  0.13190  0.28150  0.82390  1.0000 0.0387402708
C   C51       1.0  0.13270  0.44990  0.72630  1.0000 0.0204184041
C   C52       1.0  0.37920  0.16830  0.89230  1.0000 0.5727278488
C   C53       1.0  0.87370  0.38170  0.76300  1.0000 -0.1772781787
C   C54       1.0  0.86610  0.31450  0.70860  1.0000 0.1072550165
C   C55       1.0  0.82670  0.21690  0.74720  1.0000 -0.1425673654
C   C56       1.0  0.83420  0.15140  0.69780  1.0000 -0.0837490959
C   C57       1.0  0.88480  0.18000  0.60920  1.0000 -0.0524569405
C   C58       1.0  0.92360  0.28020  0.56810  1.0000 -0.0674724905
C   C59       1.0  0.91280  0.34590  0.61800  1.0000 -0.1336901141
C   C60       1.0  0.91740  0.10550  0.55790  1.0000 0.550938308
N   N1        1.0  0.03630  0.79920  0.75850  1.0000 0.1313940413
N   N2        1.0  0.94750  0.62810  0.22650  1.0000 0.1192196711
N   N3        1.0  0.96370  0.20080  0.24150  1.0000 0.1313940413
N   N4        1.0  0.05250  0.37190  0.77350  1.0000 0.1192196711
Cl  Cl1       1.0  0.86440  0.11270  0.99490  1.0000 -0.599480669
Cl  Cl2       1.0  0.13560  0.88730  0.00510  1.0000 -0.599480669
O   O1        1.0  0.39830  0.22980  0.49920  1.0000 -0.549197684
O   O2        1.0  0.34640  0.26960  0.62480  1.0000 -0.5750520331
O   O3        1.0  0.72450  0.97510  0.90410  1.0000 -0.4925451976
O   O4        1.0  0.51060  0.90080  0.90810  1.0000 -0.4925451976
O   O5        1.0  0.86090  0.63840  0.63570  1.0000 -0.5427378816
O   O6        1.0  0.59840  0.70830  0.67460  1.0000 -0.5093139661
O   O7        1.0  0.46300  0.48820  0.32310  1.0000 -0.5297762407
O   O8        1.0  0.70180  0.39180  0.36580  1.0000 -0.5427378816
O   O9        1.0  0.01710  0.87220  0.51950  1.0000 -0.5297762407
O   O10       1.0  0.12220  0.98450  0.40020  1.0000 -0.4519580108
O   O11       1.0  0.69710  0.90600  0.08250  1.0000 -0.5093139661
O   O12       1.0  0.48450  0.83310  0.08520  1.0000 -0.4993977649
O   O13       1.0  0.60170  0.77020  0.50080  1.0000 -0.549197684
O   O14       1.0  0.65360  0.73040  0.37520  1.0000 -0.5750520331
O   O15       1.0  0.27550  0.02490  0.09590  1.0000 -0.4925451976
O   O16       1.0  0.48940  0.09920  0.09190  1.0000 -0.4925451976
O   O17       1.0  0.13910  0.36160  0.36430  1.0000 -0.5427378816
O   O18       1.0  0.40160  0.29170  0.32540  1.0000 -0.5093139661
O   O19       1.0  0.53700  0.51180  0.67690  1.0000 -0.5297762407
O   O20       1.0  0.29820  0.60820  0.63420  1.0000 -0.5427378816
O   O21       1.0  0.98290  0.12780  0.48050  1.0000 -0.5297762407
O   O22       1.0  0.87780  0.01550  0.59980  1.0000 -0.4519580108
O   O23       1.0  0.30290  0.09400  0.91750  1.0000 -0.5093139661
O   O24       1.0  0.51550  0.16690  0.91480  1.0000 -0.4993977649
