# DDEC6 charges by PACMAN v1.1 (https://github.com/mtap-research/PACMAN-charge/)
data_2017[CuSm][nan]3[ASR]1
_chemical_formula_sum              "Sm8 Cu16 H112 C168 I12 N28 O56"
_cell_length_a       9.321
_cell_length_b       22.934
_cell_length_c       31.037
_cell_angle_alpha    90
_cell_angle_beta     90
_cell_angle_gamma    90

_symmetry_space_group_name_H-M    "P 1"
_symmetry_Int_Tables_number       1

loop_
  _symmetry_equiv_pos_as_xyz
  'x, y, z'

loop_
  _atom_site_type_symbol
  _atom_site_label
  _atom_site_symmetry_multiplicity
  _atom_site_fract_x
  _atom_site_fract_y
  _atom_site_fract_z
  _atom_site_occupancy
  _atom_site_charge
Sm  Sm1       1.0  0.54015  0.55829  0.48437  1.0000 2.1970721455
Sm  Sm2       1.0  0.00873  0.52988  0.47763  1.0000 2.192490694
Sm  Sm3       1.0  0.95985  0.44171  0.98437  1.0000 2.1970721455
Sm  Sm4       1.0  0.49127  0.47012  0.97763  1.0000 2.192490694
Sm  Sm5       1.0  0.45985  0.05829  0.01563  1.0000 2.1970721455
Sm  Sm6       1.0  0.99127  0.02988  0.02237  1.0000 2.192490694
Sm  Sm7       1.0  0.04015  0.94171  0.51563  1.0000 2.1970721455
Sm  Sm8       1.0  0.50873  0.97012  0.52237  1.0000 2.192490694
Cu  Cu1       1.0  0.28362  0.23400  0.31934  1.0000 0.2086529554
Cu  Cu2       1.0  0.48966  0.35964  0.24853  1.0000 0.2005797298
Cu  Cu3       1.0  0.95569  0.11693  0.27564  1.0000 0.182269548
Cu  Cu4       1.0  0.25642  0.28313  0.23984  1.0000 0.182269548
Cu  Cu5       1.0  0.21638  0.76600  0.81934  1.0000 0.2086529554
Cu  Cu6       1.0  0.01034  0.64036  0.74853  1.0000 0.2005797298
Cu  Cu7       1.0  0.54431  0.88307  0.77564  1.0000 0.182269548
Cu  Cu8       1.0  0.24358  0.71687  0.73984  1.0000 0.182269548
Cu  Cu9       1.0  0.71638  0.73400  0.18066  1.0000 0.2086529554
Cu  Cu10      1.0  0.51034  0.85964  0.25147  1.0000 0.2005797298
Cu  Cu11      1.0  0.04431  0.61693  0.22436  1.0000 0.182269548
Cu  Cu12      1.0  0.74358  0.78313  0.26016  1.0000 0.182269548
Cu  Cu13      1.0  0.78362  0.26600  0.68066  1.0000 0.2086529554
Cu  Cu14      1.0  0.98966  0.14036  0.75147  1.0000 0.2005797298
Cu  Cu15      1.0  0.45569  0.38307  0.72436  1.0000 0.182269548
Cu  Cu16      1.0  0.75642  0.21687  0.76016  1.0000 0.182269548
H   H1        1.0  0.11440  0.51910  0.36380  1.0000 0.1390962729
H   H2        1.0  0.00140  0.68020  0.37830  1.0000 0.1296520502
H   H3        1.0  0.46460  0.41500  0.09350  1.0000 0.1497017415
H   H4        1.0  0.42380  0.45170  0.31400  1.0000 0.1006272104
H   H5        1.0  0.51990  0.49820  0.37170  1.0000 0.1390962729
H   H6        1.0  0.06250  0.08750  0.41790  1.0000 0.1296520502
H   H7        1.0  0.09810  0.40720  0.39800  1.0000 0.1390962729
H   H8        1.0  0.51020  0.37270  0.42250  1.0000 0.1390962729
H   H9        1.0  0.03080  0.53140  0.29510  1.0000 0.1094496644
H   H10       1.0  0.38260  0.39110  0.16120  1.0000 0.1006272104
H   H11       1.0  0.48100  0.18140  0.38690  1.0000 0.1006272104
H   H12       1.0  0.97390  0.74070  0.32110  1.0000 0.1006272104
H   H13       1.0  0.34570  0.66380  0.35130  1.0000 0.1390962729
H   H14       1.0  0.57680  0.68700  0.39690  1.0000 0.1390962729
H   H15       1.0  0.55680  0.74180  0.33410  1.0000 0.0888923415
H   H16       1.0  0.84880  0.35510  0.12540  1.0000 0.1390962729
H   H17       1.0  0.10050  0.33500  0.34710  1.0000 0.1006272104
H   H18       1.0  0.89720  0.42210  0.34260  1.0000 0.1296520502
H   H19       1.0  0.08350  0.14750  0.35940  1.0000 0.0888923415
H   H20       1.0  0.25740  0.36540  0.64990  1.0000 0.1006272104
H   H21       1.0  0.78420  0.37250  0.28880  1.0000 0.1094496644
H   H22       1.0  0.50030  0.29850  0.37540  1.0000 0.1006272104
H   H23       1.0  0.76250  0.33520  0.19430  1.0000 0.1006272104
H   H24       1.0  0.24460  0.67780  0.28530  1.0000 0.1006272104
H   H25       1.0  0.49630  0.49530  0.68090  1.0000 0.1094496644
H   H26       1.0  0.43930  0.54590  0.62090  1.0000 0.1497017415
H   H27       1.0  0.18180  0.41360  0.58770  1.0000 0.1390962729
H   H28       1.0  0.47310  0.12340  0.44810  1.0000 0.1390962729
H   H29       1.0  0.38560  0.48090  0.86380  1.0000 0.1390962729
H   H30       1.0  0.49860  0.31980  0.87830  1.0000 0.1296520502
H   H31       1.0  0.03540  0.58500  0.59350  1.0000 0.1497017415
H   H32       1.0  0.07620  0.54830  0.81400  1.0000 0.1006272104
H   H33       1.0  0.98010  0.50180  0.87170  1.0000 0.1390962729
H   H34       1.0  0.43750  0.91250  0.91790  1.0000 0.1296520502
H   H35       1.0  0.40190  0.59280  0.89800  1.0000 0.1390962729
H   H36       1.0  0.98980  0.62730  0.92250  1.0000 0.1390962729
H   H37       1.0  0.46920  0.46860  0.79510  1.0000 0.1094496644
H   H38       1.0  0.11740  0.60890  0.66120  1.0000 0.1006272104
H   H39       1.0  0.01900  0.81860  0.88690  1.0000 0.1006272104
H   H40       1.0  0.52610  0.25930  0.82110  1.0000 0.1006272104
H   H41       1.0  0.15430  0.33620  0.85130  1.0000 0.1390962729
H   H42       1.0  0.92320  0.31300  0.89690  1.0000 0.1390962729
H   H43       1.0  0.94320  0.25820  0.83410  1.0000 0.0888923415
H   H44       1.0  0.65120  0.64490  0.62540  1.0000 0.1390962729
H   H45       1.0  0.39950  0.66500  0.84710  1.0000 0.1006272104
H   H46       1.0  0.60280  0.57790  0.84260  1.0000 0.1296520502
H   H47       1.0  0.41650  0.85250  0.85940  1.0000 0.0888923415
H   H48       1.0  0.24260  0.63460  0.14990  1.0000 0.1006272104
H   H49       1.0  0.71580  0.62750  0.78880  1.0000 0.1094496644
H   H50       1.0  0.99970  0.70150  0.87540  1.0000 0.1006272104
H   H51       1.0  0.73750  0.66480  0.69430  1.0000 0.1006272104
H   H52       1.0  0.25540  0.32220  0.78530  1.0000 0.1006272104
H   H53       1.0  0.00370  0.50470  0.18090  1.0000 0.1094496644
H   H54       1.0  0.06070  0.45410  0.12090  1.0000 0.1497017415
H   H55       1.0  0.31820  0.58640  0.08770  1.0000 0.1390962729
H   H56       1.0  0.02690  0.87660  0.94810  1.0000 0.1390962729
H   H57       1.0  0.88560  0.01910  0.13620  1.0000 0.1390962729
H   H58       1.0  0.99860  0.18020  0.12170  1.0000 0.1296520502
H   H59       1.0  0.53540  0.91500  0.40650  1.0000 0.1497017415
H   H60       1.0  0.57620  0.95170  0.18600  1.0000 0.1006272104
H   H61       1.0  0.48010  0.99820  0.12830  1.0000 0.1390962729
H   H62       1.0  0.93750  0.58750  0.08210  1.0000 0.1296520502
H   H63       1.0  0.90190  0.90720  0.10200  1.0000 0.1390962729
H   H64       1.0  0.48980  0.87270  0.07750  1.0000 0.1390962729
H   H65       1.0  0.96920  0.03140  0.20490  1.0000 0.1094496644
H   H66       1.0  0.61740  0.89110  0.33880  1.0000 0.1006272104
H   H67       1.0  0.51900  0.68140  0.11310  1.0000 0.1006272104
H   H68       1.0  0.02610  0.24070  0.17890  1.0000 0.1006272104
H   H69       1.0  0.65430  0.16380  0.14870  1.0000 0.1390962729
H   H70       1.0  0.42320  0.18700  0.10310  1.0000 0.1390962729
H   H71       1.0  0.44320  0.24180  0.16590  1.0000 0.0888923415
H   H72       1.0  0.15120  0.85510  0.37460  1.0000 0.1390962729
H   H73       1.0  0.89950  0.83500  0.15290  1.0000 0.1006272104
H   H74       1.0  0.10280  0.92210  0.15740  1.0000 0.1296520502
H   H75       1.0  0.91650  0.64750  0.14060  1.0000 0.0888923415
H   H76       1.0  0.74260  0.86540  0.85010  1.0000 0.1006272104
H   H77       1.0  0.21580  0.87250  0.21120  1.0000 0.1094496644
H   H78       1.0  0.49970  0.79850  0.12460  1.0000 0.1006272104
H   H79       1.0  0.23750  0.83520  0.30570  1.0000 0.1006272104
H   H80       1.0  0.75540  0.17780  0.21470  1.0000 0.1006272104
H   H81       1.0  0.50370  0.99530  0.81910  1.0000 0.1094496644
H   H82       1.0  0.56070  0.04590  0.87910  1.0000 0.1497017415
H   H83       1.0  0.81820  0.91360  0.91230  1.0000 0.1390962729
H   H84       1.0  0.52690  0.62340  0.05190  1.0000 0.1390962729
H   H85       1.0  0.61440  0.98090  0.63620  1.0000 0.1390962729
H   H86       1.0  0.50140  0.81980  0.62170  1.0000 0.1296520502
H   H87       1.0  0.96460  0.08500  0.90650  1.0000 0.1497017415
H   H88       1.0  0.92380  0.04830  0.68600  1.0000 0.1006272104
H   H89       1.0  0.01990  0.00180  0.62830  1.0000 0.1390962729
H   H90       1.0  0.56250  0.41250  0.58210  1.0000 0.1296520502
H   H91       1.0  0.59810  0.09280  0.60200  1.0000 0.1390962729
H   H92       1.0  0.01020  0.12730  0.57750  1.0000 0.1390962729
H   H93       1.0  0.53080  0.96860  0.70490  1.0000 0.1094496644
H   H94       1.0  0.88260  0.10890  0.83880  1.0000 0.1006272104
H   H95       1.0  0.98100  0.31860  0.61310  1.0000 0.1006272104
H   H96       1.0  0.47390  0.75930  0.67890  1.0000 0.1006272104
H   H97       1.0  0.84570  0.83620  0.64870  1.0000 0.1390962729
H   H98       1.0  0.07680  0.81300  0.60310  1.0000 0.1390962729
H   H99       1.0  0.05680  0.75820  0.66590  1.0000 0.0888923415
H   H100      1.0  0.34880  0.14490  0.87460  1.0000 0.1390962729
H   H101      1.0  0.60050  0.16500  0.65290  1.0000 0.1006272104
H   H102      1.0  0.39720  0.07790  0.65740  1.0000 0.1296520502
H   H103      1.0  0.58350  0.35250  0.64060  1.0000 0.0888923415
H   H104      1.0  0.75740  0.13460  0.35010  1.0000 0.1006272104
H   H105      1.0  0.28420  0.12750  0.71120  1.0000 0.1094496644
H   H106      1.0  0.00030  0.20150  0.62460  1.0000 0.1006272104
H   H107      1.0  0.26250  0.16480  0.80570  1.0000 0.1006272104
H   H108      1.0  0.74460  0.82220  0.71470  1.0000 0.1006272104
H   H109      1.0  0.99630  0.00470  0.31910  1.0000 0.1094496644
H   H110      1.0  0.93930  0.95410  0.37910  1.0000 0.1497017415
H   H111      1.0  0.68180  0.08640  0.41230  1.0000 0.1390962729
H   H112      1.0  0.97310  0.37660  0.55190  1.0000 0.1390962729
C   C1        1.0  0.30180  0.44560  0.44990  1.0000 0.6368636497
C   C2        1.0  0.80350  0.63900  0.43430  1.0000 0.6485722632
C   C3        1.0  0.14380  0.55140  0.34800  1.0000 -0.1500702317
C   C4        1.0  0.91040  0.69300  0.37050  1.0000 -0.1500702317
C   C5        1.0  0.52700  0.39860  0.11350  1.0000 -0.1436831756
C   C6        1.0  0.51950  0.44460  0.32060  1.0000 0.0813473844
C   C7        1.0  0.23790  0.59010  0.36620  1.0000 0.0199864059
C   C8        1.0  0.26090  0.05270  0.47430  1.0000 0.6368636497
C   C9        1.0  0.57630  0.47310  0.35540  1.0000 -0.1580199281
C   C10       1.0  0.72080  0.40570  0.05760  1.0000 0.6368636497
C   C11       1.0  0.15000  0.10520  0.41190  1.0000 -0.1436831756
C   C12       1.0  0.26420  0.51660  0.55570  1.0000 0.6368636497
C   C13       1.0  0.18140  0.38570  0.39350  1.0000 -0.1580199281
C   C14       1.0  0.26600  0.09500  0.43730  1.0000 0.0199864059
C   C15       1.0  0.29630  0.58260  0.41090  1.0000 0.6303660841
C   C16       1.0  0.78410  0.49090  0.40550  1.0000 0.612982747
C   C17       1.0  0.42450  0.36470  0.40840  1.0000 -0.1500702317
C   C18       1.0  0.79100  0.67690  0.39420  1.0000 0.0199864059
C   C19       1.0  0.30390  0.39810  0.41710  1.0000 0.0045564246
C   C20       1.0  0.72220  0.46380  0.36620  1.0000 0.0045564246
C   C21       1.0  0.09180  0.55930  0.30690  1.0000 0.0702242271
C   C22       1.0  0.30160  0.48430  0.59720  1.0000 0.0298635409
C   C23       1.0  0.47890  0.38520  0.15480  1.0000 0.0702242271
C   C24       1.0  0.39570  0.16220  0.39320  1.0000 0.0595015864
C   C25       1.0  0.89180  0.72820  0.33550  1.0000 0.0595015864
C   C26       1.0  0.27850  0.63730  0.34100  1.0000 -0.1580199281
C   C27       1.0  0.65830  0.69620  0.38110  1.0000 -0.1500702317
C   C28       1.0  0.64720  0.73010  0.34340  1.0000 0.0595015864
C   C29       1.0  0.75400  0.36370  0.13230  1.0000 -0.1580199281
C   C30       1.0  0.18270  0.34150  0.36330  1.0000 0.0702242271
C   C31       1.0  0.79920  0.42720  0.33850  1.0000 -0.1500702317
C   C32       1.0  0.16350  0.14220  0.37690  1.0000 0.0702242271
C   C33       1.0  0.29310  0.40250  0.64430  1.0000 0.0813473844
C   C34       1.0  0.73190  0.39880  0.30540  1.0000 0.0485650235
C   C35       1.0  0.41840  0.32090  0.37970  1.0000 0.0485650235
C   C36       1.0  0.66610  0.38740  0.10250  1.0000 0.0298635409
C   C37       1.0  0.70130  0.35190  0.17410  1.0000 0.0595015864
C   C38       1.0  0.21970  0.64480  0.30100  1.0000 0.0702242271
C   C39       1.0  0.43240  0.47830  0.66160  1.0000 0.0357647025
C   C40       1.0  0.39910  0.50940  0.62600  1.0000 -0.1580199281
C   C41       1.0  0.24760  0.43120  0.60620  1.0000 -0.1699891641
C   C42       1.0  0.39440  0.12640  0.42980  1.0000 -0.1699891641
C   C43       1.0  0.19820  0.55440  0.94990  1.0000 0.6368636497
C   C44       1.0  0.69650  0.36100  0.93430  1.0000 0.6485722632
C   C45       1.0  0.35620  0.44860  0.84800  1.0000 -0.1500702317
C   C46       1.0  0.58960  0.30700  0.87050  1.0000 -0.1500702317
C   C47       1.0  0.97300  0.60140  0.61350  1.0000 -0.1436831756
C   C48       1.0  0.98050  0.55540  0.82060  1.0000 0.0813473844
C   C49       1.0  0.26210  0.40990  0.86620  1.0000 0.0199864059
C   C50       1.0  0.23910  0.94730  0.97430  1.0000 0.6368636497
C   C51       1.0  0.92370  0.52690  0.85540  1.0000 -0.1580199281
C   C52       1.0  0.77920  0.59430  0.55760  1.0000 0.6368636497
C   C53       1.0  0.35000  0.89480  0.91190  1.0000 -0.1436831756
C   C54       1.0  0.23580  0.48340  0.05570  1.0000 0.6368636497
C   C55       1.0  0.31860  0.61430  0.89350  1.0000 -0.1580199281
C   C56       1.0  0.23400  0.90500  0.93730  1.0000 0.0199864059
C   C57       1.0  0.20370  0.41740  0.91090  1.0000 0.6303660841
C   C58       1.0  0.71590  0.50910  0.90550  1.0000 0.612982747
C   C59       1.0  0.07550  0.63530  0.90840  1.0000 -0.1500702317
C   C60       1.0  0.70900  0.32310  0.89420  1.0000 0.0199864059
C   C61       1.0  0.19610  0.60190  0.91710  1.0000 0.0045564246
C   C62       1.0  0.77780  0.53620  0.86620  1.0000 0.0045564246
C   C63       1.0  0.40820  0.44070  0.80690  1.0000 0.0702242271
C   C64       1.0  0.19840  0.51570  0.09720  1.0000 0.0298635409
C   C65       1.0  0.02110  0.61480  0.65480  1.0000 0.0702242271
C   C66       1.0  0.10430  0.83780  0.89320  1.0000 0.0595015864
C   C67       1.0  0.60820  0.27180  0.83550  1.0000 0.0595015864
C   C68       1.0  0.22150  0.36270  0.84100  1.0000 -0.1580199281
C   C69       1.0  0.84170  0.30380  0.88110  1.0000 -0.1500702317
C   C70       1.0  0.85280  0.26990  0.84340  1.0000 0.0595015864
C   C71       1.0  0.74600  0.63630  0.63230  1.0000 -0.1580199281
C   C72       1.0  0.31730  0.65850  0.86330  1.0000 0.0702242271
C   C73       1.0  0.70080  0.57280  0.83850  1.0000 -0.1500702317
C   C74       1.0  0.33650  0.85780  0.87690  1.0000 0.0702242271
C   C75       1.0  0.20690  0.59750  0.14430  1.0000 0.0813473844
C   C76       1.0  0.76810  0.60120  0.80540  1.0000 0.0485650235
C   C77       1.0  0.08160  0.67910  0.87970  1.0000 0.0485650235
C   C78       1.0  0.83390  0.61260  0.60250  1.0000 0.0298635409
C   C79       1.0  0.79870  0.64810  0.67410  1.0000 0.0595015864
C   C80       1.0  0.28030  0.35520  0.80100  1.0000 0.0702242271
C   C81       1.0  0.06760  0.52170  0.16160  1.0000 0.0357647025
C   C82       1.0  0.10090  0.49060  0.12600  1.0000 -0.1580199281
C   C83       1.0  0.25240  0.56880  0.10620  1.0000 -0.1699891641
C   C84       1.0  0.10560  0.87360  0.92980  1.0000 -0.1699891641
C   C85       1.0  0.69820  0.94560  0.05010  1.0000 0.6368636497
C   C86       1.0  0.19650  0.13900  0.06570  1.0000 0.6485722632
C   C87       1.0  0.85620  0.05140  0.15200  1.0000 -0.1500702317
C   C88       1.0  0.08960  0.19300  0.12950  1.0000 -0.1500702317
C   C89       1.0  0.47300  0.89860  0.38650  1.0000 -0.1436831756
C   C90       1.0  0.48050  0.94460  0.17940  1.0000 0.0813473844
C   C91       1.0  0.76210  0.09010  0.13380  1.0000 0.0199864059
C   C92       1.0  0.73910  0.55270  0.02570  1.0000 0.6368636497
C   C93       1.0  0.42370  0.97310  0.14460  1.0000 -0.1580199281
C   C94       1.0  0.27920  0.90570  0.44240  1.0000 0.6368636497
C   C95       1.0  0.85000  0.60520  0.08810  1.0000 -0.1436831756
C   C96       1.0  0.73580  0.01660  0.94430  1.0000 0.6368636497
C   C97       1.0  0.81860  0.88570  0.10650  1.0000 -0.1580199281
C   C98       1.0  0.73400  0.59500  0.06270  1.0000 0.0199864059
C   C99       1.0  0.70370  0.08260  0.08910  1.0000 0.6303660841
C   C100      1.0  0.21590  0.99090  0.09450  1.0000 0.612982747
C   C101      1.0  0.57550  0.86470  0.09160  1.0000 -0.1500702317
C   C102      1.0  0.20900  0.17690  0.10580  1.0000 0.0199864059
C   C103      1.0  0.69610  0.89810  0.08290  1.0000 0.0045564246
C   C104      1.0  0.27780  0.96380  0.13380  1.0000 0.0045564246
C   C105      1.0  0.90820  0.05930  0.19310  1.0000 0.0702242271
C   C106      1.0  0.69840  0.98430  0.90280  1.0000 0.0298635409
C   C107      1.0  0.52110  0.88520  0.34520  1.0000 0.0702242271
C   C108      1.0  0.60430  0.66220  0.10680  1.0000 0.0595015864
C   C109      1.0  0.10820  0.22820  0.16450  1.0000 0.0595015864
C   C110      1.0  0.72150  0.13730  0.15900  1.0000 -0.1580199281
C   C111      1.0  0.34170  0.19620  0.11890  1.0000 -0.1500702317
C   C112      1.0  0.35280  0.23010  0.15660  1.0000 0.0595015864
C   C113      1.0  0.24600  0.86370  0.36770  1.0000 -0.1580199281
C   C114      1.0  0.81730  0.84150  0.13670  1.0000 0.0702242271
C   C115      1.0  0.20080  0.92720  0.16150  1.0000 -0.1500702317
C   C116      1.0  0.83650  0.64220  0.12310  1.0000 0.0702242271
C   C117      1.0  0.70690  0.90250  0.85570  1.0000 0.0813473844
C   C118      1.0  0.26810  0.89880  0.19460  1.0000 0.0485650235
C   C119      1.0  0.58160  0.82090  0.12030  1.0000 0.0485650235
C   C120      1.0  0.33390  0.88740  0.39750  1.0000 0.0298635409
C   C121      1.0  0.29870  0.85190  0.32590  1.0000 0.0595015864
C   C122      1.0  0.78030  0.14480  0.19900  1.0000 0.0702242271
C   C123      1.0  0.56760  0.97830  0.83840  1.0000 0.0357647025
C   C124      1.0  0.60090  0.00940  0.87400  1.0000 -0.1580199281
C   C125      1.0  0.75240  0.93120  0.89380  1.0000 -0.1699891641
C   C126      1.0  0.60560  0.62640  0.07020  1.0000 -0.1699891641
C   C127      1.0  0.80180  0.05440  0.55010  1.0000 0.6368636497
C   C128      1.0  0.30350  0.86100  0.56570  1.0000 0.6485722632
C   C129      1.0  0.64380  0.94860  0.65200  1.0000 -0.1580199281
C   C130      1.0  0.41040  0.80700  0.62950  1.0000 -0.1500702317
C   C131      1.0  0.02700  0.10140  0.88650  1.0000 -0.1436831756
C   C132      1.0  0.01950  0.05540  0.67940  1.0000 0.0813473844
C   C133      1.0  0.73790  0.90990  0.63380  1.0000 0.0199864059
C   C134      1.0  0.76090  0.44730  0.52570  1.0000 0.6368636497
C   C135      1.0  0.07630  0.02690  0.64460  1.0000 -0.1580199281
C   C136      1.0  0.22080  0.09430  0.94240  1.0000 0.6368636497
C   C137      1.0  0.65000  0.39480  0.58810  1.0000 -0.1436831756
C   C138      1.0  0.76420  0.98340  0.44430  1.0000 0.6368636497
C   C139      1.0  0.68140  0.11430  0.60650  1.0000 -0.1580199281
C   C140      1.0  0.76600  0.40500  0.56270  1.0000 0.0199864059
C   C141      1.0  0.79630  0.91740  0.58910  1.0000 0.6303660841
C   C142      1.0  0.28410  0.00910  0.59450  1.0000 0.612982747
C   C143      1.0  0.92450  0.13530  0.59160  1.0000 -0.1500702317
C   C144      1.0  0.29100  0.82310  0.60580  1.0000 0.0199864059
C   C145      1.0  0.80390  0.10190  0.58290  1.0000 0.0045564246
C   C146      1.0  0.22220  0.03620  0.63380  1.0000 0.0045564246
C   C147      1.0  0.59180  0.94070  0.69310  1.0000 0.0702242271
C   C148      1.0  0.80160  0.01570  0.40280  1.0000 0.0298635409
C   C149      1.0  0.97890  0.11480  0.84520  1.0000 0.0702242271
C   C150      1.0  0.89570  0.33780  0.60680  1.0000 0.0595015864
C   C151      1.0  0.39180  0.77180  0.66450  1.0000 0.0595015864
C   C152      1.0  0.77850  0.86270  0.65900  1.0000 -0.1580199281
C   C153      1.0  0.15830  0.80380  0.61890  1.0000 -0.1500702317
C   C154      1.0  0.14720  0.76990  0.65660  1.0000 0.0595015864
C   C155      1.0  0.25400  0.13630  0.86770  1.0000 -0.1580199281
C   C156      1.0  0.68270  0.15850  0.63670  1.0000 0.0702242271
C   C157      1.0  0.29920  0.07280  0.66150  1.0000 -0.1500702317
C   C158      1.0  0.66350  0.35780  0.62310  1.0000 0.0702242271
C   C159      1.0  0.79310  0.09750  0.35570  1.0000 0.0813473844
C   C160      1.0  0.23190  0.10120  0.69460  1.0000 0.0485650235
C   C161      1.0  0.91840  0.17910  0.62030  1.0000 0.0485650235
C   C162      1.0  0.16610  0.11260  0.89750  1.0000 0.0298635409
C   C163      1.0  0.20130  0.14810  0.82590  1.0000 0.0595015864
C   C164      1.0  0.71970  0.85520  0.69900  1.0000 0.0702242271
C   C165      1.0  0.93240  0.02170  0.33840  1.0000 0.0357647025
C   C166      1.0  0.89910  0.99060  0.37400  1.0000 -0.1580199281
C   C167      1.0  0.74760  0.06880  0.39380  1.0000 -0.1699891641
C   C168      1.0  0.89440  0.37360  0.57020  1.0000 -0.1699891641
I   I1        1.0  0.51505  0.24483  0.27097  1.0000 -0.3993247254
I   I2        1.0  0.20991  0.39416  0.24612  1.0000 -0.4487284823
I   I3        1.0  0.02542  0.22912  0.28294  1.0000 -0.4062472909
I   I4        1.0  0.98495  0.75517  0.77097  1.0000 -0.3993247254
I   I5        1.0  0.29009  0.60584  0.74612  1.0000 -0.4487284823
I   I6        1.0  0.47458  0.77088  0.78294  1.0000 -0.4062472909
I   I7        1.0  0.48495  0.74483  0.22903  1.0000 -0.3993247254
I   I8        1.0  0.79009  0.89416  0.25388  1.0000 -0.4487284823
I   I9        1.0  0.97458  0.72912  0.21706  1.0000 -0.4062472909
I   I10       1.0  0.01505  0.25517  0.72903  1.0000 -0.3993247254
I   I11       1.0  0.70991  0.10584  0.75388  1.0000 -0.4487284823
I   I12       1.0  0.52542  0.27088  0.71706  1.0000 -0.4062472909
N   N1        1.0  0.29790  0.30750  0.35640  1.0000 -0.1868447541
N   N2        1.0  0.12710  0.60620  0.28350  1.0000 -0.1699891641
N   N3        1.0  0.76460  0.74640  0.32000  1.0000 -0.1791945678
N   N4        1.0  0.28410  0.17110  0.36630  1.0000 -0.1791945678
N   N5        1.0  0.38210  0.42530  0.67180  1.0000 -0.1791945678
N   N6        1.0  0.56520  0.36420  0.18590  1.0000 -0.1868447541
N   N7        1.0  0.59010  0.40780  0.29580  1.0000 -0.1791945678
N   N8        1.0  0.20210  0.69250  0.85640  1.0000 -0.1868447541
N   N9        1.0  0.37290  0.39380  0.78350  1.0000 -0.1699891641
N   N10       1.0  0.73540  0.25360  0.82000  1.0000 -0.1791945678
N   N11       1.0  0.21590  0.82890  0.86630  1.0000 -0.1791945678
N   N12       1.0  0.11790  0.57470  0.17180  1.0000 -0.1791945678
N   N13       1.0  0.93480  0.63580  0.68590  1.0000 -0.1868447541
N   N14       1.0  0.90990  0.59220  0.79580  1.0000 -0.1791945678
N   N15       1.0  0.70210  0.80750  0.14360  1.0000 -0.1868447541
N   N16       1.0  0.87290  0.10620  0.21650  1.0000 -0.1699891641
N   N17       1.0  0.23540  0.24640  0.18000  1.0000 -0.1791945678
N   N18       1.0  0.71590  0.67110  0.13370  1.0000 -0.1791945678
N   N19       1.0  0.61790  0.92530  0.82820  1.0000 -0.1791945678
N   N20       1.0  0.43480  0.86420  0.31410  1.0000 -0.1868447541
N   N21       1.0  0.40990  0.90780  0.20420  1.0000 -0.1791945678
N   N22       1.0  0.79790  0.19250  0.64360  1.0000 -0.1868447541
N   N23       1.0  0.62710  0.89380  0.71650  1.0000 -0.1699891641
N   N24       1.0  0.26460  0.75360  0.68000  1.0000 -0.1791945678
N   N25       1.0  0.78410  0.32890  0.63370  1.0000 -0.1791945678
N   N26       1.0  0.88210  0.07470  0.32820  1.0000 -0.1791945678
N   N27       1.0  0.06520  0.13580  0.81410  1.0000 -0.1868447541
N   N28       1.0  0.09010  0.09220  0.70420  1.0000 -0.1791945678
O   O1        1.0  0.92550  0.61530  0.44050  1.0000 -0.6777662067
O   O2        1.0  0.69470  0.63390  0.45730  1.0000 -0.6591797351
O   O3        1.0  0.41760  0.47100  0.45800  1.0000 -0.6487448125
O   O4        1.0  0.20890  0.57040  0.44120  1.0000 -0.7137072861
O   O5        1.0  0.14740  0.02320  0.47830  1.0000 -0.6591797351
O   O6        1.0  0.42960  0.58800  0.41600  1.0000 -0.6487448125
O   O7        1.0  0.70880  0.51810  0.43180  1.0000 -0.671489942
O   O8        1.0  0.85350  0.40230  0.05080  1.0000 -0.6441739827
O   O9        1.0  0.62950  0.42050  0.03100  1.0000 -0.671489942
O   O10       1.0  0.37130  0.04700  0.49640  1.0000 -0.6487448125
O   O11       1.0  0.13500  0.51700  0.54510  1.0000 -0.6487448125
O   O12       1.0  0.36340  0.54110  0.53710  1.0000 -0.6487448125
O   O13       1.0  0.91950  0.48460  0.41100  1.0000 -0.671489942
O   O14       1.0  0.18020  0.45560  0.46650  1.0000 -0.671489942
O   O15       1.0  0.57450  0.38470  0.94050  1.0000 -0.6777662067
O   O16       1.0  0.80530  0.36610  0.95730  1.0000 -0.6591797351
O   O17       1.0  0.08240  0.52900  0.95800  1.0000 -0.6487448125
O   O18       1.0  0.29110  0.42960  0.94120  1.0000 -0.7137072861
O   O19       1.0  0.35260  0.97680  0.97830  1.0000 -0.6591797351
O   O20       1.0  0.07040  0.41200  0.91600  1.0000 -0.6487448125
O   O21       1.0  0.79120  0.48190  0.93180  1.0000 -0.671489942
O   O22       1.0  0.64650  0.59770  0.55080  1.0000 -0.6441739827
O   O23       1.0  0.87050  0.57950  0.53100  1.0000 -0.671489942
O   O24       1.0  0.12870  0.95300  0.99640  1.0000 -0.6487448125
O   O25       1.0  0.36500  0.48300  0.04510  1.0000 -0.6487448125
O   O26       1.0  0.13660  0.45890  0.03710  1.0000 -0.6487448125
O   O27       1.0  0.58050  0.51540  0.91100  1.0000 -0.671489942
O   O28       1.0  0.31980  0.54440  0.96650  1.0000 -0.671489942
O   O29       1.0  0.07450  0.11530  0.05950  1.0000 -0.6777662067
O   O30       1.0  0.30530  0.13390  0.04270  1.0000 -0.6591797351
O   O31       1.0  0.58240  0.97100  0.04200  1.0000 -0.6487448125
O   O32       1.0  0.79110  0.07040  0.05880  1.0000 -0.7137072861
O   O33       1.0  0.85260  0.52320  0.02170  1.0000 -0.6591797351
O   O34       1.0  0.57040  0.08800  0.08400  1.0000 -0.6487448125
O   O35       1.0  0.29120  0.01810  0.06820  1.0000 -0.671489942
O   O36       1.0  0.14650  0.90230  0.44920  1.0000 -0.6441739827
O   O37       1.0  0.37050  0.92050  0.46900  1.0000 -0.671489942
O   O38       1.0  0.62870  0.54700  0.00360  1.0000 -0.6487448125
O   O39       1.0  0.86500  0.01700  0.95490  1.0000 -0.6487448125
O   O40       1.0  0.63660  0.04110  0.96290  1.0000 -0.6487448125
O   O41       1.0  0.08050  0.98460  0.08900  1.0000 -0.671489942
O   O42       1.0  0.81980  0.95560  0.03350  1.0000 -0.671489942
O   O43       1.0  0.42550  0.88470  0.55950  1.0000 -0.6777662067
O   O44       1.0  0.19470  0.86610  0.54270  1.0000 -0.6591797351
O   O45       1.0  0.91760  0.02900  0.54200  1.0000 -0.6487448125
O   O46       1.0  0.70890  0.92960  0.55880  1.0000 -0.7137072861
O   O47       1.0  0.64740  0.47680  0.52170  1.0000 -0.6591797351
O   O48       1.0  0.92960  0.91200  0.58400  1.0000 -0.6487448125
O   O49       1.0  0.20880  0.98190  0.56820  1.0000 -0.671489942
O   O50       1.0  0.35350  0.09770  0.94920  1.0000 -0.6441739827
O   O51       1.0  0.12950  0.07950  0.96900  1.0000 -0.671489942
O   O52       1.0  0.87130  0.45300  0.50360  1.0000 -0.6487448125
O   O53       1.0  0.63500  0.98300  0.45490  1.0000 -0.6487448125
O   O54       1.0  0.86340  0.95890  0.46290  1.0000 -0.6487448125
O   O55       1.0  0.41950  0.01540  0.58900  1.0000 -0.671489942
O   O56       1.0  0.68020  0.04440  0.53350  1.0000 -0.671489942
