# DDEC6 charges by PACMAN v1.1 (https://github.com/mtap-research/PACMAN-charge/)
data_2017[Zn][mab]3[ASR]3
_chemical_formula_sum              "Zn4 H60 C84 N8 O20"
_cell_length_a       10.537
_cell_length_b       10.348
_cell_length_c       24.0928
_cell_angle_alpha    90
_cell_angle_beta     112.76
_cell_angle_gamma    90

_symmetry_space_group_name_H-M    "P 1"
_symmetry_Int_Tables_number       1

loop_
  _symmetry_equiv_pos_as_xyz
  'x, y, z'

loop_
  _atom_site_type_symbol
  _atom_site_label
  _atom_site_symmetry_multiplicity
  _atom_site_fract_x
  _atom_site_fract_y
  _atom_site_fract_z
  _atom_site_occupancy
  _atom_site_charge
Zn  Zn1       1.0  0.95009  0.62352  0.51457  1.0000 0.8351788173
Zn  Zn2       1.0  0.04991  0.12352  0.98543  1.0000 0.8351788173
Zn  Zn3       1.0  0.04991  0.37648  0.48543  1.0000 0.8351788173
Zn  Zn4       1.0  0.95009  0.87648  0.01457  1.0000 0.8351788173
H   H1        1.0  0.35130  0.77750  0.59650  1.0000 0.1115787016
H   H2        1.0  0.57160  0.86060  0.64170  1.0000 0.1391500719
H   H3        1.0  0.72500  0.54100  0.59910  1.0000 0.1391500719
H   H4        1.0  0.50490  0.45720  0.55360  1.0000 0.1202540464
H   H5        1.0  0.73750  0.65910  0.73880  1.0000 0.129860262
H   H6        1.0  0.81040  0.72750  0.83690  1.0000 0.1202540464
H   H7        1.0  0.02950  0.00990  0.80340  1.0000 0.129860262
H   H8        1.0  0.95740  0.94410  0.70500  1.0000 0.1391500719
H   H9        1.0  0.13470  0.84210  0.57170  1.0000 0.1115787016
H   H10       1.0  0.12820  0.05120  0.60110  1.0000 0.129860262
H   H11       1.0  0.91900  0.14470  0.58690  1.0000 0.1202540464
H   H12       1.0  0.73600  0.81530  0.51240  1.0000 0.1202540464
H   H13       1.0  0.56030  0.18880  0.55550  1.0000 0.1557025412
H   H14       1.0  0.70350  0.16360  0.60770  1.0000 0.1557025412
H   H15       1.0  0.69550  0.23620  0.54930  1.0000 0.1530685822
H   H16       1.0  0.64870  0.27750  0.90350  1.0000 0.1115787016
H   H17       1.0  0.42840  0.36060  0.85830  1.0000 0.1391500719
H   H18       1.0  0.27500  0.04100  0.90090  1.0000 0.1391500719
H   H19       1.0  0.49510  0.95720  0.94640  1.0000 0.1202540464
H   H20       1.0  0.26250  0.15910  0.76120  1.0000 0.129860262
H   H21       1.0  0.18960  0.22750  0.66310  1.0000 0.1202540464
H   H22       1.0  0.97050  0.50990  0.69660  1.0000 0.129860262
H   H23       1.0  0.04260  0.44410  0.79500  1.0000 0.1391500719
H   H24       1.0  0.86530  0.34210  0.92830  1.0000 0.1115787016
H   H25       1.0  0.87180  0.55120  0.89890  1.0000 0.129860262
H   H26       1.0  0.08100  0.64470  0.91310  1.0000 0.1202540464
H   H27       1.0  0.26400  0.31530  0.98760  1.0000 0.1202540464
H   H28       1.0  0.43970  0.68880  0.94450  1.0000 0.1557025412
H   H29       1.0  0.29650  0.66360  0.89230  1.0000 0.1557025412
H   H30       1.0  0.30450  0.73620  0.95070  1.0000 0.1530685822
H   H31       1.0  0.64870  0.22250  0.40350  1.0000 0.1115787016
H   H32       1.0  0.42840  0.13940  0.35830  1.0000 0.1391500719
H   H33       1.0  0.27500  0.45900  0.40090  1.0000 0.1391500719
H   H34       1.0  0.49510  0.54280  0.44640  1.0000 0.1202540464
H   H35       1.0  0.26250  0.34090  0.26120  1.0000 0.129860262
H   H36       1.0  0.18960  0.27250  0.16310  1.0000 0.1202540464
H   H37       1.0  0.97050  0.99010  0.19660  1.0000 0.129860262
H   H38       1.0  0.04260  0.05590  0.29500  1.0000 0.1391500719
H   H39       1.0  0.86530  0.15790  0.42830  1.0000 0.1115787016
H   H40       1.0  0.87180  0.94880  0.39890  1.0000 0.129860262
H   H41       1.0  0.08100  0.85530  0.41310  1.0000 0.1202540464
H   H42       1.0  0.26400  0.18470  0.48760  1.0000 0.1202540464
H   H43       1.0  0.43970  0.81120  0.44450  1.0000 0.1557025412
H   H44       1.0  0.29650  0.83640  0.39230  1.0000 0.1557025412
H   H45       1.0  0.30450  0.76380  0.45070  1.0000 0.1530685822
H   H46       1.0  0.35130  0.72250  0.09650  1.0000 0.1115787016
H   H47       1.0  0.57160  0.63940  0.14170  1.0000 0.1391500719
H   H48       1.0  0.72500  0.95900  0.09910  1.0000 0.1391500719
H   H49       1.0  0.50490  0.04280  0.05360  1.0000 0.1202540464
H   H50       1.0  0.73750  0.84090  0.23880  1.0000 0.129860262
H   H51       1.0  0.81040  0.77250  0.33690  1.0000 0.1202540464
H   H52       1.0  0.02950  0.49010  0.30340  1.0000 0.129860262
H   H53       1.0  0.95740  0.55590  0.20500  1.0000 0.1391500719
H   H54       1.0  0.13470  0.65790  0.07170  1.0000 0.1115787016
H   H55       1.0  0.12820  0.44880  0.10110  1.0000 0.129860262
H   H56       1.0  0.91900  0.35530  0.08690  1.0000 0.1202540464
H   H57       1.0  0.73600  0.68470  0.01240  1.0000 0.1202540464
H   H58       1.0  0.56030  0.31120  0.05550  1.0000 0.1557025412
H   H59       1.0  0.70350  0.33640  0.10770  1.0000 0.1557025412
H   H60       1.0  0.69550  0.26380  0.04930  1.0000 0.1530685822
C   C1        1.0  0.26182  0.55240  0.54252  1.0000 0.5729246983
C   C2        1.0  0.40553  0.60690  0.57103  1.0000 -0.03932823
C   C3        1.0  0.42630  0.72910  0.59720  1.0000 -0.0816226807
C   C4        1.0  0.55770  0.77880  0.62430  1.0000 -0.199771377
C   C5        1.0  0.66701  0.70640  0.62541  1.0000 0.2240389088
C   C6        1.0  0.64954  0.58790  0.59894  1.0000 -0.199771377
C   C7        1.0  0.51769  0.53820  0.57169  1.0000 -0.0887903528
C   C8        1.0  0.84006  0.79330  0.71216  1.0000 0.2608368608
C   C9        1.0  0.79616  0.72970  0.75166  1.0000 -0.2223931881
C   C10       1.0  0.83968  0.77130  0.81028  1.0000 -0.0887903528
C   C11       1.0  0.92605  0.87690  0.83055  1.0000 -0.0469422465
C   C12       1.0  0.97016  0.93970  0.79026  1.0000 -0.0816226807
C   C13       1.0  0.92805  0.90040  0.73165  1.0000 -0.2129843583
C   C14       1.0  0.96482  0.92230  0.89392  1.0000 0.5780867586
C   C15       1.0  0.05000  0.87950  0.56550  1.0000 0.0623859685
C   C16       1.0  0.04710  0.00450  0.58340  1.0000 -0.1364665082
C   C17       1.0  0.92280  0.06000  0.57470  1.0000 -0.0816226807
C   C18       1.0  0.80315  0.98970  0.54785  1.0000 -0.0154020026
C   C19       1.0  0.81571  0.86360  0.53081  1.0000 0.0623859685
C   C20       1.0  0.66590  0.04340  0.53680  1.0000 0.2608368608
C   C21       1.0  0.65540  0.16920  0.56480  1.0000 -0.5146268954
C   C22       1.0  0.73818  0.05240  0.95748  1.0000 0.5729246983
C   C23       1.0  0.59447  0.10690  0.92897  1.0000 -0.03932823
C   C24       1.0  0.57370  0.22910  0.90280  1.0000 -0.0816226807
C   C25       1.0  0.44230  0.27880  0.87570  1.0000 -0.199771377
C   C26       1.0  0.33299  0.20640  0.87459  1.0000 0.2240389088
C   C27       1.0  0.35046  0.08790  0.90106  1.0000 -0.199771377
C   C28       1.0  0.48231  0.03820  0.92831  1.0000 -0.0887903528
C   C29       1.0  0.15994  0.29330  0.78784  1.0000 0.2608368608
C   C30       1.0  0.20384  0.22970  0.74834  1.0000 -0.2223931881
C   C31       1.0  0.16032  0.27130  0.68972  1.0000 -0.0887903528
C   C32       1.0  0.07395  0.37690  0.66945  1.0000 -0.0469422465
C   C33       1.0  0.02984  0.43970  0.70974  1.0000 -0.0816226807
C   C34       1.0  0.07195  0.40040  0.76835  1.0000 -0.2129843583
C   C35       1.0  0.03518  0.42230  0.60608  1.0000 0.5780867586
C   C36       1.0  0.95000  0.37950  0.93450  1.0000 0.0623859685
C   C37       1.0  0.95290  0.50450  0.91660  1.0000 -0.1364665082
C   C38       1.0  0.07720  0.56000  0.92530  1.0000 -0.0816226807
C   C39       1.0  0.19685  0.48970  0.95215  1.0000 -0.0154020026
C   C40       1.0  0.18429  0.36360  0.96919  1.0000 0.0623859685
C   C41       1.0  0.33410  0.54340  0.96320  1.0000 0.2608368608
C   C42       1.0  0.34460  0.66920  0.93520  1.0000 -0.5218617668
C   C43       1.0  0.73818  0.44760  0.45748  1.0000 0.5729246983
C   C44       1.0  0.59447  0.39310  0.42897  1.0000 -0.03932823
C   C45       1.0  0.57370  0.27090  0.40280  1.0000 -0.0816226807
C   C46       1.0  0.44230  0.22120  0.37570  1.0000 -0.199771377
C   C47       1.0  0.33299  0.29360  0.37459  1.0000 0.2240389088
C   C48       1.0  0.35046  0.41210  0.40106  1.0000 -0.199771377
C   C49       1.0  0.48231  0.46180  0.42831  1.0000 -0.0887903528
C   C50       1.0  0.15994  0.20670  0.28784  1.0000 0.2608368608
C   C51       1.0  0.20384  0.27030  0.24834  1.0000 -0.2223931881
C   C52       1.0  0.16032  0.22870  0.18972  1.0000 -0.0887903528
C   C53       1.0  0.07395  0.12310  0.16945  1.0000 -0.0469422465
C   C54       1.0  0.02984  0.06030  0.20974  1.0000 -0.0816226807
C   C55       1.0  0.07195  0.09960  0.26835  1.0000 -0.2129843583
C   C56       1.0  0.03518  0.07770  0.10608  1.0000 0.5780867586
C   C57       1.0  0.95000  0.12050  0.43450  1.0000 0.0623859685
C   C58       1.0  0.95290  0.99550  0.41660  1.0000 -0.1364665082
C   C59       1.0  0.07720  0.94000  0.42530  1.0000 -0.0816226807
C   C60       1.0  0.19685  0.01030  0.45215  1.0000 -0.0154020026
C   C61       1.0  0.18429  0.13640  0.46919  1.0000 0.0623859685
C   C62       1.0  0.33410  0.95660  0.46320  1.0000 0.2608368608
C   C63       1.0  0.34460  0.83080  0.43520  1.0000 -0.5146268954
C   C64       1.0  0.26182  0.94760  0.04252  1.0000 0.5729246983
C   C65       1.0  0.40553  0.89310  0.07103  1.0000 -0.03932823
C   C66       1.0  0.42630  0.77090  0.09720  1.0000 -0.0816226807
C   C67       1.0  0.55770  0.72120  0.12430  1.0000 -0.199771377
C   C68       1.0  0.66701  0.79360  0.12541  1.0000 0.2240389088
C   C69       1.0  0.64954  0.91210  0.09894  1.0000 -0.199771377
C   C70       1.0  0.51769  0.96180  0.07169  1.0000 -0.0887903528
C   C71       1.0  0.84006  0.70670  0.21216  1.0000 0.2608368608
C   C72       1.0  0.79616  0.77030  0.25166  1.0000 -0.2223931881
C   C73       1.0  0.83968  0.72870  0.31028  1.0000 -0.0887903528
C   C74       1.0  0.92605  0.62310  0.33055  1.0000 -0.0469422465
C   C75       1.0  0.97016  0.56030  0.29026  1.0000 -0.0816226807
C   C76       1.0  0.92805  0.59960  0.23165  1.0000 -0.2129843583
C   C77       1.0  0.96482  0.57770  0.39392  1.0000 0.5780867586
C   C78       1.0  0.05000  0.62050  0.06550  1.0000 0.0623859685
C   C79       1.0  0.04710  0.49550  0.08340  1.0000 -0.1364665082
C   C80       1.0  0.92280  0.44000  0.07470  1.0000 -0.0816226807
C   C81       1.0  0.80315  0.51030  0.04785  1.0000 -0.0154020026
C   C82       1.0  0.81571  0.63640  0.03081  1.0000 0.0623859685
C   C83       1.0  0.66590  0.45660  0.03680  1.0000 0.2608368608
C   C84       1.0  0.65540  0.33080  0.06480  1.0000 -0.5146268954
N   N1        1.0  0.93551  0.80880  0.53951  1.0000 -0.199771377
N   N2        1.0  0.56390  0.97460  0.50370  1.0000 -0.236005356
N   N3        1.0  0.06449  0.30880  0.96049  1.0000 -0.199771377
N   N4        1.0  0.43610  0.47460  0.99630  1.0000 -0.236005356
N   N5        1.0  0.06449  0.19120  0.46049  1.0000 -0.199771377
N   N6        1.0  0.43610  0.02540  0.49630  1.0000 -0.236005356
N   N7        1.0  0.93551  0.69120  0.03951  1.0000 -0.199771377
N   N8        1.0  0.56390  0.52540  0.00370  1.0000 -0.236005356
O   O1        1.0  0.16504  0.62300  0.54184  1.0000 -0.5647673359
O   O2        1.0  0.24841  0.44040  0.52111  1.0000 -0.5218617668
O   O3        1.0  0.80033  0.75620  0.65283  1.0000 -0.2223931881
O   O4        1.0  0.93642  0.84870  0.92892  1.0000 -0.5491984835
O   O5        1.0  0.02114  0.03120  0.90734  1.0000 -0.5264119407
O   O6        1.0  0.83496  0.12300  0.95816  1.0000 -0.5647673359
O   O7        1.0  0.75159  0.94040  0.97889  1.0000 -0.5218617668
O   O8        1.0  0.19967  0.25620  0.84717  1.0000 -0.2223931881
O   O9        1.0  0.06358  0.34870  0.57108  1.0000 -0.5491984835
O   O10       1.0  0.97886  0.53120  0.59266  1.0000 -0.5264119407
O   O11       1.0  0.83496  0.37700  0.45816  1.0000 -0.5647673359
O   O12       1.0  0.75159  0.55960  0.47889  1.0000 -0.5218617668
O   O13       1.0  0.19967  0.24380  0.34717  1.0000 -0.2223931881
O   O14       1.0  0.06358  0.15130  0.07108  1.0000 -0.5491984835
O   O15       1.0  0.97886  0.96880  0.09266  1.0000 -0.5264119407
O   O16       1.0  0.16504  0.87700  0.04184  1.0000 -0.5647673359
O   O17       1.0  0.24841  0.05960  0.02111  1.0000 -0.5218617668
O   O18       1.0  0.80033  0.74380  0.15283  1.0000 -0.2223931881
O   O19       1.0  0.93642  0.65130  0.42892  1.0000 -0.5491984835
O   O20       1.0  0.02114  0.46880  0.40734  1.0000 -0.5264119407
