# DDEC6 charges by PACMAN v1.1 (https://github.com/mtap-research/PACMAN-charge/)
data_2017[Zn][etd]3[ASR]1
_chemical_formula_sum              "Zn6 H24 C54 O36"
_cell_length_a       21.436
_cell_length_b       21.436
_cell_length_c       13.767
_cell_angle_alpha    90
_cell_angle_beta     90
_cell_angle_gamma    120

_symmetry_space_group_name_H-M    "P 1"
_symmetry_Int_Tables_number       1

loop_
  _symmetry_equiv_pos_as_xyz
  'x, y, z'

loop_
  _atom_site_type_symbol
  _atom_site_label
  _atom_site_symmetry_multiplicity
  _atom_site_fract_x
  _atom_site_fract_y
  _atom_site_fract_z
  _atom_site_occupancy
  _atom_site_charge
Zn  Zn1       1.0  0.08492  0.40486  0.04549  1.0000 0.9365129531
Zn  Zn2       1.0  0.31994  0.91508  0.71216  1.0000 0.9365129531
Zn  Zn3       1.0  0.59514  0.68006  0.37882  1.0000 0.9365129531
Zn  Zn4       1.0  0.91508  0.59514  0.54549  1.0000 0.9365129531
Zn  Zn5       1.0  0.68006  0.08492  0.21216  1.0000 0.9365129531
Zn  Zn6       1.0  0.40486  0.31994  0.87882  1.0000 0.9365129531
H   H1        1.0  0.03990  0.50130  0.24400  1.0000 0.3473249535
H   H2        1.0  0.88500  0.28790  0.20980  1.0000 0.1413472404
H   H3        1.0  0.78520  0.31910  0.42450  1.0000 0.1413472404
H   H4        1.0  0.97030  0.48080  0.33830  1.0000 0.1157934874
H   H5        1.0  0.46140  0.96010  0.91067  1.0000 0.3473249535
H   H6        1.0  0.40290  0.11500  0.87647  1.0000 0.1413472404
H   H7        1.0  0.53390  0.21480  0.09117  1.0000 0.1413472404
H   H8        1.0  0.51050  0.02970  0.00497  1.0000 0.1157934874
H   H9        1.0  0.49870  0.53860  0.57733  1.0000 0.3473249535
H   H10       1.0  0.71210  0.59710  0.54313  1.0000 0.1413472404
H   H11       1.0  0.68090  0.46610  0.75783  1.0000 0.1413472404
H   H12       1.0  0.51920  0.48950  0.67163  1.0000 0.1157934874
H   H13       1.0  0.96010  0.49870  0.74400  1.0000 0.3473249535
H   H14       1.0  0.11500  0.71210  0.70980  1.0000 0.1413472404
H   H15       1.0  0.21480  0.68090  0.92450  1.0000 0.1413472404
H   H16       1.0  0.02970  0.51920  0.83830  1.0000 0.1157934874
H   H17       1.0  0.53860  0.03990  0.41067  1.0000 0.3473249535
H   H18       1.0  0.59710  0.88500  0.37647  1.0000 0.1413472404
H   H19       1.0  0.46610  0.78520  0.59117  1.0000 0.1413472404
H   H20       1.0  0.48950  0.97030  0.50497  1.0000 0.1157934874
H   H21       1.0  0.50130  0.46140  0.07733  1.0000 0.3473249535
H   H22       1.0  0.28790  0.40290  0.04313  1.0000 0.1413472404
H   H23       1.0  0.31910  0.53390  0.25783  1.0000 0.1413472404
H   H24       1.0  0.48080  0.51050  0.17163  1.0000 0.1157934874
C   C1        1.0  0.00500  0.41560  0.19550  1.0000 0.5599720141
C   C2        1.0  0.76170  0.21710  0.30270  1.0000 0.566705516
C   C3        1.0  0.87820  0.45850  0.47460  1.0000 0.566705516
C   C4        1.0  0.93800  0.38860  0.26410  1.0000 -0.0363385596
C   C5        1.0  0.88230  0.31830  0.25570  1.0000 -0.0934139188
C   C6        1.0  0.82370  0.29340  0.31400  1.0000 -0.0143021087
C   C7        1.0  0.82430  0.33750  0.38240  1.0000 -0.0934139188
C   C8        1.0  0.87800  0.40860  0.39690  1.0000 -0.0023810643
C   C9        1.0  0.93370  0.43300  0.33440  1.0000 -0.1545691828
C   C10       1.0  0.41060  0.99500  0.86217  1.0000 0.5599720141
C   C11       1.0  0.45540  0.23830  0.96937  1.0000 0.566705516
C   C12       1.0  0.58030  0.12180  0.14127  1.0000 0.566705516
C   C13       1.0  0.45060  0.06200  0.93077  1.0000 -0.0363385596
C   C14       1.0  0.43600  0.11770  0.92237  1.0000 -0.0934139188
C   C15       1.0  0.46970  0.17630  0.98067  1.0000 -0.0143021087
C   C16       1.0  0.51320  0.17570  0.04907  1.0000 -0.0934139188
C   C17       1.0  0.53060  0.12200  0.06357  1.0000 -0.0023810643
C   C18       1.0  0.49930  0.06630  0.00107  1.0000 -0.1545691828
C   C19       1.0  0.58440  0.58940  0.52883  1.0000 0.5599720141
C   C20       1.0  0.78290  0.54460  0.63603  1.0000 0.566705516
C   C21       1.0  0.54150  0.41970  0.80793  1.0000 0.566705516
C   C22       1.0  0.61140  0.54940  0.59743  1.0000 -0.0363385596
C   C23       1.0  0.68170  0.56400  0.58903  1.0000 -0.0934139188
C   C24       1.0  0.70660  0.53030  0.64733  1.0000 -0.0143021087
C   C25       1.0  0.66250  0.48680  0.71573  1.0000 -0.0934139188
C   C26       1.0  0.59140  0.46940  0.73023  1.0000 -0.0023810643
C   C27       1.0  0.56700  0.50070  0.66773  1.0000 -0.1555570056
C   C28       1.0  0.99500  0.58440  0.69550  1.0000 0.5599720141
C   C29       1.0  0.23830  0.78290  0.80270  1.0000 0.566705516
C   C30       1.0  0.12180  0.54150  0.97460  1.0000 0.566705516
C   C31       1.0  0.06200  0.61140  0.76410  1.0000 -0.0363385596
C   C32       1.0  0.11770  0.68170  0.75570  1.0000 -0.0934139188
C   C33       1.0  0.17630  0.70660  0.81400  1.0000 -0.0143021087
C   C34       1.0  0.17570  0.66250  0.88240  1.0000 -0.0934139188
C   C35       1.0  0.12200  0.59140  0.89690  1.0000 -0.0023810643
C   C36       1.0  0.06630  0.56700  0.83440  1.0000 -0.1555570056
C   C37       1.0  0.58940  0.00500  0.36217  1.0000 0.5599720141
C   C38       1.0  0.54460  0.76170  0.46937  1.0000 0.566705516
C   C39       1.0  0.41970  0.87820  0.64127  1.0000 0.566705516
C   C40       1.0  0.54940  0.93800  0.43077  1.0000 -0.0363385596
C   C41       1.0  0.56400  0.88230  0.42237  1.0000 -0.0934139188
C   C42       1.0  0.53030  0.82370  0.48067  1.0000 -0.0143021087
C   C43       1.0  0.48680  0.82430  0.54907  1.0000 -0.0934139188
C   C44       1.0  0.46940  0.87800  0.56357  1.0000 -0.0023810643
C   C45       1.0  0.50070  0.93370  0.50107  1.0000 -0.1555570056
C   C46       1.0  0.41560  0.41060  0.02883  1.0000 0.5599720141
C   C47       1.0  0.21710  0.45540  0.13603  1.0000 0.566705516
C   C48       1.0  0.45850  0.58030  0.30793  1.0000 0.566705516
C   C49       1.0  0.38860  0.45060  0.09743  1.0000 -0.0363385596
C   C50       1.0  0.31830  0.43600  0.08903  1.0000 -0.0934139188
C   C51       1.0  0.29340  0.46970  0.14733  1.0000 -0.0143021087
C   C52       1.0  0.33750  0.51320  0.21573  1.0000 -0.0934139188
C   C53       1.0  0.40860  0.53060  0.23023  1.0000 -0.0023810643
C   C54       1.0  0.43300  0.49930  0.16773  1.0000 -0.1545691828
O   O1        1.0  0.00725  0.37135  0.14220  1.0000 -0.48463491
O   O2        1.0  0.05305  0.48202  0.20390  1.0000 -0.3999091923
O   O3        1.0  0.76531  0.17805  0.23830  1.0000 -0.54985617
O   O4        1.0  0.70990  0.19810  0.36230  1.0000 -0.4867036951
O   O5        1.0  0.91415  0.52396  0.45980  1.0000 -0.5563854019
O   O6        1.0  0.83766  0.42889  0.54820  1.0000 -0.5015828997
O   O7        1.0  0.36410  0.99275  0.80887  1.0000 -0.4867036951
O   O8        1.0  0.42897  0.94695  0.87057  1.0000 -0.3999091923
O   O9        1.0  0.41274  0.23469  0.90497  1.0000 -0.54985617
O   O10       1.0  0.48820  0.29010  0.02897  1.0000 -0.4867036951
O   O11       1.0  0.60981  0.08585  0.12647  1.0000 -0.5563854019
O   O12       1.0  0.59123  0.16234  0.21487  1.0000 -0.5015828997
O   O13       1.0  0.62865  0.63590  0.47553  1.0000 -0.4867036951
O   O14       1.0  0.51798  0.57103  0.53723  1.0000 -0.3999091923
O   O15       1.0  0.82195  0.58726  0.57163  1.0000 -0.54985617
O   O16       1.0  0.80190  0.51180  0.69563  1.0000 -0.4867036951
O   O17       1.0  0.47604  0.39019  0.79313  1.0000 -0.5563854019
O   O18       1.0  0.57111  0.40877  0.88153  1.0000 -0.5015828997
O   O19       1.0  0.99275  0.62865  0.64220  1.0000 -0.4867036951
O   O20       1.0  0.94695  0.51798  0.70390  1.0000 -0.3999091923
O   O21       1.0  0.23469  0.82195  0.73830  1.0000 -0.54985617
O   O22       1.0  0.29010  0.80190  0.86230  1.0000 -0.4867036951
O   O23       1.0  0.08585  0.47604  0.95980  1.0000 -0.5563854019
O   O24       1.0  0.16234  0.57111  0.04820  1.0000 -0.5015828997
O   O25       1.0  0.63590  0.00725  0.30887  1.0000 -0.4867036951
O   O26       1.0  0.57103  0.05305  0.37057  1.0000 -0.3999091923
O   O27       1.0  0.58726  0.76531  0.40497  1.0000 -0.54985617
O   O28       1.0  0.51180  0.70990  0.52897  1.0000 -0.4867036951
O   O29       1.0  0.39019  0.91415  0.62647  1.0000 -0.5563854019
O   O30       1.0  0.40877  0.83766  0.71487  1.0000 -0.5015828997
O   O31       1.0  0.37135  0.36410  0.97553  1.0000 -0.4867036951
O   O32       1.0  0.48202  0.42897  0.03723  1.0000 -0.3999091923
O   O33       1.0  0.17805  0.41274  0.07163  1.0000 -0.54985617
O   O34       1.0  0.19810  0.48820  0.19563  1.0000 -0.4867036951
O   O35       1.0  0.52396  0.60981  0.29313  1.0000 -0.5563854019
O   O36       1.0  0.42889  0.59123  0.38153  1.0000 -0.5015828997
