# DDEC6 charges by PACMAN v1.1 (https://github.com/mtap-research/PACMAN-charge/)
data_2017[Zn][sql]3[ASR]1
_chemical_formula_sum              "Zn4 H70 C104 N4 O20"
_cell_length_a       14.6555
_cell_length_b       14.6555
_cell_length_c       16.1605
_cell_angle_alpha    79.2755
_cell_angle_beta     100.724
_cell_angle_gamma    61.4275

_symmetry_space_group_name_H-M    "P 1"
_symmetry_Int_Tables_number       1

loop_
  _symmetry_equiv_pos_as_xyz
  'x, y, z'

loop_
  _atom_site_type_symbol
  _atom_site_label
  _atom_site_symmetry_multiplicity
  _atom_site_fract_x
  _atom_site_fract_y
  _atom_site_fract_z
  _atom_site_occupancy
  _atom_site_charge
Zn  Zn1       1.0  0.83543  0.11779  0.64294  1.0000 0.5896744479
Zn  Zn2       1.0  0.00492  0.98698  0.85793  1.0000 0.8475127369
Zn  Zn3       1.0  0.88221  0.16457  0.14294  1.0000 0.5896744479
Zn  Zn4       1.0  0.01302  0.99508  0.35793  1.0000 0.8475127369
H   H1        1.0  0.95070  0.95370  0.02780  1.0000 0.1115698099
H   H2        1.0  0.03440  0.86100  0.17650  1.0000 0.1572409234
H   H3        1.0  0.31900  0.71440  0.12930  1.0000 0.1295574286
H   H4        1.0  0.22780  0.80120  0.98130  1.0000 0.1115698099
H   H5        1.0  0.19460  0.72800  0.30170  1.0000 0.1295574286
H   H6        1.0  0.39300  0.66500  0.27770  1.0000 0.1115698099
H   H7        1.0  0.25290  0.55790  0.36310  1.0000 0.1177783779
H   H8        1.0  0.19380  0.47180  0.44690  1.0000 0.1177783779
H   H9        1.0  0.26640  0.41080  0.60040  1.0000 0.1177783779
H   H10       1.0  0.39970  0.43130  0.66667  1.0000 0.1177783779
H   H11       1.0  0.59430  0.57650  0.56820  1.0000 0.1295574286
H   H12       1.0  0.51450  0.65050  0.41450  1.0000 0.1295574286
H   H13       1.0  0.49570  0.48930  0.72390  1.0000 0.1295574286
H   H14       1.0  0.68680  0.43620  0.70240  1.0000 0.1501549705
H   H15       1.0  0.57240  0.45980  0.88250  1.0000 0.137576354
H   H16       1.0  0.66510  0.36370  0.02730  1.0000 0.1295574286
H   H17       1.0  0.93120  0.19260  0.97130  1.0000 0.1295574286
H   H18       1.0  0.84530  0.28970  0.82590  1.0000 0.1572409234
H   H19       1.0  0.08730  0.24010  0.90110  1.0000 0.1177783779
H   H20       1.0  0.19240  0.31720  0.91880  1.0000 0.137576354
H   H21       1.0  0.43810  0.06070  0.88180  1.0000 0.1295574286
H   H22       1.0  0.32870  0.98850  0.85750  1.0000 0.1177783779
H   H23       1.0  0.57770  0.17510  0.00050  1.0000 0.1295574286
H   H24       1.0  0.73330  0.11490  0.95630  1.0000 0.1115698099
H   H25       1.0  0.54990  0.19670  0.70870  1.0000 0.1177783779
H   H26       1.0  0.39600  0.25120  0.75260  1.0000 0.137576354
H   H27       1.0  0.94570  0.81450  0.57850  1.0000 0.1177783779
H   H28       1.0  0.01410  0.63850  0.56730  1.0000 0.137576354
H   H29       1.0  0.16350  0.51030  0.82950  1.0000 0.137576354
H   H30       1.0  0.09720  0.68420  0.83990  1.0000 0.1177783779
H   H31       1.0  0.94450  0.51830  0.69980  1.0000 0.1295574286
H   H32       1.0  0.85490  0.42410  0.68800  1.0000 0.1115698099
H   H33       1.0  0.11140  0.18280  0.65220  1.0000 0.1177783779
H   H34       1.0  0.20110  0.27590  0.66100  1.0000 0.137576354
H   H35       1.0  0.84320  0.23040  0.07030  1.0000 0.1295574286
H   H36       1.0  0.04630  0.04930  0.52780  1.0000 0.1115698099
H   H37       1.0  0.13900  0.96560  0.67650  1.0000 0.1572409234
H   H38       1.0  0.28560  0.68100  0.62930  1.0000 0.1295574286
H   H39       1.0  0.19880  0.77220  0.48130  1.0000 0.1115698099
H   H40       1.0  0.27200  0.80540  0.80170  1.0000 0.1295574286
H   H41       1.0  0.33500  0.60700  0.77770  1.0000 0.1115698099
H   H42       1.0  0.44210  0.74710  0.86310  1.0000 0.1177783779
H   H43       1.0  0.52820  0.80620  0.94690  1.0000 0.1177783779
H   H44       1.0  0.58920  0.73360  0.10040  1.0000 0.1177783779
H   H45       1.0  0.56870  0.60030  0.16667  1.0000 0.1177783779
H   H46       1.0  0.42350  0.40570  0.06820  1.0000 0.1295574286
H   H47       1.0  0.34950  0.48550  0.91450  1.0000 0.1295574286
H   H48       1.0  0.51070  0.50430  0.22390  1.0000 0.1295574286
H   H49       1.0  0.56380  0.31320  0.20240  1.0000 0.1501549705
H   H50       1.0  0.54020  0.42760  0.38250  1.0000 0.137576354
H   H51       1.0  0.63630  0.33490  0.52730  1.0000 0.1295574286
H   H52       1.0  0.80740  0.06880  0.47130  1.0000 0.1295574286
H   H53       1.0  0.71030  0.15470  0.32590  1.0000 0.1572409234
H   H54       1.0  0.75990  0.91270  0.40110  1.0000 0.1177783779
H   H55       1.0  0.68280  0.80760  0.41880  1.0000 0.137576354
H   H56       1.0  0.93930  0.56190  0.38180  1.0000 0.1295574286
H   H57       1.0  0.01150  0.67130  0.35750  1.0000 0.1177783779
H   H58       1.0  0.82490  0.42230  0.50050  1.0000 0.1295574286
H   H59       1.0  0.88510  0.26670  0.45630  1.0000 0.1115698099
H   H60       1.0  0.80330  0.45010  0.20870  1.0000 0.1177783779
H   H61       1.0  0.74880  0.60400  0.25260  1.0000 0.1295574286
H   H62       1.0  0.18550  0.05430  0.07850  1.0000 0.1177783779
H   H63       1.0  0.36150  0.98590  0.06730  1.0000 0.137576354
H   H64       1.0  0.48970  0.83650  0.32950  1.0000 0.137576354
H   H65       1.0  0.31580  0.90280  0.33990  1.0000 0.1177783779
H   H66       1.0  0.48170  0.05550  0.19980  1.0000 0.137576354
H   H67       1.0  0.57590  0.14510  0.18800  1.0000 0.1115698099
H   H68       1.0  0.81720  0.88860  0.15220  1.0000 0.1177783779
H   H69       1.0  0.72410  0.79890  0.16100  1.0000 0.137576354
H   H70       1.0  0.76960  0.15680  0.57030  1.0000 0.1295574286
C   C1        1.0  0.02600  0.90360  0.04820  1.0000 0.0917011499
C   C2        1.0  0.07600  0.84980  0.13810  1.0000 -0.1708361879
C   C3        1.0  0.18790  0.77910  0.17080  1.0000 0.1572409234
C   C4        1.0  0.24340  0.76240  0.11000  1.0000 -0.1911679358
C   C5        1.0  0.18840  0.81560  0.02110  1.0000 0.072380688
C   C6        1.0  0.24050  0.72390  0.26800  1.0000 -0.1280563772
C   C7        1.0  0.34640  0.66960  0.31090  1.0000 -0.1416159422
C   C8        1.0  0.39650  0.61550  0.40830  1.0000 0.0629725455
C   C9        1.0  0.35940  0.55860  0.46080  1.0000 0.0196750499
C   C10       1.0  0.28200  0.53560  0.42460  1.0000 -0.1280563772
C   C11       1.0  0.24760  0.48320  0.47390  1.0000 -0.090396667
C   C12       1.0  0.29210  0.44550  0.56600  1.0000 -0.0812782944
C   C13       1.0  0.37030  0.45870  0.60510  1.0000 -0.1523417682
C   C14       1.0  0.41210  0.51410  0.55590  1.0000 0.0091597754
C   C15       1.0  0.49800  0.52400  0.59550  1.0000 0.0508473105
C   C16       1.0  0.53440  0.57300  0.54190  1.0000 -0.1523417682
C   C17       1.0  0.48610  0.61870  0.44840  1.0000 -0.1599859447
C   C18       1.0  0.54430  0.48210  0.69220  1.0000 -0.1154383831
C   C19       1.0  0.64120  0.43820  0.73600  1.0000 -0.1154383831
C   C20       1.0  0.69850  0.38690  0.83510  1.0000 0.1572409234
C   C21       1.0  0.64650  0.40610  0.89950  1.0000 -0.2102650464
C   C22       1.0  0.70200  0.34780  0.98590  1.0000 0.0333049147
C   C23       1.0  0.85770  0.24830  0.95340  1.0000 0.0629725455
C   C24       1.0  0.80630  0.30590  0.86580  1.0000 -0.1784302295
C   C25       1.0  0.12790  0.05810  0.86290  1.0000 0.5333217083
C   C26       1.0  0.19740  0.10680  0.87740  1.0000 -0.0404171497
C   C27       1.0  0.15720  0.20500  0.89600  1.0000 -0.090396667
C   C28       1.0  0.21980  0.25100  0.90690  1.0000 -0.2102650464
C   C29       1.0  0.32480  0.19640  0.89970  1.0000 0.2556129544
C   C30       1.0  0.36680  0.09780  0.88380  1.0000 -0.23198693
C   C31       1.0  0.30200  0.05380  0.87080  1.0000 -0.090396667
C   C32       1.0  0.47410  0.21410  0.88260  1.0000 0.241263356
C   C33       1.0  0.57220  0.17740  0.94180  1.0000 -0.2102650464
C   C34       1.0  0.66550  0.14270  0.91490  1.0000 -0.090396667
C   C35       1.0  0.65760  0.14940  0.82740  1.0000 -0.055123996
C   C36       1.0  0.55630  0.19070  0.76810  1.0000 -0.090396667
C   C37       1.0  0.46380  0.22340  0.79390  1.0000 -0.2160326094
C   C38       1.0  0.75670  0.11050  0.79850  1.0000 0.5896744479
C   C39       1.0  0.97390  0.87950  0.71760  1.0000 0.5896744479
C   C40       1.0  0.01480  0.76700  0.71040  1.0000 -0.0524429836
C   C41       1.0  0.98980  0.75360  0.62910  1.0000 -0.090396667
C   C42       1.0  0.03070  0.64750  0.62250  1.0000 -0.2160326094
C   C43       1.0  0.09400  0.55840  0.69610  1.0000 0.241263356
C   C44       1.0  0.11990  0.57130  0.77880  1.0000 -0.2102650464
C   C45       1.0  0.07990  0.67550  0.78470  1.0000 -0.090396667
C   C46       1.0  0.08060  0.40620  0.68120  1.0000 0.2544918805
C   C47       1.0  0.97790  0.45110  0.68960  1.0000 -0.23198693
C   C48       1.0  0.92480  0.39420  0.68270  1.0000 -0.090396667
C   C49       1.0  0.97380  0.29480  0.66810  1.0000 -0.0524429836
C   C50       1.0  0.07730  0.25070  0.66100  1.0000 -0.0812782944
C   C51       1.0  0.13150  0.30570  0.66667  1.0000 -0.2102650464
C   C52       1.0  0.91370  0.23650  0.65960  1.0000 0.5333217083
C   C53       1.0  0.09640  0.97400  0.54820  1.0000 0.0917011499
C   C54       1.0  0.15020  0.92400  0.63810  1.0000 -0.1708361879
C   C55       1.0  0.22090  0.81210  0.67080  1.0000 0.1572409234
C   C56       1.0  0.23760  0.75660  0.61000  1.0000 -0.1911679358
C   C57       1.0  0.18440  0.81160  0.52110  1.0000 0.072380688
C   C58       1.0  0.27610  0.75950  0.76800  1.0000 -0.1280563772
C   C59       1.0  0.33040  0.65360  0.81090  1.0000 -0.1416159422
C   C60       1.0  0.38450  0.60350  0.90830  1.0000 0.0629725455
C   C61       1.0  0.44140  0.64060  0.96080  1.0000 0.0196750499
C   C62       1.0  0.46440  0.71800  0.92460  1.0000 -0.1280563772
C   C63       1.0  0.51680  0.75240  0.97390  1.0000 -0.090396667
C   C64       1.0  0.55450  0.70790  0.06600  1.0000 -0.0812782944
C   C65       1.0  0.54130  0.62970  0.10510  1.0000 -0.1523417682
C   C66       1.0  0.48590  0.58790  0.05590  1.0000 0.0091597754
C   C67       1.0  0.47600  0.50200  0.09550  1.0000 0.0508473105
C   C68       1.0  0.42700  0.46560  0.04190  1.0000 -0.1523417682
C   C69       1.0  0.38130  0.51390  0.94840  1.0000 -0.1599859447
C   C70       1.0  0.51790  0.45570  0.19220  1.0000 -0.1154383831
C   C71       1.0  0.56180  0.35880  0.23600  1.0000 -0.1154383831
C   C72       1.0  0.61310  0.30150  0.33510  1.0000 0.1572409234
C   C73       1.0  0.59390  0.35350  0.39950  1.0000 -0.2102650464
C   C74       1.0  0.65220  0.29800  0.48590  1.0000 0.0333049147
C   C75       1.0  0.75170  0.14230  0.45340  1.0000 0.0629725455
C   C76       1.0  0.69410  0.19370  0.36580  1.0000 -0.1784302295
C   C77       1.0  0.94190  0.87210  0.36290  1.0000 0.5333217083
C   C78       1.0  0.89320  0.80260  0.37740  1.0000 -0.0404171497
C   C79       1.0  0.79500  0.84280  0.39600  1.0000 -0.090396667
C   C80       1.0  0.74900  0.78020  0.40690  1.0000 -0.2102650464
C   C81       1.0  0.80360  0.67520  0.39970  1.0000 0.2556129544
C   C82       1.0  0.90220  0.63320  0.38380  1.0000 -0.23198693
C   C83       1.0  0.94620  0.69800  0.37080  1.0000 -0.090396667
C   C84       1.0  0.78590  0.52590  0.38260  1.0000 0.241263356
C   C85       1.0  0.82260  0.42780  0.44180  1.0000 -0.2102650464
C   C86       1.0  0.85730  0.33450  0.41490  1.0000 -0.090396667
C   C87       1.0  0.85060  0.34240  0.32740  1.0000 -0.0524429836
C   C88       1.0  0.80930  0.44370  0.26810  1.0000 -0.090396667
C   C89       1.0  0.77660  0.53620  0.29390  1.0000 -0.2160326094
C   C90       1.0  0.88950  0.24330  0.29850  1.0000 0.5896744479
C   C91       1.0  0.12050  0.02610  0.21760  1.0000 0.5896744479
C   C92       1.0  0.23300  0.98520  0.21040  1.0000 -0.0524429836
C   C93       1.0  0.24640  0.01020  0.12910  1.0000 -0.090396667
C   C94       1.0  0.35250  0.96930  0.12250  1.0000 -0.2160326094
C   C95       1.0  0.44160  0.90600  0.19610  1.0000 0.241263356
C   C96       1.0  0.42870  0.88010  0.27880  1.0000 -0.2102650464
C   C97       1.0  0.32450  0.92010  0.28470  1.0000 -0.090396667
C   C98       1.0  0.59380  0.91940  0.18120  1.0000 0.2544918805
C   C99       1.0  0.54890  0.02210  0.18960  1.0000 -0.23198693
C   C100      1.0  0.60580  0.07520  0.18270  1.0000 -0.090396667
C   C101      1.0  0.70520  0.02620  0.16810  1.0000 -0.0524429836
C   C102      1.0  0.74930  0.92270  0.16100  1.0000 -0.0812782944
C   C103      1.0  0.69430  0.86850  0.16667  1.0000 -0.2102650464
C   C104      1.0  0.76350  0.08630  0.15960  1.0000 0.5333217083
N   N1        1.0  0.07930  0.88810  0.98890  1.0000 -0.2389916965
N   N2        1.0  0.80860  0.26740  0.01500  1.0000 -0.1708361879
N   N3        1.0  0.11190  0.92070  0.48890  1.0000 -0.2389916965
N   N4        1.0  0.73260  0.19140  0.51500  1.0000 -0.1708361879
O   O1        1.0  0.16390  0.96990  0.84570  1.0000 -0.5511981473
O   O2        1.0  0.03168  0.10948  0.86930  1.0000 -0.5511981473
O   O3        1.0  0.38300  0.24760  0.91210  1.0000 -0.23198693
O   O4        1.0  0.84920  0.06300  0.85610  1.0000 -0.5511981473
O   O5        1.0  0.73920  0.12920  0.71560  1.0000 -0.5296086521
O   O6        1.0  0.01120  0.88460  0.79230  1.0000 -0.5511981473
O   O7        1.0  0.90770  0.95990  0.64990  1.0000 -0.518533811
O   O8        1.0  0.14220  0.45360  0.69060  1.0000 -0.2389916965
O   O9        1.0  0.81520  0.28380  0.65540  1.0000 -0.5296086521
O   O10       1.0  0.96180  0.13940  0.65740  1.0000 -0.5149260015
O   O11       1.0  0.03010  0.83610  0.34570  1.0000 -0.5511981473
O   O12       1.0  0.89052  0.96832  0.36930  1.0000 -0.5511981473
O   O13       1.0  0.75240  0.61700  0.41210  1.0000 -0.23198693
O   O14       1.0  0.93700  0.15080  0.35610  1.0000 -0.5511981473
O   O15       1.0  0.87080  0.26080  0.21560  1.0000 -0.5296086521
O   O16       1.0  0.11540  0.98880  0.29230  1.0000 -0.5511981473
O   O17       1.0  0.04010  0.09230  0.14990  1.0000 -0.518533811
O   O18       1.0  0.54640  0.85780  0.19060  1.0000 -0.2389916965
O   O19       1.0  0.71620  0.18480  0.15540  1.0000 -0.5296086521
O   O20       1.0  0.86060  0.03820  0.15740  1.0000 -0.5149260015
