# DDEC6 charges by PACMAN v1.1 (https://github.com/mtap-research/PACMAN-charge/)
data_2017[Zn][sql]2[ASR]15
_chemical_formula_sum              "Zn4 H64 C96 S4 N16 O24"
_cell_length_a       7.7419
_cell_length_b       22.187
_cell_length_c       18.557
_cell_angle_alpha    90
_cell_angle_beta     100.744
_cell_angle_gamma    90

_symmetry_space_group_name_H-M    "P 1"
_symmetry_Int_Tables_number       1

loop_
  _symmetry_equiv_pos_as_xyz
  'x, y, z'

loop_
  _atom_site_type_symbol
  _atom_site_label
  _atom_site_symmetry_multiplicity
  _atom_site_fract_x
  _atom_site_fract_y
  _atom_site_fract_z
  _atom_site_occupancy
  _atom_site_charge
Zn  Zn1       1.0  0.49360  0.79993  0.44136  1.0000 0.7510680943
Zn  Zn2       1.0  0.50640  0.29993  0.05864  1.0000 0.7510680943
Zn  Zn3       1.0  0.50640  0.20007  0.55864  1.0000 0.7510680943
Zn  Zn4       1.0  0.49360  0.70007  0.94136  1.0000 0.7510680943
H   H1        1.0  0.80670  0.04720  0.53060  1.0000 0.291481772
H   H2        1.0  0.11570  0.17540  0.84630  1.0000 0.2825340271
H   H3        1.0  0.07640  0.70040  0.29450  1.0000 0.1093798946
H   H4        1.0  0.91230  0.64610  0.20040  1.0000 0.1212919034
H   H5        1.0  0.01000  0.63290  0.09220  1.0000 0.1093798946
H   H6        1.0  0.43890  0.73060  0.17030  1.0000 0.1212919034
H   H7        1.0  0.53020  0.88550  0.31690  1.0000 0.1093798946
H   H8        1.0  0.63710  0.98040  0.30170  1.0000 0.1386242505
H   H9        1.0  0.74820  0.03740  0.40410  1.0000 0.1386242505
H   H10       1.0  0.64260  0.90050  0.52960  1.0000 0.1212919034
H   H11       1.0  0.94970  0.11200  0.61000  1.0000 0.1316929971
H   H12       1.0  0.01670  0.16960  0.72420  1.0000 0.1316929971
H   H13       1.0  0.32050  0.21990  0.93790  1.0000 0.1316929971
H   H14       1.0  0.17620  0.28030  0.11580  1.0000 0.1093798946
H   H15       1.0  0.90450  0.23700  0.08170  1.0000 0.1386242505
H   H16       1.0  0.83720  0.18350  0.97140  1.0000 0.1386242505
H   H17       1.0  0.19330  0.54720  0.96940  1.0000 0.291481772
H   H18       1.0  0.88430  0.67540  0.65370  1.0000 0.2825340271
H   H19       1.0  0.92360  0.20040  0.20550  1.0000 0.1093798946
H   H20       1.0  0.08770  0.14610  0.29960  1.0000 0.1212919034
H   H21       1.0  0.99000  0.13290  0.40780  1.0000 0.1093798946
H   H22       1.0  0.56110  0.23060  0.32970  1.0000 0.1212919034
H   H23       1.0  0.46980  0.38550  0.18310  1.0000 0.1093798946
H   H24       1.0  0.36290  0.48040  0.19830  1.0000 0.1386242505
H   H25       1.0  0.25180  0.53740  0.09590  1.0000 0.1386242505
H   H26       1.0  0.35740  0.40050  0.97040  1.0000 0.1212919034
H   H27       1.0  0.05030  0.61200  0.89000  1.0000 0.1316929971
H   H28       1.0  0.98330  0.66960  0.77580  1.0000 0.1316929971
H   H29       1.0  0.67950  0.71990  0.56210  1.0000 0.1316929971
H   H30       1.0  0.82380  0.78030  0.38420  1.0000 0.1093798946
H   H31       1.0  0.09550  0.73700  0.41830  1.0000 0.1386242505
H   H32       1.0  0.16280  0.68350  0.52860  1.0000 0.1386242505
H   H33       1.0  0.19330  0.95280  0.46940  1.0000 0.291481772
H   H34       1.0  0.88430  0.82460  0.15370  1.0000 0.2825340271
H   H35       1.0  0.92360  0.29960  0.70550  1.0000 0.1093798946
H   H36       1.0  0.08770  0.35390  0.79960  1.0000 0.1212919034
H   H37       1.0  0.99000  0.36710  0.90780  1.0000 0.1093798946
H   H38       1.0  0.56110  0.26940  0.82970  1.0000 0.1212919034
H   H39       1.0  0.46980  0.11450  0.68310  1.0000 0.1093798946
H   H40       1.0  0.36290  0.01960  0.69830  1.0000 0.1386242505
H   H41       1.0  0.25180  0.96260  0.59590  1.0000 0.1386242505
H   H42       1.0  0.35740  0.09950  0.47040  1.0000 0.1212919034
H   H43       1.0  0.05030  0.88800  0.39000  1.0000 0.1316929971
H   H44       1.0  0.98330  0.83040  0.27580  1.0000 0.1316929971
H   H45       1.0  0.67950  0.78010  0.06210  1.0000 0.1316929971
H   H46       1.0  0.82380  0.71970  0.88420  1.0000 0.1093798946
H   H47       1.0  0.09550  0.76300  0.91830  1.0000 0.1386242505
H   H48       1.0  0.16280  0.81650  0.02860  1.0000 0.1386242505
H   H49       1.0  0.80670  0.45280  0.03060  1.0000 0.291481772
H   H50       1.0  0.11570  0.32460  0.34630  1.0000 0.2825340271
H   H51       1.0  0.07640  0.79960  0.79450  1.0000 0.1093798946
H   H52       1.0  0.91230  0.85390  0.70040  1.0000 0.1212919034
H   H53       1.0  0.01000  0.86710  0.59220  1.0000 0.1093798946
H   H54       1.0  0.43890  0.76940  0.67030  1.0000 0.1212919034
H   H55       1.0  0.53020  0.61450  0.81690  1.0000 0.1093798946
H   H56       1.0  0.63710  0.51960  0.80170  1.0000 0.1386242505
H   H57       1.0  0.74820  0.46260  0.90410  1.0000 0.1386242505
H   H58       1.0  0.64260  0.59950  0.02960  1.0000 0.1212919034
H   H59       1.0  0.94970  0.38800  0.11000  1.0000 0.1316929971
H   H60       1.0  0.01670  0.33040  0.22420  1.0000 0.1316929971
H   H61       1.0  0.32050  0.28010  0.43790  1.0000 0.1316929971
H   H62       1.0  0.17620  0.21970  0.61580  1.0000 0.1093798946
H   H63       1.0  0.90450  0.26300  0.58170  1.0000 0.1386242505
H   H64       1.0  0.83720  0.31650  0.47140  1.0000 0.1386242505
C   C1        1.0  0.38810  0.75420  0.30430  1.0000 0.5509457081
C   C2        1.0  0.27840  0.72030  0.24350  1.0000 -0.0377455153
C   C3        1.0  0.11760  0.69520  0.25090  1.0000 -0.1106426713
C   C4        1.0  0.01890  0.66280  0.19450  1.0000 -0.0914526362
C   C5        1.0  0.07700  0.65510  0.12990  1.0000 -0.1106426713
C   C6        1.0  0.23540  0.68020  0.12020  1.0000 -0.0377455153
C   C7        1.0  0.33390  0.71310  0.17690  1.0000 -0.1106426713
C   C8        1.0  0.29510  0.67190  0.04820  1.0000 0.5509457081
C   C9        1.0  0.57600  0.90820  0.35820  1.0000 0.0595439277
C   C10       1.0  0.63930  0.96510  0.34860  1.0000 -0.1106426713
C   C11       1.0  0.70550  0.99880  0.40930  1.0000 -0.1301546306
C   C12       1.0  0.70840  0.97510  0.47840  1.0000 0.1896656226
C   C13       1.0  0.64220  0.91710  0.48350  1.0000 -0.0291505355
C   C14       1.0  0.78930  0.99580  0.61180  1.0000 0.4591671616
C   C15       1.0  0.85640  0.04380  0.66380  1.0000 -0.1404722989
C   C16       1.0  0.92790  0.09810  0.65480  1.0000 -0.1106426713
C   C17       1.0  0.96630  0.13140  0.72070  1.0000 -0.1404722989
C   C18       1.0  0.92210  0.10200  0.77750  1.0000 -0.1106426713
C   C19       1.0  0.92770  0.12260  0.85420  1.0000 0.4823532343
C   C20       1.0  0.07490  0.19610  0.94420  1.0000 0.1896656226
C   C21       1.0  0.23540  0.22340  0.96710  1.0000 -0.0291505355
C   C22       1.0  0.15050  0.25910  0.07180  1.0000 0.0595439277
C   C23       1.0  0.98760  0.23320  0.05170  1.0000 -0.1106426713
C   C24       1.0  0.94720  0.20110  0.98620  1.0000 -0.1106426713
C   C25       1.0  0.61190  0.25420  0.19570  1.0000 0.5509457081
C   C26       1.0  0.72160  0.22030  0.25650  1.0000 -0.0377455153
C   C27       1.0  0.88240  0.19520  0.24910  1.0000 -0.1106426713
C   C28       1.0  0.98110  0.16280  0.30550  1.0000 -0.0914526362
C   C29       1.0  0.92300  0.15510  0.37010  1.0000 -0.1106426713
C   C30       1.0  0.76460  0.18020  0.37980  1.0000 -0.0377455153
C   C31       1.0  0.66610  0.21310  0.32310  1.0000 -0.1106426713
C   C32       1.0  0.70490  0.17190  0.45180  1.0000 0.5509457081
C   C33       1.0  0.42400  0.40820  0.14180  1.0000 0.0595439277
C   C34       1.0  0.36070  0.46510  0.15140  1.0000 -0.1106426713
C   C35       1.0  0.29450  0.49880  0.09070  1.0000 -0.1301546306
C   C36       1.0  0.29160  0.47510  0.02160  1.0000 0.1896656226
C   C37       1.0  0.35780  0.41710  0.01650  1.0000 -0.0291505355
C   C38       1.0  0.21070  0.49580  0.88820  1.0000 0.4591671616
C   C39       1.0  0.14360  0.54380  0.83620  1.0000 -0.1404722989
C   C40       1.0  0.07210  0.59810  0.84520  1.0000 -0.1106426713
C   C41       1.0  0.03370  0.63140  0.77930  1.0000 -0.1404722989
C   C42       1.0  0.07790  0.60200  0.72250  1.0000 -0.1106426713
C   C43       1.0  0.07230  0.62260  0.64580  1.0000 0.4823532343
C   C44       1.0  0.92510  0.69610  0.55580  1.0000 0.1896656226
C   C45       1.0  0.76460  0.72340  0.53290  1.0000 -0.0291505355
C   C46       1.0  0.84950  0.75910  0.42820  1.0000 0.0595439277
C   C47       1.0  0.01240  0.73320  0.44830  1.0000 -0.1106426713
C   C48       1.0  0.05280  0.70110  0.51380  1.0000 -0.1106426713
C   C49       1.0  0.61190  0.24580  0.69570  1.0000 0.5509457081
C   C50       1.0  0.72160  0.27970  0.75650  1.0000 -0.0377455153
C   C51       1.0  0.88240  0.30480  0.74910  1.0000 -0.1106426713
C   C52       1.0  0.98110  0.33720  0.80550  1.0000 -0.0914526362
C   C53       1.0  0.92300  0.34490  0.87010  1.0000 -0.1106426713
C   C54       1.0  0.76460  0.31980  0.87980  1.0000 -0.0377455153
C   C55       1.0  0.66610  0.28690  0.82310  1.0000 -0.1106426713
C   C56       1.0  0.70490  0.32810  0.95180  1.0000 0.5509457081
C   C57       1.0  0.42400  0.09180  0.64180  1.0000 0.0595439277
C   C58       1.0  0.36070  0.03490  0.65140  1.0000 -0.1106426713
C   C59       1.0  0.29450  0.00120  0.59070  1.0000 -0.1301546306
C   C60       1.0  0.29160  0.02490  0.52160  1.0000 0.1896656226
C   C61       1.0  0.35780  0.08290  0.51650  1.0000 -0.0291505355
C   C62       1.0  0.21070  0.00420  0.38820  1.0000 0.4591671616
C   C63       1.0  0.14360  0.95620  0.33620  1.0000 -0.1404722989
C   C64       1.0  0.07210  0.90190  0.34520  1.0000 -0.1106426713
C   C65       1.0  0.03370  0.86860  0.27930  1.0000 -0.1404722989
C   C66       1.0  0.07790  0.89800  0.22250  1.0000 -0.1106426713
C   C67       1.0  0.07230  0.87740  0.14580  1.0000 0.4823532343
C   C68       1.0  0.92510  0.80390  0.05580  1.0000 0.1896656226
C   C69       1.0  0.76460  0.77660  0.03290  1.0000 -0.0291505355
C   C70       1.0  0.84950  0.74090  0.92820  1.0000 0.0595439277
C   C71       1.0  0.01240  0.76680  0.94830  1.0000 -0.1106426713
C   C72       1.0  0.05280  0.79890  0.01380  1.0000 -0.1106426713
C   C73       1.0  0.38810  0.74580  0.80430  1.0000 0.5509457081
C   C74       1.0  0.27840  0.77970  0.74350  1.0000 -0.0377455153
C   C75       1.0  0.11760  0.80480  0.75090  1.0000 -0.1106426713
C   C76       1.0  0.01890  0.83720  0.69450  1.0000 -0.0914526362
C   C77       1.0  0.07700  0.84490  0.62990  1.0000 -0.1106426713
C   C78       1.0  0.23540  0.81980  0.62020  1.0000 -0.0377455153
C   C79       1.0  0.33390  0.78690  0.67690  1.0000 -0.1106426713
C   C80       1.0  0.29510  0.82810  0.54820  1.0000 0.5509457081
C   C81       1.0  0.57600  0.59180  0.85820  1.0000 0.0595439277
C   C82       1.0  0.63930  0.53490  0.84860  1.0000 -0.1106426713
C   C83       1.0  0.70550  0.50120  0.90930  1.0000 -0.1301546306
C   C84       1.0  0.70840  0.52490  0.97840  1.0000 0.1896656226
C   C85       1.0  0.64220  0.58290  0.98350  1.0000 -0.0291505355
C   C86       1.0  0.78930  0.50420  0.11180  1.0000 0.4591671616
C   C87       1.0  0.85640  0.45620  0.16380  1.0000 -0.1404722989
C   C88       1.0  0.92790  0.40190  0.15480  1.0000 -0.1106426713
C   C89       1.0  0.96630  0.36860  0.22070  1.0000 -0.1404722989
C   C90       1.0  0.92210  0.39800  0.27750  1.0000 -0.1106426713
C   C91       1.0  0.92770  0.37740  0.35420  1.0000 0.4823532343
C   C92       1.0  0.07490  0.30390  0.44420  1.0000 0.1896656226
C   C93       1.0  0.23540  0.27660  0.46710  1.0000 -0.0291505355
C   C94       1.0  0.15050  0.24090  0.57180  1.0000 0.0595439277
C   C95       1.0  0.98760  0.26680  0.55170  1.0000 -0.1106426713
C   C96       1.0  0.94720  0.29890  0.48620  1.0000 -0.1106426713
S   S1        1.0  0.83330  0.03259  0.75292  1.0000 0.1503777593
S   S2        1.0  0.16670  0.53259  0.74708  1.0000 0.1503777593
S   S3        1.0  0.16670  0.96741  0.24708  1.0000 0.1503777593
S   S4        1.0  0.83330  0.46741  0.25292  1.0000 0.1503777593
N   N1        1.0  0.57780  0.88458  0.42320  1.0000 -0.2232022196
N   N2        1.0  0.77340  0.01143  0.53960  1.0000 -0.3656681985
N   N3        1.0  0.04830  0.16560  0.87640  1.0000 -0.3562901676
N   N4        1.0  0.27370  0.25473  0.02990  1.0000 -0.2046030373
N   N5        1.0  0.42220  0.38458  0.07680  1.0000 -0.2232022196
N   N6        1.0  0.22660  0.51143  0.96040  1.0000 -0.3656681985
N   N7        1.0  0.95170  0.66560  0.62360  1.0000 -0.3562901676
N   N8        1.0  0.72630  0.75473  0.47010  1.0000 -0.2046030373
N   N9        1.0  0.42220  0.11542  0.57680  1.0000 -0.2232022196
N   N10       1.0  0.22660  0.98857  0.46040  1.0000 -0.3656681985
N   N11       1.0  0.95170  0.83440  0.12360  1.0000 -0.3562901676
N   N12       1.0  0.72630  0.74527  0.97010  1.0000 -0.2046030373
N   N13       1.0  0.57780  0.61542  0.92320  1.0000 -0.2232022196
N   N14       1.0  0.77340  0.48857  0.03960  1.0000 -0.3656681985
N   N15       1.0  0.04830  0.33440  0.37640  1.0000 -0.3562901676
N   N16       1.0  0.27370  0.24527  0.52990  1.0000 -0.2046030373
O   O1        1.0  0.33040  0.75902  0.36463  1.0000 -0.5409933612
O   O2        1.0  0.53090  0.77550  0.29736  1.0000 -0.5571666643
O   O3        1.0  0.41780  0.70640  0.03585  1.0000 -0.5409933612
O   O4        1.0  0.22570  0.63280  0.00492  1.0000 -0.5571666643
O   O5        1.0  0.75000  0.94640  0.63226  1.0000 -0.463178663
O   O6        1.0  0.82900  0.10160  0.89130  1.0000 -0.4375161737
O   O7        1.0  0.66960  0.25902  0.13537  1.0000 -0.5409933612
O   O8        1.0  0.46910  0.27550  0.20264  1.0000 -0.5571666643
O   O9        1.0  0.58220  0.20640  0.46415  1.0000 -0.5409933612
O   O10       1.0  0.77430  0.13280  0.49508  1.0000 -0.5571666643
O   O11       1.0  0.25000  0.44640  0.86774  1.0000 -0.463178663
O   O12       1.0  0.17100  0.60160  0.60870  1.0000 -0.4375161737
O   O13       1.0  0.66960  0.24098  0.63537  1.0000 -0.5409933612
O   O14       1.0  0.46910  0.22450  0.70264  1.0000 -0.5571666643
O   O15       1.0  0.58220  0.29360  0.96415  1.0000 -0.5409933612
O   O16       1.0  0.77430  0.36720  0.99508  1.0000 -0.5571666643
O   O17       1.0  0.25000  0.05360  0.36774  1.0000 -0.463178663
O   O18       1.0  0.17100  0.89840  0.10870  1.0000 -0.4375161737
O   O19       1.0  0.33040  0.74098  0.86463  1.0000 -0.5409933612
O   O20       1.0  0.53090  0.72450  0.79736  1.0000 -0.5571666643
O   O21       1.0  0.41780  0.79360  0.53585  1.0000 -0.5409933612
O   O22       1.0  0.22570  0.86720  0.50492  1.0000 -0.5571666643
O   O23       1.0  0.75000  0.55360  0.13226  1.0000 -0.463178663
O   O24       1.0  0.82900  0.39840  0.39130  1.0000 -0.4375161737
