# DDEC6 charges by PACMAN v1.1 (https://github.com/mtap-research/PACMAN-charge/)
data_2017[Eu][vab]3[ASR]1
_chemical_formula_sum              "Eu12 H36 C84 N12 O48"
_cell_length_a       17.1496
_cell_length_b       17.1496
_cell_length_c       17.1496
_cell_angle_alpha    109.471
_cell_angle_beta     109.471
_cell_angle_gamma    109.471

_symmetry_space_group_name_H-M    "P 1"
_symmetry_Int_Tables_number       1

loop_
  _symmetry_equiv_pos_as_xyz
  'x, y, z'

loop_
  _atom_site_type_symbol
  _atom_site_label
  _atom_site_symmetry_multiplicity
  _atom_site_fract_x
  _atom_site_fract_y
  _atom_site_fract_z
  _atom_site_occupancy
  _atom_site_charge
Eu  Eu1       1.0  0.75000  0.90219  0.15219  1.0000 1.8885037645
Eu  Eu2       1.0  0.25000  0.59781  0.34781  1.0000 1.8976868971
Eu  Eu3       1.0  0.15219  0.75000  0.90219  1.0000 1.8976868971
Eu  Eu4       1.0  0.34781  0.25000  0.59781  1.0000 1.8976868971
Eu  Eu5       1.0  0.90219  0.15219  0.75000  1.0000 1.8976868971
Eu  Eu6       1.0  0.59781  0.34781  0.25000  1.0000 1.8976868971
Eu  Eu7       1.0  0.25000  0.09781  0.84781  1.0000 1.8976868971
Eu  Eu8       1.0  0.75000  0.40219  0.65219  1.0000 1.8976868971
Eu  Eu9       1.0  0.84781  0.25000  0.09781  1.0000 1.8885037645
Eu  Eu10      1.0  0.65219  0.75000  0.40219  1.0000 1.8976868971
Eu  Eu11      1.0  0.09781  0.84781  0.25000  1.0000 1.8976868971
Eu  Eu12      1.0  0.40219  0.65219  0.75000  1.0000 1.8976868971
H   H1        1.0  0.79320  0.24690  0.36030  1.0000 0.1254338628
H   H2        1.0  0.38660  0.43290  0.13970  1.0000 0.1254338628
H   H3        1.0  0.11340  0.25310  0.04630  1.0000 0.1254338628
H   H4        1.0  0.70680  0.06710  0.45370  1.0000 0.1254338628
H   H5        1.0  0.36030  0.79320  0.24690  1.0000 0.1254338628
H   H6        1.0  0.13970  0.38660  0.43290  1.0000 0.1254338628
H   H7        1.0  0.04630  0.11340  0.25310  1.0000 0.1254338628
H   H8        1.0  0.45370  0.70680  0.06710  1.0000 0.1254338628
H   H9        1.0  0.24690  0.36030  0.79320  1.0000 0.1254338628
H   H10       1.0  0.43290  0.13970  0.38660  1.0000 0.1254338628
H   H11       1.0  0.25310  0.04630  0.11340  1.0000 0.1254338628
H   H12       1.0  0.06710  0.45370  0.70680  1.0000 0.1254338628
H   H13       1.0  0.20680  0.75310  0.63970  1.0000 0.1254338628
H   H14       1.0  0.61340  0.56710  0.86030  1.0000 0.1254338628
H   H15       1.0  0.88660  0.74690  0.95370  1.0000 0.1254338628
H   H16       1.0  0.29320  0.93290  0.54630  1.0000 0.1254338628
H   H17       1.0  0.63970  0.20680  0.75310  1.0000 0.1254338628
H   H18       1.0  0.86030  0.61340  0.56710  1.0000 0.1254338628
H   H19       1.0  0.95370  0.88660  0.74690  1.0000 0.1254338628
H   H20       1.0  0.54630  0.29320  0.93290  1.0000 0.1254338628
H   H21       1.0  0.75310  0.63970  0.20680  1.0000 0.1254338628
H   H22       1.0  0.56710  0.86030  0.61340  1.0000 0.1254338628
H   H23       1.0  0.74690  0.95370  0.88660  1.0000 0.1254338628
H   H24       1.0  0.93290  0.54630  0.29320  1.0000 0.1254338628
H   H25       1.0  0.75000  0.21550  0.46550  1.0000 0.0903214446
H   H26       1.0  0.25000  0.28450  0.03450  1.0000 0.0903214446
H   H27       1.0  0.46550  0.75000  0.21550  1.0000 0.0903214446
H   H28       1.0  0.03450  0.25000  0.28450  1.0000 0.0903214446
H   H29       1.0  0.21550  0.46550  0.75000  1.0000 0.0903214446
H   H30       1.0  0.28450  0.03450  0.25000  1.0000 0.0903214446
H   H31       1.0  0.25000  0.78450  0.53450  1.0000 0.0903214446
H   H32       1.0  0.75000  0.71550  0.96550  1.0000 0.0903214446
H   H33       1.0  0.53450  0.25000  0.78450  1.0000 0.0903214446
H   H34       1.0  0.96550  0.75000  0.71550  1.0000 0.0903214446
H   H35       1.0  0.78450  0.53450  0.25000  1.0000 0.0903214446
H   H36       1.0  0.71550  0.96550  0.75000  1.0000 0.0903214446
C   C1        1.0  0.80160  0.12530  0.21490  1.0000 0.5718246693
C   C2        1.0  0.77580  0.11600  0.28780  1.0000 0.0961991716
C   C3        1.0  0.77600  0.18760  0.35640  1.0000 -0.1552473452
C   C4        1.0  0.41040  0.58670  0.28510  1.0000 0.5718246693
C   C5        1.0  0.32820  0.48800  0.21220  1.0000 0.0961991716
C   C6        1.0  0.33120  0.41960  0.14360  1.0000 -0.1552473452
C   C7        1.0  0.08960  0.37470  0.17630  1.0000 0.5718246693
C   C8        1.0  0.17180  0.38400  0.15980  1.0000 0.0961991716
C   C9        1.0  0.16880  0.31240  0.08840  1.0000 -0.1552473452
C   C10       1.0  0.69840  0.91330  0.32370  1.0000 0.5718246693
C   C11       1.0  0.72420  0.01200  0.34020  1.0000 0.0961991716
C   C12       1.0  0.72400  0.08040  0.41160  1.0000 -0.1544247077
C   C13       1.0  0.21490  0.80160  0.12530  1.0000 0.5718246693
C   C14       1.0  0.28780  0.77580  0.11600  1.0000 0.0961991716
C   C15       1.0  0.35640  0.77600  0.18760  1.0000 -0.1544247077
C   C16       1.0  0.28510  0.41040  0.58670  1.0000 0.5718246693
C   C17       1.0  0.21220  0.32820  0.48800  1.0000 0.0961991716
C   C18       1.0  0.14360  0.33120  0.41960  1.0000 -0.1544247077
C   C19       1.0  0.17630  0.08960  0.37470  1.0000 0.5718246693
C   C20       1.0  0.15980  0.17180  0.38400  1.0000 0.0961991716
C   C21       1.0  0.08840  0.16880  0.31240  1.0000 -0.1544247077
C   C22       1.0  0.32370  0.69840  0.91330  1.0000 0.5718246693
C   C23       1.0  0.34020  0.72420  0.01200  1.0000 0.0961991716
C   C24       1.0  0.41160  0.72400  0.08040  1.0000 -0.1552473452
C   C25       1.0  0.12530  0.21490  0.80160  1.0000 0.5718246693
C   C26       1.0  0.11600  0.28780  0.77580  1.0000 0.0961991716
C   C27       1.0  0.18760  0.35640  0.77600  1.0000 -0.1544247077
C   C28       1.0  0.58670  0.28510  0.41040  1.0000 0.5718246693
C   C29       1.0  0.48800  0.21220  0.32820  1.0000 0.0961991716
C   C30       1.0  0.41960  0.14360  0.33120  1.0000 -0.1552473452
C   C31       1.0  0.37470  0.17630  0.08960  1.0000 0.5718246693
C   C32       1.0  0.38400  0.15980  0.17180  1.0000 0.0961991716
C   C33       1.0  0.31240  0.08840  0.16880  1.0000 -0.1552473452
C   C34       1.0  0.91330  0.32370  0.69840  1.0000 0.5718246693
C   C35       1.0  0.01200  0.34020  0.72420  1.0000 0.0961991716
C   C36       1.0  0.08040  0.41160  0.72400  1.0000 -0.1544247077
C   C37       1.0  0.19840  0.87470  0.78510  1.0000 0.5718246693
C   C38       1.0  0.22420  0.88400  0.71220  1.0000 0.0961991716
C   C39       1.0  0.22400  0.81240  0.64360  1.0000 -0.1544247077
C   C40       1.0  0.58960  0.41330  0.71490  1.0000 0.5718246693
C   C41       1.0  0.67180  0.51200  0.78780  1.0000 0.0961991716
C   C42       1.0  0.66880  0.58040  0.85640  1.0000 -0.1544247077
C   C43       1.0  0.91040  0.62530  0.82370  1.0000 0.5718246693
C   C44       1.0  0.82820  0.61600  0.84020  1.0000 0.0961991716
C   C45       1.0  0.83120  0.68760  0.91160  1.0000 -0.1544247077
C   C46       1.0  0.30160  0.08670  0.67630  1.0000 0.5718246693
C   C47       1.0  0.27580  0.98800  0.65980  1.0000 0.0961991716
C   C48       1.0  0.27600  0.91960  0.58840  1.0000 -0.1552473452
C   C49       1.0  0.78510  0.19840  0.87470  1.0000 0.5718246693
C   C50       1.0  0.71220  0.22420  0.88400  1.0000 0.0961991716
C   C51       1.0  0.64360  0.22400  0.81240  1.0000 -0.1552473452
C   C52       1.0  0.71490  0.58960  0.41330  1.0000 0.5718246693
C   C53       1.0  0.78780  0.67180  0.51200  1.0000 0.0961991716
C   C54       1.0  0.85640  0.66880  0.58040  1.0000 -0.1552473452
C   C55       1.0  0.82370  0.91040  0.62530  1.0000 0.5718246693
C   C56       1.0  0.84020  0.82820  0.61600  1.0000 0.0961991716
C   C57       1.0  0.91160  0.83120  0.68760  1.0000 -0.1552473452
C   C58       1.0  0.67630  0.30160  0.08670  1.0000 0.5718246693
C   C59       1.0  0.65980  0.27580  0.98800  1.0000 0.0961991716
C   C60       1.0  0.58840  0.27600  0.91960  1.0000 -0.1544247077
C   C61       1.0  0.87470  0.78510  0.19840  1.0000 0.5718246693
C   C62       1.0  0.88400  0.71220  0.22420  1.0000 0.0961991716
C   C63       1.0  0.81240  0.64360  0.22400  1.0000 -0.1544247077
C   C64       1.0  0.41330  0.71490  0.58960  1.0000 0.5718246693
C   C65       1.0  0.51200  0.78780  0.67180  1.0000 0.0961991716
C   C66       1.0  0.58040  0.85640  0.66880  1.0000 -0.1544247077
C   C67       1.0  0.62530  0.82370  0.91040  1.0000 0.5718246693
C   C68       1.0  0.61600  0.84020  0.82820  1.0000 0.0961991716
C   C69       1.0  0.68760  0.91160  0.83120  1.0000 -0.1544247077
C   C70       1.0  0.08670  0.67630  0.30160  1.0000 0.5718246693
C   C71       1.0  0.98800  0.65980  0.27580  1.0000 0.0961991716
C   C72       1.0  0.91960  0.58840  0.27600  1.0000 -0.1552473452
C   C73       1.0  0.75000  0.16850  0.41850  1.0000 -0.0755643917
C   C74       1.0  0.25000  0.33150  0.08150  1.0000 -0.0755643917
C   C75       1.0  0.41850  0.75000  0.16850  1.0000 -0.0755643917
C   C76       1.0  0.08150  0.25000  0.33150  1.0000 -0.0755643917
C   C77       1.0  0.16850  0.41850  0.75000  1.0000 -0.0755643917
C   C78       1.0  0.33150  0.08150  0.25000  1.0000 -0.0742373432
C   C79       1.0  0.25000  0.83150  0.58150  1.0000 -0.0742373432
C   C80       1.0  0.75000  0.66850  0.91850  1.0000 -0.0755643917
C   C81       1.0  0.58150  0.25000  0.83150  1.0000 -0.0742373432
C   C82       1.0  0.91850  0.75000  0.66850  1.0000 -0.0742373432
C   C83       1.0  0.83150  0.58150  0.25000  1.0000 -0.0755643917
C   C84       1.0  0.66850  0.91850  0.75000  1.0000 -0.0755643917
N   N1        1.0  0.75000  0.02950  0.27950  1.0000 -0.4731330703
N   N2        1.0  0.25000  0.47050  0.22050  1.0000 -0.4731330703
N   N3        1.0  0.27950  0.75000  0.02950  1.0000 -0.4731330703
N   N4        1.0  0.22050  0.25000  0.47050  1.0000 -0.4731330703
N   N5        1.0  0.02950  0.27950  0.75000  1.0000 -0.4731330703
N   N6        1.0  0.47050  0.22050  0.25000  1.0000 -0.4731330703
N   N7        1.0  0.25000  0.97050  0.72050  1.0000 -0.4731330703
N   N8        1.0  0.75000  0.52950  0.77950  1.0000 -0.4731330703
N   N9        1.0  0.72050  0.25000  0.97050  1.0000 -0.4731330703
N   N10       1.0  0.77950  0.75000  0.52950  1.0000 -0.4731330703
N   N11       1.0  0.97050  0.72050  0.25000  1.0000 -0.4731330703
N   N12       1.0  0.52950  0.77950  0.75000  1.0000 -0.4731330703
O   O1        1.0  0.80226  0.05412  0.16086  1.0000 -0.7042276517
O   O2        1.0  0.81980  0.19980  0.21020  1.0000 -0.6507219107
O   O3        1.0  0.39326  0.64140  0.33914  1.0000 -0.7071679074
O   O4        1.0  0.48960  0.60960  0.28980  1.0000 -0.6507219107
O   O5        1.0  0.10674  0.44588  0.24814  1.0000 -0.7071679074
O   O6        1.0  0.01040  0.30020  0.12000  1.0000 -0.6507219107
O   O7        1.0  0.69774  0.85860  0.25186  1.0000 -0.7071679074
O   O8        1.0  0.68020  0.89040  0.38000  1.0000 -0.6507219107
O   O9        1.0  0.16086  0.80226  0.05412  1.0000 -0.7071679074
O   O10       1.0  0.21020  0.81980  0.19980  1.0000 -0.6507219107
O   O11       1.0  0.33914  0.39326  0.64140  1.0000 -0.7071679074
O   O12       1.0  0.28980  0.48960  0.60960  1.0000 -0.6507219107
O   O13       1.0  0.24814  0.10674  0.44588  1.0000 -0.7071679074
O   O14       1.0  0.12000  0.01040  0.30020  1.0000 -0.6507219107
O   O15       1.0  0.25186  0.69774  0.85860  1.0000 -0.7071679074
O   O16       1.0  0.38000  0.68020  0.89040  1.0000 -0.6507219107
O   O17       1.0  0.05412  0.16086  0.80226  1.0000 -0.7071679074
O   O18       1.0  0.19980  0.21020  0.81980  1.0000 -0.6507219107
O   O19       1.0  0.64140  0.33914  0.39326  1.0000 -0.7071679074
O   O20       1.0  0.60960  0.28980  0.48960  1.0000 -0.6507219107
O   O21       1.0  0.44588  0.24814  0.10674  1.0000 -0.7071679074
O   O22       1.0  0.30020  0.12000  0.01040  1.0000 -0.6507219107
O   O23       1.0  0.85860  0.25186  0.69774  1.0000 -0.7071679074
O   O24       1.0  0.89040  0.38000  0.68020  1.0000 -0.6507219107
O   O25       1.0  0.19774  0.94588  0.83914  1.0000 -0.7071679074
O   O26       1.0  0.18020  0.80020  0.78980  1.0000 -0.6507219107
O   O27       1.0  0.60674  0.35860  0.66086  1.0000 -0.7071679074
O   O28       1.0  0.51040  0.39040  0.71020  1.0000 -0.6507219107
O   O29       1.0  0.89326  0.55412  0.75186  1.0000 -0.7071679074
O   O30       1.0  0.98960  0.69980  0.88000  1.0000 -0.6507219107
O   O31       1.0  0.30226  0.14140  0.74814  1.0000 -0.7071679074
O   O32       1.0  0.31980  0.10960  0.62000  1.0000 -0.6507219107
O   O33       1.0  0.83914  0.19774  0.94588  1.0000 -0.7071679074
O   O34       1.0  0.78980  0.18020  0.80020  1.0000 -0.6507219107
O   O35       1.0  0.66086  0.60674  0.35860  1.0000 -0.7071679074
O   O36       1.0  0.71020  0.51040  0.39040  1.0000 -0.6507219107
O   O37       1.0  0.75186  0.89326  0.55412  1.0000 -0.7071679074
O   O38       1.0  0.88000  0.98960  0.69980  1.0000 -0.6507219107
O   O39       1.0  0.74814  0.30226  0.14140  1.0000 -0.7071679074
O   O40       1.0  0.62000  0.31980  0.10960  1.0000 -0.6507219107
O   O41       1.0  0.94588  0.83914  0.19774  1.0000 -0.7071679074
O   O42       1.0  0.80020  0.78980  0.18020  1.0000 -0.6507219107
O   O43       1.0  0.35860  0.66086  0.60674  1.0000 -0.7071679074
O   O44       1.0  0.39040  0.71020  0.51040  1.0000 -0.6507219107
O   O45       1.0  0.55412  0.75186  0.89326  1.0000 -0.7071679074
O   O46       1.0  0.69980  0.88000  0.98960  1.0000 -0.6507219107
O   O47       1.0  0.14140  0.74814  0.30226  1.0000 -0.7071679074
O   O48       1.0  0.10960  0.62000  0.31980  1.0000 -0.6507219107
