# DDEC6 charges by PACMAN v1.1 (https://github.com/mtap-research/PACMAN-charge/)
data_2017[Cd][nan]2[ASR]2
_chemical_formula_sum              "Cd6 H96 C156 N4 O26"
_cell_length_a       21.5436
_cell_length_b       21.9922
_cell_length_c       22.5669
_cell_angle_alpha    69.565
_cell_angle_beta     64.957
_cell_angle_gamma    61.292

_symmetry_space_group_name_H-M    "P 1"
_symmetry_Int_Tables_number       1

loop_
  _symmetry_equiv_pos_as_xyz
  'x, y, z'

loop_
  _atom_site_type_symbol
  _atom_site_label
  _atom_site_symmetry_multiplicity
  _atom_site_fract_x
  _atom_site_fract_y
  _atom_site_fract_z
  _atom_site_occupancy
  _atom_site_charge
Cd  Cd1       1.0  0.76540  0.76256  0.90150  1.0000 1.0205930039
Cd  Cd2       1.0  0.84962  0.75437  0.72016  1.0000 1.0864366456
Cd  Cd3       1.0  0.85385  0.91595  0.56585  1.0000 1.029051499
Cd  Cd4       1.0  0.23460  0.23744  0.09850  1.0000 1.0205930039
Cd  Cd5       1.0  0.15038  0.24563  0.27984  1.0000 1.0864366456
Cd  Cd6       1.0  0.14615  0.08405  0.43415  1.0000 1.029051499
H   H1        1.0  0.52680  0.58290  0.79290  1.0000 0.109381799
H   H2        1.0  0.59840  0.74990  0.69950  1.0000 0.1201108481
H   H3        1.0  0.64320  0.53290  0.58290  1.0000 0.1309431663
H   H4        1.0  0.48970  0.09880  0.92980  1.0000 0.1201108481
H   H5        1.0  0.58210  0.25900  0.58240  1.0000 0.1201108481
H   H6        1.0  0.38350  0.32200  0.96310  1.0000 0.1400716021
H   H7        1.0  0.57540  0.33210  0.83790  1.0000 0.1201108481
H   H8        1.0  0.59620  0.44520  0.94470  1.0000 0.1201108481
H   H9        1.0  0.59930  0.55070  0.95540  1.0000 0.109381799
H   H10       1.0  0.65000  0.57980  0.76010  1.0000 0.109381799
H   H11       1.0  0.54960  0.97760  0.93520  1.0000 0.1201108481
H   H12       1.0  0.51760  0.39380  0.96060  1.0000 0.1309431663
H   H13       1.0  0.66910  0.80860  0.68940  1.0000 0.1309431663
H   H14       1.0  0.45940  0.52250  0.80480  1.0000 0.1201108481
H   H15       1.0  0.50760  0.49430  0.55840  1.0000 0.1201108481
H   H16       1.0  0.63160  0.20970  0.85400  1.0000 0.1201108481
H   H17       1.0  0.73980  0.24550  0.63950  1.0000 0.1201108481
H   H18       1.0  0.71380  0.64350  0.74410  1.0000 0.1201108481
H   H19       1.0  0.43660  0.20120  0.97820  1.0000 0.1309431663
H   H20       1.0  0.73390  0.69590  0.52450  1.0000 0.1201108481
H   H21       1.0  0.45300  0.66920  0.68420  1.0000 0.1309431663
H   H22       1.0  0.26430  0.44260  0.81820  1.0000 0.1201108481
H   H23       1.0  0.17190  0.51650  0.78330  1.0000 0.1201108481
H   H24       1.0  0.66790  0.61020  0.94080  1.0000 0.1201108481
H   H25       1.0  0.64770  0.14300  0.57140  1.0000 0.1309431663
H   H26       1.0  0.38180  0.38530  0.83070  1.0000 0.1309431663
H   H27       1.0  0.02970  0.74120  0.71720  1.0000 0.1201108481
H   H28       1.0  0.57880  0.44770  0.70830  1.0000 0.1201108481
H   H29       1.0  0.80460  0.13000  0.62570  1.0000 0.1309431663
H   H30       1.0  0.64440  0.33150  0.69730  1.0000 0.109381799
H   H31       1.0  0.32240  0.73310  0.55750  1.0000 0.1201108481
H   H32       1.0  0.14910  0.68150  0.72190  1.0000 0.109381799
H   H33       1.0  0.10780  0.80150  0.52340  1.0000 0.1309431663
H   H34       1.0  0.05550  0.57390  0.77220  1.0000 0.1309431663
H   H35       1.0  0.51730  0.73080  0.67570  1.0000 0.1201108481
H   H36       1.0  0.70400  0.59540  0.57790  1.0000 0.1201108481
H   H37       1.0  0.56820  0.37730  0.54590  1.0000 0.109381799
H   H38       1.0  0.22160  0.59130  0.90760  1.0000 0.1201108481
H   H39       1.0  0.44070  0.67500  0.56100  1.0000 0.1201108481
H   H40       1.0  0.33333  0.53310  0.92560  1.0000 0.1309431663
H   H41       1.0  0.99140  0.68220  0.91000  1.0000 0.1309431663
H   H42       1.0  0.73400  0.98060  0.93700  1.0000 0.1201108481
H   H43       1.0  0.22780  0.74380  0.52660  1.0000 0.109381799
H   H44       1.0  0.38210  0.52650  0.70720  1.0000 0.1201108481
H   H45       1.0  0.67530  0.10150  0.92840  1.0000 0.109381799
H   H46       1.0  0.10840  0.62240  0.92300  1.0000 0.109381799
H   H47       1.0  0.26340  0.58650  0.69890  1.0000 0.109381799
H   H48       1.0  0.79420  0.76230  0.51180  1.0000 0.1201108481
H   H49       1.0  0.47320  0.41710  0.20710  1.0000 0.109381799
H   H50       1.0  0.40160  0.25010  0.30050  1.0000 0.1201108481
H   H51       1.0  0.35680  0.46710  0.41710  1.0000 0.1309431663
H   H52       1.0  0.51030  0.90120  0.07020  1.0000 0.1201108481
H   H53       1.0  0.41790  0.74100  0.41760  1.0000 0.1201108481
H   H54       1.0  0.61650  0.67800  0.03690  1.0000 0.1400716021
H   H55       1.0  0.42460  0.66790  0.16210  1.0000 0.1201108481
H   H56       1.0  0.40380  0.55480  0.05530  1.0000 0.1201108481
H   H57       1.0  0.40070  0.44930  0.04460  1.0000 0.109381799
H   H58       1.0  0.35000  0.42020  0.23990  1.0000 0.109381799
H   H59       1.0  0.45040  0.02240  0.06480  1.0000 0.1201108481
H   H60       1.0  0.48240  0.60620  0.03940  1.0000 0.1309431663
H   H61       1.0  0.33090  0.19140  0.31060  1.0000 0.1309431663
H   H62       1.0  0.54060  0.47750  0.19520  1.0000 0.1201108481
H   H63       1.0  0.49240  0.50570  0.44160  1.0000 0.1201108481
H   H64       1.0  0.36840  0.79030  0.14600  1.0000 0.1201108481
H   H65       1.0  0.26020  0.75450  0.36050  1.0000 0.1201108481
H   H66       1.0  0.28620  0.35650  0.25590  1.0000 0.1201108481
H   H67       1.0  0.56340  0.79880  0.02180  1.0000 0.1309431663
H   H68       1.0  0.26610  0.30410  0.47550  1.0000 0.1201108481
H   H69       1.0  0.54700  0.33080  0.31580  1.0000 0.1309431663
H   H70       1.0  0.73570  0.55740  0.18180  1.0000 0.1201108481
H   H71       1.0  0.82810  0.48350  0.21670  1.0000 0.1201108481
H   H72       1.0  0.33210  0.38980  0.05920  1.0000 0.1201108481
H   H73       1.0  0.35230  0.85700  0.42860  1.0000 0.1309431663
H   H74       1.0  0.61820  0.61470  0.16930  1.0000 0.1309431663
H   H75       1.0  0.97030  0.25880  0.28280  1.0000 0.1201108481
H   H76       1.0  0.42120  0.55230  0.29170  1.0000 0.1201108481
H   H77       1.0  0.19540  0.87000  0.37430  1.0000 0.1309431663
H   H78       1.0  0.35560  0.66850  0.30270  1.0000 0.109381799
H   H79       1.0  0.67760  0.26690  0.44250  1.0000 0.1201108481
H   H80       1.0  0.85090  0.31850  0.27810  1.0000 0.109381799
H   H81       1.0  0.89220  0.19850  0.47660  1.0000 0.1309431663
H   H82       1.0  0.94450  0.42610  0.22780  1.0000 0.1309431663
H   H83       1.0  0.48270  0.26920  0.32430  1.0000 0.1201108481
H   H84       1.0  0.29600  0.40460  0.42210  1.0000 0.1201108481
H   H85       1.0  0.43180  0.62270  0.45410  1.0000 0.109381799
H   H86       1.0  0.77840  0.40870  0.09240  1.0000 0.1201108481
H   H87       1.0  0.55930  0.32500  0.43900  1.0000 0.1201108481
H   H88       1.0  0.66667  0.46690  0.07440  1.0000 0.1309431663
H   H89       1.0  0.00860  0.31780  0.09000  1.0000 0.1309431663
H   H90       1.0  0.26600  0.01940  0.06300  1.0000 0.1201108481
H   H91       1.0  0.77220  0.25620  0.47340  1.0000 0.109381799
H   H92       1.0  0.61790  0.47350  0.29280  1.0000 0.1201108481
H   H93       1.0  0.32470  0.89850  0.07160  1.0000 0.109381799
H   H94       1.0  0.89160  0.37760  0.07700  1.0000 0.109381799
H   H95       1.0  0.73660  0.41350  0.30110  1.0000 0.109381799
H   H96       1.0  0.20580  0.23770  0.48820  1.0000 0.1201108481
C   C1        1.0  0.52720  0.54340  0.82630  1.0000 -0.1380404354
C   C2        1.0  0.73340  0.12390  0.59790  1.0000 -0.0207644242
C   C3        1.0  0.64710  0.96790  0.93570  1.0000 0.0016199067
C   C4        1.0  0.78100  0.82880  0.59620  1.0000 0.5707249805
C   C5        1.0  0.63970  0.74950  0.66210  1.0000 -0.1597757623
C   C6        1.0  0.61700  0.57270  0.60240  1.0000 -0.1706039325
C   C7        1.0  0.97860  0.81710  0.61620  1.0000 0.5939916933
C   C8        1.0  0.53880  0.07570  0.93020  1.0000 -0.151553809
C   C9        1.0  0.62720  0.23380  0.59150  1.0000 -0.1706039325
C   C10       1.0  0.74190  0.78890  0.60120  1.0000 -0.0841042757
C   C11       1.0  0.20540  0.70380  0.62490  1.0000 0.0706326685
C   C12       1.0  0.65390  0.26610  0.61120  1.0000 0.0593447954
C   C13       1.0  0.15430  0.56250  0.85330  1.0000 0.0593447954
C   C14       1.0  0.28090  0.66667  0.62750  1.0000 0.0504369527
C   C15       1.0  0.54130  0.59280  0.63540  1.0000 0.1677000351
C   C16       1.0  0.47420  0.33890  0.89950  1.0000 0.156356664
C   C17       1.0  0.43370  0.29950  0.94080  1.0000 -0.1706039325
C   C18       1.0  0.05660  0.77640  0.62080  1.0000 -0.0207644242
C   C19       1.0  0.69640  0.63590  0.84140  1.0000 -0.01429917
C   C20       1.0  0.61380  0.34010  0.62060  1.0000 0.0706326685
C   C21       1.0  0.48280  0.45110  0.88230  1.0000 0.1400716021
C   C22       1.0  0.54750  0.30560  0.86680  1.0000 -0.1818953009
C   C23       1.0  0.56700  0.46290  0.91700  1.0000 -0.1309996002
C   C24       1.0  0.53730  0.48230  0.63400  1.0000 0.156356664
C   C25       1.0  0.01140  0.63680  0.83980  1.0000 -0.0357480407
C   C26       1.0  0.54050  0.19180  0.91860  1.0000 0.0593447954
C   C27       1.0  0.56890  0.52120  0.86790  1.0000 0.0706326685
C   C28       1.0  0.62300  0.56890  0.91250  1.0000 -0.151553809
C   C29       1.0  0.57650  0.11350  0.92700  1.0000 0.0706326685
C   C30       1.0  0.65260  0.58710  0.79710  1.0000 -0.151553809
C   C31       1.0  0.57470  0.00290  0.93390  1.0000 -0.0915237715
C   C32       1.0  0.73770  0.68140  0.83040  1.0000 0.5939916933
C   C33       1.0  0.68680  0.88850  0.93270  1.0000 0.5193820461
C   C34       1.0  0.37160  0.44970  0.88120  1.0000 0.1772655114
C   C35       1.0  0.52160  0.43060  0.92500  1.0000 -0.1818953009
C   C36       1.0  0.68240  0.78590  0.65540  1.0000 -0.0694771115
C   C37       1.0  0.48600  0.50720  0.83420  1.0000 -0.1818953009
C   C38       1.0  0.53470  0.46130  0.58680  1.0000 -0.1818953009
C   C39       1.0  0.58130  0.23180  0.87630  1.0000 -0.1309996002
C   C40       1.0  0.72050  0.22560  0.62490  1.0000 -0.151553809
C   C41       1.0  0.93540  0.68010  0.83180  1.0000 0.5939916933
C   C42       1.0  0.69090  0.62480  0.78710  1.0000 -0.0915237715
C   C43       1.0  0.46560  0.22690  0.95030  1.0000 -0.0997593984
C   C44       1.0  0.65870  0.71430  0.61470  1.0000 0.0777601838
C   C45       1.0  0.71910  0.71940  0.55840  1.0000 -0.151553809
C   C46       1.0  0.50400  0.65380  0.66230  1.0000 -0.1818953009
C   C47       1.0  0.61660  0.67150  0.62380  1.0000 0.033326482
C   C48       1.0  0.27810  0.46140  0.83930  1.0000 -0.1380404354
C   C49       1.0  0.13580  0.55010  0.80950  1.0000 -0.1597757623
C   C50       1.0  0.66300  0.60550  0.90380  1.0000 -0.1067367778
C   C51       1.0  0.66700  0.16380  0.58500  1.0000 -0.0997593984
C   C52       1.0  0.34900  0.42620  0.84810  1.0000 -0.1909387619
C   C53       1.0  0.06930  0.74160  0.67840  1.0000 -0.0841042757
C   C54       1.0  0.77660  0.04660  0.59010  1.0000 0.5193820461
C   C55       1.0  0.57750  0.43330  0.67480  1.0000 -0.1818953009
C   C56       1.0  0.75920  0.15560  0.61710  1.0000 -0.0915237715
C   C57       1.0  0.61650  0.36310  0.66900  1.0000 -0.1380404354
C   C58       1.0  0.42620  0.59280  0.63500  1.0000 0.1677000351
C   C59       1.0  0.33440  0.69100  0.58760  1.0000 -0.1167174861
C   C60       1.0  0.14190  0.70570  0.68090  1.0000 -0.1597757623
C   C61       1.0  0.22810  0.52510  0.86250  1.0000 0.0504369527
C   C62       1.0  0.11650  0.77690  0.56390  1.0000 -0.0915237715
C   C63       1.0  0.06620  0.58480  0.80210  1.0000 -0.0915237715
C   C64       1.0  0.54270  0.69080  0.65650  1.0000 -0.1309996002
C   C65       1.0  0.65280  0.61090  0.59850  1.0000 -0.1309996002
C   C66       1.0  0.57160  0.39070  0.57890  1.0000 -0.1380404354
C   C67       1.0  0.25300  0.54860  0.89290  1.0000 -0.1309996002
C   C68       1.0  0.40520  0.65650  0.58980  1.0000 -0.1818953009
C   C69       1.0  0.32060  0.51420  0.90360  1.0000 -0.1818953009
C   C70       1.0  0.61680  0.55840  0.85960  1.0000 0.0706326685
C   C71       1.0  0.02790  0.64880  0.88370  1.0000 -0.0915237715
C   C72       1.0  0.68560  0.00420  0.93460  1.0000 -0.0915237715
C   C73       1.0  0.18900  0.74190  0.56580  1.0000 -0.151553809
C   C74       1.0  0.37110  0.56800  0.67620  1.0000 -0.1818953009
C   C75       1.0  0.65000  0.07640  0.92980  1.0000 -0.151553809
C   C76       1.0  0.09860  0.61270  0.89170  1.0000 -0.151553809
C   C77       1.0  0.29950  0.60450  0.67150  1.0000 -0.1380404354
C   C78       1.0  0.75690  0.75750  0.55160  1.0000 -0.0694771115
C   C79       1.0  0.47280  0.45660  0.17370  1.0000 -0.1380404354
C   C80       1.0  0.26660  0.87610  0.40210  1.0000 -0.0207644242
C   C81       1.0  0.35290  0.03210  0.06430  1.0000 -0.0011306079
C   C82       1.0  0.21900  0.17120  0.40380  1.0000 0.5707249805
C   C83       1.0  0.36030  0.25050  0.33790  1.0000 -0.1597757623
C   C84       1.0  0.38300  0.42730  0.39760  1.0000 -0.1706039325
C   C85       1.0  0.02140  0.18290  0.38380  1.0000 0.5939916933
C   C86       1.0  0.46120  0.92430  0.06980  1.0000 -0.151553809
C   C87       1.0  0.37280  0.76620  0.40850  1.0000 -0.1597757623
C   C88       1.0  0.25810  0.21110  0.39880  1.0000 -0.0841042757
C   C89       1.0  0.79460  0.29620  0.37510  1.0000 0.0706326685
C   C90       1.0  0.34610  0.73390  0.38880  1.0000 0.0593447954
C   C91       1.0  0.84570  0.43750  0.14670  1.0000 0.0593447954
C   C92       1.0  0.71910  0.33340  0.37250  1.0000 0.0504369527
C   C93       1.0  0.45870  0.40720  0.36460  1.0000 0.1677000351
C   C94       1.0  0.52580  0.66110  0.10050  1.0000 0.156356664
C   C95       1.0  0.56630  0.70050  0.05920  1.0000 -0.1706039325
C   C96       1.0  0.94340  0.22360  0.37920  1.0000 -0.0207644242
C   C97       1.0  0.30360  0.36410  0.15860  1.0000 -0.01429917
C   C98       1.0  0.38620  0.65990  0.37940  1.0000 0.0706326685
C   C99       1.0  0.51720  0.54890  0.11770  1.0000 0.1400716021
C   C100      1.0  0.45250  0.69440  0.13320  1.0000 -0.1818953009
C   C101      1.0  0.43300  0.53710  0.08300  1.0000 -0.1309996002
C   C102      1.0  0.46270  0.51770  0.36600  1.0000 0.156356664
C   C103      1.0  0.98860  0.36320  0.16020  1.0000 -0.0357480407
C   C104      1.0  0.45950  0.80820  0.08140  1.0000 0.0593447954
C   C105      1.0  0.43110  0.47880  0.13210  1.0000 0.0706326685
C   C106      1.0  0.37700  0.43110  0.08750  1.0000 -0.151553809
C   C107      1.0  0.42350  0.88650  0.07300  1.0000 0.0706326685
C   C108      1.0  0.34740  0.41290  0.20290  1.0000 -0.151553809
C   C109      1.0  0.42530  0.99710  0.06610  1.0000 -0.0915237715
C   C110      1.0  0.26230  0.31860  0.16960  1.0000 0.5939916933
C   C111      1.0  0.31320  0.11150  0.06730  1.0000 0.5193820461
C   C112      1.0  0.62840  0.55030  0.11880  1.0000 0.1772655114
C   C113      1.0  0.47840  0.56940  0.07500  1.0000 -0.1818953009
C   C114      1.0  0.31760  0.21410  0.34460  1.0000 -0.0694771115
C   C115      1.0  0.51400  0.49280  0.16580  1.0000 -0.1818953009
C   C116      1.0  0.46530  0.53870  0.41320  1.0000 -0.1818953009
C   C117      1.0  0.41870  0.76820  0.12370  1.0000 -0.1309996002
C   C118      1.0  0.27950  0.77440  0.37510  1.0000 -0.151553809
C   C119      1.0  0.06460  0.31990  0.16820  1.0000 0.5939916933
C   C120      1.0  0.30910  0.37520  0.21290  1.0000 -0.0915237715
C   C121      1.0  0.53440  0.77310  0.04970  1.0000 -0.0997593984
C   C122      1.0  0.34130  0.28570  0.38530  1.0000 0.0777601838
C   C123      1.0  0.28090  0.28060  0.44160  1.0000 -0.151553809
C   C124      1.0  0.49600  0.34620  0.33770  1.0000 -0.1818953009
C   C125      1.0  0.38340  0.32850  0.37620  1.0000 0.033326482
C   C126      1.0  0.72190  0.53860  0.16070  1.0000 -0.1380404354
C   C127      1.0  0.86420  0.44990  0.19050  1.0000 -0.1597757623
C   C128      1.0  0.33700  0.39450  0.09620  1.0000 -0.1067367778
C   C129      1.0  0.33300  0.83620  0.41500  1.0000 -0.0997593984
C   C130      1.0  0.65100  0.57380  0.15190  1.0000 -0.1909387619
C   C131      1.0  0.93070  0.25840  0.32160  1.0000 -0.0841042757
C   C132      1.0  0.22340  0.95340  0.40990  1.0000 0.5193820461
C   C133      1.0  0.42250  0.56670  0.32520  1.0000 -0.1818953009
C   C134      1.0  0.24080  0.84440  0.38290  1.0000 -0.0915237715
C   C135      1.0  0.38350  0.63690  0.33100  1.0000 -0.1380404354
C   C136      1.0  0.57380  0.40720  0.36500  1.0000 0.1677000351
C   C137      1.0  0.66560  0.30900  0.41240  1.0000 -0.1167174861
C   C138      1.0  0.85810  0.29430  0.31910  1.0000 -0.1597757623
C   C139      1.0  0.77190  0.47490  0.13750  1.0000 0.0504369527
C   C140      1.0  0.88350  0.22310  0.43610  1.0000 -0.0915237715
C   C141      1.0  0.93380  0.41520  0.19790  1.0000 -0.0915237715
C   C142      1.0  0.45730  0.30920  0.34350  1.0000 -0.1309996002
C   C143      1.0  0.34720  0.38910  0.40150  1.0000 -0.1309996002
C   C144      1.0  0.42840  0.60930  0.42110  1.0000 -0.1380404354
C   C145      1.0  0.74700  0.45140  0.10710  1.0000 -0.1309996002
C   C146      1.0  0.59480  0.34350  0.41020  1.0000 -0.1818953009
C   C147      1.0  0.67940  0.48580  0.09640  1.0000 -0.1818953009
C   C148      1.0  0.38320  0.44160  0.14040  1.0000 0.0706326685
C   C149      1.0  0.97210  0.35120  0.11630  1.0000 -0.0915237715
C   C150      1.0  0.31440  0.99580  0.06540  1.0000 -0.0915237715
C   C151      1.0  0.81100  0.25810  0.43420  1.0000 -0.151553809
C   C152      1.0  0.62890  0.43200  0.32380  1.0000 -0.1818953009
C   C153      1.0  0.35000  0.92360  0.07020  1.0000 -0.151553809
C   C154      1.0  0.90140  0.38730  0.10830  1.0000 -0.151553809
C   C155      1.0  0.70050  0.39550  0.32850  1.0000 -0.1380404354
C   C156      1.0  0.24310  0.24250  0.44840  1.0000 -0.0694771115
N   N1        1.0  0.49960  0.55480  0.64010  1.0000 -0.1909387619
N   N2        1.0  0.44070  0.41320  0.89050  1.0000 -0.151553809
N   N3        1.0  0.50040  0.44520  0.35990  1.0000 -0.1909387619
N   N4        1.0  0.55930  0.58680  0.10950  1.0000 -0.151553809
O   O1        1.0  0.77810  0.83640  0.78930  1.0000 -0.3646917478
O   O2        1.0  0.65250  0.85840  0.93100  1.0000 -0.5369744137
O   O3        1.0  0.75340  0.85990  0.93140  1.0000 -0.5210998491
O   O4        1.0  0.83550  0.01340  0.60130  1.0000 -0.5112252072
O   O5        1.0  0.74750  0.01940  0.57500  1.0000 -0.5301736876
O   O6        1.0  0.92580  0.67630  0.78120  1.0000 -0.5722120479
O   O7        1.0  0.88700  0.71700  0.87230  1.0000 -0.5210998491
O   O8        1.0  0.78300  0.83900  0.64750  1.0000 -0.5722120479
O   O9        1.0  0.81470  0.85320  0.53850  1.0000 -0.5301736876
O   O10       1.0  0.92660  0.81620  0.66870  1.0000 -0.5596439674
O   O11       1.0  0.97170  0.85050  0.55950  1.0000 -0.5474487677
O   O12       1.0  0.76990  0.70200  0.77330  1.0000 -0.5369744137
O   O13       1.0  0.73030  0.69570  0.88310  1.0000 -0.5722120479
O   O14       1.0  0.22190  0.16360  0.21070  1.0000 -0.3457105592
O   O15       1.0  0.34750  0.14160  0.06900  1.0000 -0.5369744137
O   O16       1.0  0.24660  0.14010  0.06860  1.0000 -0.5210998491
O   O17       1.0  0.16450  0.98660  0.39870  1.0000 -0.5112252072
O   O18       1.0  0.25250  0.98060  0.42500  1.0000 -0.5301736876
O   O19       1.0  0.07420  0.32370  0.21880  1.0000 -0.5722120479
O   O20       1.0  0.11300  0.28300  0.12770  1.0000 -0.5210998491
O   O21       1.0  0.21700  0.16100  0.35250  1.0000 -0.5752188996
O   O22       1.0  0.18530  0.14680  0.46150  1.0000 -0.5301736876
O   O23       1.0  0.07340  0.18380  0.33130  1.0000 -0.5596439674
O   O24       1.0  0.02830  0.14950  0.44050  1.0000 -0.5474487677
O   O25       1.0  0.23010  0.29800  0.22670  1.0000 -0.5369744137
O   O26       1.0  0.26970  0.30430  0.11690  1.0000 -0.5722120479
