# DDEC6 charges by PACMAN v1.1 (https://github.com/mtap-research/PACMAN-charge/)
data_2017[V][nan]3[ASR]8
_chemical_formula_sum              "V4 H16 C32 O20"
_cell_length_a       12.3021
_cell_length_b       12.3021
_cell_length_c       12.3021
_cell_angle_alpha    103.894
_cell_angle_beta     103.894
_cell_angle_gamma    121.315

_symmetry_space_group_name_H-M    "P 1"
_symmetry_Int_Tables_number       1

loop_
  _symmetry_equiv_pos_as_xyz
  'x, y, z'

loop_
  _atom_site_type_symbol
  _atom_site_label
  _atom_site_symmetry_multiplicity
  _atom_site_fract_x
  _atom_site_fract_y
  _atom_site_fract_z
  _atom_site_occupancy
  _atom_site_charge
V   V1        1.0  0.19800  0.80200  0.00000  1.0000 1.6133338933
V   V2        1.0  0.44800  0.94800  0.89600  1.0000 1.6162723626
V   V3        1.0  0.80200  0.19800  0.00000  1.0000 1.6133338933
V   V4        1.0  0.05200  0.55200  0.10400  1.0000 1.6133338933
H   H1        1.0  0.44680  0.87500  0.07180  1.0000 0.4188307847
H   H2        1.0  0.62500  0.19680  0.07180  1.0000 0.4188307847
H   H3        1.0  0.80320  0.37500  0.92820  1.0000 0.4188307847
H   H4        1.0  0.12500  0.55320  0.92820  1.0000 0.4188307847
H   H5        1.0  0.11770  0.11770  0.00000  1.0000 0.1440373535
H   H6        1.0  0.36770  0.86770  0.50000  1.0000 0.1440373535
H   H7        1.0  0.13230  0.63230  0.50000  1.0000 0.1440373535
H   H8        1.0  0.88230  0.88230  0.00000  1.0000 0.1440373535
H   H9        1.0  0.49480  0.30280  0.95280  1.0000 0.1150928835
H   H10       1.0  0.79200  0.24480  0.69200  1.0000 0.1150928835
H   H11       1.0  0.35000  0.54200  0.04720  1.0000 0.1150928835
H   H12       1.0  0.55280  0.10000  0.30800  1.0000 0.1150928835
H   H13       1.0  0.90000  0.44720  0.69200  1.0000 0.1150928835
H   H14       1.0  0.45800  0.65000  0.95280  1.0000 0.1148539285
H   H15       1.0  0.75520  0.20800  0.30800  1.0000 0.1150928835
H   H16       1.0  0.69720  0.50520  0.04720  1.0000 0.1150928835
C   C1        1.0  0.29110  0.06550  0.95180  1.0000 0.6225516523
C   C2        1.0  0.58930  0.04110  0.72560  1.0000 0.6225516523
C   C3        1.0  0.11370  0.33930  0.04820  1.0000 0.6225516523
C   C4        1.0  0.31550  0.86370  0.27440  1.0000 0.6225516523
C   C5        1.0  0.13630  0.68450  0.72560  1.0000 0.6225516523
C   C6        1.0  0.66070  0.88630  0.95180  1.0000 0.6225516523
C   C7        1.0  0.95890  0.41070  0.27440  1.0000 0.6225516523
C   C8        1.0  0.93450  0.70890  0.04820  1.0000 0.6225516523
C   C9        1.0  0.30418  0.19445  0.97303  1.0000 -0.0499265765
C   C10       1.0  0.58115  0.05418  0.60973  1.0000 -0.0499265765
C   C11       1.0  0.22142  0.33115  0.02697  1.0000 -0.0499265765
C   C12       1.0  0.44445  0.97142  0.39027  1.0000 -0.0499265765
C   C13       1.0  0.02858  0.55555  0.60973  1.0000 -0.0499265765
C   C14       1.0  0.66885  0.77858  0.97303  1.0000 -0.0499265765
C   C15       1.0  0.94582  0.41885  0.39027  1.0000 -0.0499265765
C   C16       1.0  0.80555  0.69582  0.02697  1.0000 -0.0499265765
C   C17       1.0  0.20480  0.20480  0.00000  1.0000 -0.082792682
C   C18       1.0  0.45480  0.95480  0.50000  1.0000 -0.082792682
C   C19       1.0  0.04520  0.54520  0.50000  1.0000 -0.082792682
C   C20       1.0  0.79520  0.79520  0.00000  1.0000 -0.082792682
C   C21       1.0  0.42028  0.31055  0.97303  1.0000 -0.1365306204
C   C22       1.0  0.69725  0.17028  0.60973  1.0000 -0.1365306204
C   C23       1.0  0.33752  0.44725  0.02697  1.0000 -0.1365306204
C   C24       1.0  0.56055  0.08752  0.39027  1.0000 -0.1365306204
C   C25       1.0  0.91248  0.43945  0.60973  1.0000 -0.1365306204
C   C26       1.0  0.55275  0.66248  0.97303  1.0000 -0.1365306204
C   C27       1.0  0.82972  0.30275  0.39027  1.0000 -0.1365306204
C   C28       1.0  0.68945  0.57972  0.02697  1.0000 -0.1365306204
C   C29       1.0  0.43690  0.43690  0.00000  1.0000 0.0746595586
C   C30       1.0  0.68690  0.18690  0.50000  1.0000 0.0746595586
C   C31       1.0  0.81310  0.31310  0.50000  1.0000 0.0746595586
C   C32       1.0  0.56310  0.56310  0.00000  1.0000 0.0746595586
O   O1        1.0  0.37590  0.87500  0.00090  1.0000 -0.9172235106
O   O2        1.0  0.62500  0.12590  0.00090  1.0000 -0.9172235106
O   O3        1.0  0.87410  0.37500  0.99910  1.0000 -0.9172235106
O   O4        1.0  0.12500  0.62410  0.99910  1.0000 -0.9172235106
O   O5        1.0  0.22770  0.98960  0.00090  1.0000 -0.5719937657
O   O6        1.0  0.47680  0.97770  0.73810  1.0000 -0.5719937657
O   O7        1.0  0.98870  0.22680  0.99910  1.0000 -0.5719937657
O   O8        1.0  0.23960  0.73870  0.26190  1.0000 -0.5719937657
O   O9        1.0  0.26130  0.76040  0.73810  1.0000 -0.5719937657
O   O10       1.0  0.77320  0.01130  0.00090  1.0000 -0.5719937657
O   O11       1.0  0.02230  0.52320  0.26190  1.0000 -0.5719937657
O   O12       1.0  0.01040  0.77230  0.99910  1.0000 -0.5719937657
O   O13       1.0  0.34380  0.03540  0.88540  1.0000 -0.6046874796
O   O14       1.0  0.70840  0.09380  0.80840  1.0000 -0.6053974306
O   O15       1.0  0.15000  0.45840  0.11460  1.0000 -0.6046874796
O   O16       1.0  0.28540  0.90000  0.19160  1.0000 -0.6046874796
O   O17       1.0  0.10000  0.71460  0.80840  1.0000 -0.6046874796
O   O18       1.0  0.54160  0.85000  0.88540  1.0000 -0.6046874796
O   O19       1.0  0.90620  0.29160  0.19160  1.0000 -0.6053974306
O   O20       1.0  0.96460  0.65620  0.11460  1.0000 -0.6053974306
