# DDEC6 charges by PACMAN v1.1 (https://github.com/mtap-research/PACMAN-charge/)
data_2017[Cd][sra]3[ASR]1
_chemical_formula_sum              "Cd4 H12 C36 N16 O16"
_cell_length_a       10.1382
_cell_length_b       12.9139
_cell_length_c       11.7341
_cell_angle_alpha    90
_cell_angle_beta     110.04
_cell_angle_gamma    90

_symmetry_space_group_name_H-M    "P 1"
_symmetry_Int_Tables_number       1

loop_
  _symmetry_equiv_pos_as_xyz
  'x, y, z'

loop_
  _atom_site_type_symbol
  _atom_site_label
  _atom_site_symmetry_multiplicity
  _atom_site_fract_x
  _atom_site_fract_y
  _atom_site_fract_z
  _atom_site_occupancy
  _atom_site_charge
Cd  Cd1       1.0  0.21259  0.85399  0.77245  1.0000 0.8713896366
Cd  Cd2       1.0  0.78741  0.35399  0.72755  1.0000 0.8713896366
Cd  Cd3       1.0  0.78741  0.14601  0.22755  1.0000 0.8713896366
Cd  Cd4       1.0  0.21259  0.64601  0.27245  1.0000 0.8713896366
H   H1        1.0  0.72430  0.86640  0.77270  1.0000 0.1497674229
H   H2        1.0  0.57090  0.10100  0.91280  1.0000 0.1497674229
H   H3        1.0  0.95740  0.12050  0.89230  1.0000 0.1497674229
H   H4        1.0  0.27570  0.36640  0.72730  1.0000 0.1497674229
H   H5        1.0  0.42910  0.60100  0.58720  1.0000 0.1497674229
H   H6        1.0  0.04260  0.62050  0.60770  1.0000 0.1497674229
H   H7        1.0  0.27570  0.13360  0.22730  1.0000 0.1497674229
H   H8        1.0  0.42910  0.89900  0.08720  1.0000 0.1497674229
H   H9        1.0  0.04260  0.87950  0.10770  1.0000 0.1497674229
H   H10       1.0  0.72430  0.63360  0.27270  1.0000 0.1497674229
H   H11       1.0  0.57090  0.39900  0.41280  1.0000 0.1497674229
H   H12       1.0  0.95740  0.37950  0.39230  1.0000 0.1497674229
C   C1        1.0  0.86000  0.98640  0.82600  1.0000 -0.0055393051
C   C2        1.0  0.73510  0.93200  0.80740  1.0000 -0.077917548
C   C3        1.0  0.62770  0.97360  0.83960  1.0000 0.0158923888
C   C4        1.0  0.64330  0.07190  0.89190  1.0000 -0.0876787083
C   C5        1.0  0.76760  0.12600  0.91240  1.0000 0.0253286435
C   C6        1.0  0.87480  0.08340  0.87900  1.0000 -0.0975047854
C   C7        1.0  0.97450  0.93890  0.79240  1.0000 0.55146032
C   C8        1.0  0.49090  0.91640  0.81540  1.0000 0.55146032
C   C9        1.0  0.78430  0.22980  0.96830  1.0000 0.2576884719
C   C10       1.0  0.14000  0.48640  0.67400  1.0000 -0.0055393051
C   C11       1.0  0.26490  0.43200  0.69260  1.0000 -0.077917548
C   C12       1.0  0.37230  0.47360  0.66040  1.0000 0.0158923888
C   C13       1.0  0.35670  0.57190  0.60810  1.0000 -0.0876787083
C   C14       1.0  0.23240  0.62600  0.58760  1.0000 0.0253286435
C   C15       1.0  0.12520  0.58340  0.62100  1.0000 -0.0975047854
C   C16       1.0  0.02550  0.43890  0.70760  1.0000 0.55146032
C   C17       1.0  0.50910  0.41640  0.68460  1.0000 0.55146032
C   C18       1.0  0.21570  0.72980  0.53170  1.0000 0.2576884719
C   C19       1.0  0.14000  0.01360  0.17400  1.0000 -0.0055393051
C   C20       1.0  0.26490  0.06800  0.19260  1.0000 -0.077917548
C   C21       1.0  0.37230  0.02640  0.16040  1.0000 0.0147519045
C   C22       1.0  0.35670  0.92810  0.10810  1.0000 -0.0876787083
C   C23       1.0  0.23240  0.87400  0.08760  1.0000 0.0253286435
C   C24       1.0  0.12520  0.91660  0.12100  1.0000 -0.0975047854
C   C25       1.0  0.02550  0.06110  0.20760  1.0000 0.55146032
C   C26       1.0  0.50910  0.08360  0.18460  1.0000 0.55146032
C   C27       1.0  0.21570  0.77020  0.03170  1.0000 0.2576884719
C   C28       1.0  0.86000  0.51360  0.32600  1.0000 -0.0055393051
C   C29       1.0  0.73510  0.56800  0.30740  1.0000 -0.077917548
C   C30       1.0  0.62770  0.52640  0.33960  1.0000 0.0158923888
C   C31       1.0  0.64330  0.42810  0.39190  1.0000 -0.0876787083
C   C32       1.0  0.76760  0.37400  0.41240  1.0000 0.0253286435
C   C33       1.0  0.87480  0.41660  0.37900  1.0000 -0.0975047854
C   C34       1.0  0.97450  0.56110  0.29240  1.0000 0.55146032
C   C35       1.0  0.49090  0.58360  0.31540  1.0000 0.55146032
C   C36       1.0  0.78430  0.27020  0.46830  1.0000 0.2576884719
N   N1        1.0  0.76850  0.25240  0.07400  1.0000 -0.2484627721
N   N2        1.0  0.78740  0.35590  0.08780  1.0000 -0.0363826651
N   N3        1.0  0.81280  0.39330  0.99460  1.0000 -0.0183767668
N   N4        1.0  0.81170  0.31600  0.91770  1.0000 -0.2354766337
N   N5        1.0  0.23150  0.75240  0.42600  1.0000 -0.2484627721
N   N6        1.0  0.21260  0.85590  0.41220  1.0000 -0.0363826651
N   N7        1.0  0.18720  0.89330  0.50540  1.0000 -0.0183767668
N   N8        1.0  0.18830  0.81600  0.58230  1.0000 -0.2354766337
N   N9        1.0  0.23150  0.74760  0.92600  1.0000 -0.2484627721
N   N10       1.0  0.21260  0.64410  0.91220  1.0000 -0.0363826651
N   N11       1.0  0.18720  0.60670  0.00540  1.0000 -0.0183767668
N   N12       1.0  0.18830  0.68400  0.08230  1.0000 -0.2346358952
N   N13       1.0  0.76850  0.24760  0.57400  1.0000 -0.2484627721
N   N14       1.0  0.78740  0.14410  0.58780  1.0000 -0.0363826651
N   N15       1.0  0.81280  0.10670  0.49460  1.0000 -0.0183767668
N   N16       1.0  0.81170  0.18400  0.41770  1.0000 -0.2354766337
O   O1        1.0  0.48600  0.82160  0.80190  1.0000 -0.4828538058
O   O2        1.0  0.38370  0.97130  0.80580  1.0000 -0.465917146
O   O3        1.0  0.96140  0.84900  0.74740  1.0000 -0.506465709
O   O4        1.0  0.08820  0.98820  0.81270  1.0000 -0.459871268
O   O5        1.0  0.51400  0.32160  0.69810  1.0000 -0.4828538058
O   O6        1.0  0.61630  0.47130  0.69420  1.0000 -0.465917146
O   O7        1.0  0.03860  0.34900  0.75260  1.0000 -0.506465709
O   O8        1.0  0.91180  0.48820  0.68730  1.0000 -0.459871268
O   O9        1.0  0.51400  0.17840  0.19810  1.0000 -0.4828538058
O   O10       1.0  0.61630  0.02870  0.19420  1.0000 -0.465917146
O   O11       1.0  0.03860  0.15100  0.25260  1.0000 -0.506465709
O   O12       1.0  0.91180  0.01180  0.18730  1.0000 -0.459871268
O   O13       1.0  0.48600  0.67840  0.30190  1.0000 -0.4828538058
O   O14       1.0  0.38370  0.52870  0.30580  1.0000 -0.465917146
O   O15       1.0  0.96140  0.65100  0.24740  1.0000 -0.506465709
O   O16       1.0  0.08820  0.51180  0.31270  1.0000 -0.459871268
