# DDEC6 charges by PACMAN v1.1 (https://github.com/mtap-research/PACMAN-charge/)
data_2017[CoFe][ant]3[ASR]1
_chemical_formula_sum              "Fe8 Co4 H48 C96 N16 O40"
_cell_length_a       15.0787
_cell_length_b       15.0787
_cell_length_c       21.4762
_cell_angle_alpha    90
_cell_angle_beta     90
_cell_angle_gamma    90

_symmetry_space_group_name_H-M    "P 1"
_symmetry_Int_Tables_number       1

loop_
  _symmetry_equiv_pos_as_xyz
  'x, y, z'

loop_
  _atom_site_type_symbol
  _atom_site_label
  _atom_site_symmetry_multiplicity
  _atom_site_fract_x
  _atom_site_fract_y
  _atom_site_fract_z
  _atom_site_occupancy
  _atom_site_charge
Fe  Fe1       1.0  0.23280  0.15904  0.35089  1.0000 0.9078662694
Fe  Fe2       1.0  0.76720  0.84096  0.85089  1.0000 0.9078662694
Fe  Fe3       1.0  0.34096  0.73280  0.10089  1.0000 0.9078662694
Fe  Fe4       1.0  0.65904  0.26720  0.60089  1.0000 0.9078662694
Fe  Fe5       1.0  0.26720  0.65904  0.39911  1.0000 0.9078662694
Fe  Fe6       1.0  0.73280  0.34096  0.89911  1.0000 0.9078662694
Fe  Fe7       1.0  0.15904  0.23280  0.64911  1.0000 0.9078662694
Fe  Fe8       1.0  0.84096  0.76720  0.14911  1.0000 0.9078662694
Co  Co1       1.0  0.20892  0.20892  0.50000  1.0000 1.2483966873
Co  Co2       1.0  0.79108  0.79108  0.00000  1.0000 1.2483966873
Co  Co3       1.0  0.29108  0.70892  0.25000  1.0000 1.2483966873
Co  Co4       1.0  0.70892  0.29108  0.75000  1.0000 1.2483966873
H   H1        1.0  0.24850  0.86570  0.39150  1.0000 0.1235187511
H   H2        1.0  0.22530  0.47730  0.46320  1.0000 0.1235187511
H   H3        1.0  0.13080  0.52170  0.63280  1.0000 0.1312251911
H   H4        1.0  0.15200  0.95680  0.55230  1.0000 0.1392743713
H   H5        1.0  0.14480  0.67500  0.61510  1.0000 0.1235187511
H   H6        1.0  0.12740  0.81040  0.58320  1.0000 0.1235187511
H   H7        1.0  0.75150  0.13430  0.89150  1.0000 0.1235187511
H   H8        1.0  0.77470  0.52270  0.96320  1.0000 0.1235187511
H   H9        1.0  0.86920  0.47830  0.13280  1.0000 0.1312251911
H   H10       1.0  0.84800  0.04320  0.05230  1.0000 0.1392743713
H   H11       1.0  0.85520  0.32500  0.11510  1.0000 0.1235187511
H   H12       1.0  0.87260  0.18960  0.08320  1.0000 0.1235187511
H   H13       1.0  0.63430  0.74850  0.14150  1.0000 0.1235187511
H   H14       1.0  0.02270  0.72530  0.21320  1.0000 0.1235187511
H   H15       1.0  0.97830  0.63080  0.38280  1.0000 0.1312251911
H   H16       1.0  0.54320  0.65200  0.30230  1.0000 0.1392743713
H   H17       1.0  0.82500  0.64480  0.36510  1.0000 0.1235187511
H   H18       1.0  0.68960  0.62740  0.33320  1.0000 0.1235187511
H   H19       1.0  0.36570  0.25150  0.64150  1.0000 0.1235187511
H   H20       1.0  0.97730  0.27470  0.71320  1.0000 0.1235187511
H   H21       1.0  0.02170  0.36920  0.88280  1.0000 0.1312251911
H   H22       1.0  0.45680  0.34800  0.80230  1.0000 0.1392743713
H   H23       1.0  0.17500  0.35520  0.86510  1.0000 0.1235187511
H   H24       1.0  0.31040  0.37260  0.83320  1.0000 0.1235187511
H   H25       1.0  0.25150  0.36570  0.35850  1.0000 0.1235187511
H   H26       1.0  0.27470  0.97730  0.28680  1.0000 0.1235187511
H   H27       1.0  0.36920  0.02170  0.11720  1.0000 0.1312251911
H   H28       1.0  0.34800  0.45680  0.19770  1.0000 0.1392743713
H   H29       1.0  0.35520  0.17500  0.13490  1.0000 0.1235187511
H   H30       1.0  0.37260  0.31040  0.16680  1.0000 0.1235187511
H   H31       1.0  0.74850  0.63430  0.85850  1.0000 0.1235187511
H   H32       1.0  0.72530  0.02270  0.78680  1.0000 0.1235187511
H   H33       1.0  0.63080  0.97830  0.61720  1.0000 0.1312251911
H   H34       1.0  0.65200  0.54320  0.69770  1.0000 0.1392743713
H   H35       1.0  0.64480  0.82500  0.63490  1.0000 0.1235187511
H   H36       1.0  0.62740  0.68960  0.66680  1.0000 0.1235187511
H   H37       1.0  0.86570  0.24850  0.60850  1.0000 0.1235187511
H   H38       1.0  0.47730  0.22530  0.53680  1.0000 0.1235187511
H   H39       1.0  0.52170  0.13080  0.36720  1.0000 0.1312251911
H   H40       1.0  0.95680  0.15200  0.44770  1.0000 0.1392743713
H   H41       1.0  0.67500  0.14480  0.38490  1.0000 0.1235187511
H   H42       1.0  0.81040  0.12740  0.41680  1.0000 0.1235187511
H   H43       1.0  0.13430  0.75150  0.10850  1.0000 0.1235187511
H   H44       1.0  0.52270  0.77470  0.03680  1.0000 0.1235187511
H   H45       1.0  0.47830  0.86920  0.86720  1.0000 0.1312251911
H   H46       1.0  0.04320  0.84800  0.94770  1.0000 0.1392743713
H   H47       1.0  0.32500  0.85520  0.88490  1.0000 0.1235187511
H   H48       1.0  0.18960  0.87260  0.91680  1.0000 0.1235187511
C   C1        1.0  0.22570  0.85470  0.43210  1.0000 0.073177245
C   C2        1.0  0.18330  0.38610  0.56150  1.0000 0.5703441203
C   C3        1.0  0.20740  0.51760  0.49480  1.0000 0.073177245
C   C4        1.0  0.18160  0.48350  0.55070  1.0000 -0.0795785985
C   C5        1.0  0.20860  0.01990  0.44420  1.0000 0.5703441203
C   C6        1.0  0.19930  0.92460  0.46650  1.0000 -0.0748786553
C   C7        1.0  0.18340  0.66050  0.52470  1.0000 0.1652807817
C   C8        1.0  0.18580  0.75600  0.50760  1.0000 0.1392743713
C   C9        1.0  0.15380  0.54260  0.59430  1.0000 -0.0572365391
C   C10       1.0  0.16660  0.90890  0.52550  1.0000 -0.0499764322
C   C11       1.0  0.15840  0.63340  0.58330  1.0000 -0.193146538
C   C12       1.0  0.15560  0.82310  0.54460  1.0000 -0.1824740059
C   C13       1.0  0.77430  0.14530  0.93210  1.0000 0.073177245
C   C14       1.0  0.81670  0.61390  0.06150  1.0000 0.5703441203
C   C15       1.0  0.79260  0.48240  0.99480  1.0000 0.073177245
C   C16       1.0  0.81840  0.51650  0.05070  1.0000 -0.0795785985
C   C17       1.0  0.79140  0.98010  0.94420  1.0000 0.5703441203
C   C18       1.0  0.80070  0.07540  0.96650  1.0000 -0.0748786553
C   C19       1.0  0.81660  0.33950  0.02470  1.0000 0.1652807817
C   C20       1.0  0.81420  0.24400  0.00760  1.0000 0.1453548681
C   C21       1.0  0.84620  0.45740  0.09430  1.0000 -0.0572365391
C   C22       1.0  0.83340  0.09110  0.02550  1.0000 -0.0499764322
C   C23       1.0  0.84160  0.36660  0.08330  1.0000 -0.193146538
C   C24       1.0  0.84440  0.17690  0.04460  1.0000 -0.1824740059
C   C25       1.0  0.64530  0.72570  0.18210  1.0000 0.073177245
C   C26       1.0  0.11390  0.68330  0.31150  1.0000 0.5703441203
C   C27       1.0  0.98240  0.70740  0.24480  1.0000 0.073177245
C   C28       1.0  0.01650  0.68160  0.30070  1.0000 -0.0795785985
C   C29       1.0  0.48010  0.70860  0.19420  1.0000 0.5703441203
C   C30       1.0  0.57540  0.69930  0.21650  1.0000 -0.0795785985
C   C31       1.0  0.83950  0.68340  0.27470  1.0000 0.1652807817
C   C32       1.0  0.74400  0.68580  0.25760  1.0000 0.1453548681
C   C33       1.0  0.95740  0.65380  0.34430  1.0000 -0.0572365391
C   C34       1.0  0.59110  0.66667  0.27550  1.0000 -0.0499764322
C   C35       1.0  0.86660  0.65840  0.33333  1.0000 -0.193146538
C   C36       1.0  0.67690  0.65560  0.29460  1.0000 -0.1824740059
C   C37       1.0  0.35470  0.27430  0.68210  1.0000 0.073177245
C   C38       1.0  0.88610  0.31670  0.81150  1.0000 0.5703441203
C   C39       1.0  0.01760  0.29260  0.74480  1.0000 0.073177245
C   C40       1.0  0.98350  0.31840  0.80070  1.0000 -0.0795785985
C   C41       1.0  0.51990  0.29140  0.69420  1.0000 0.5703441203
C   C42       1.0  0.42460  0.30070  0.71650  1.0000 -0.0748786553
C   C43       1.0  0.16050  0.31660  0.77470  1.0000 0.1638760791
C   C44       1.0  0.25600  0.31420  0.75760  1.0000 0.1453548681
C   C45       1.0  0.04260  0.34620  0.84430  1.0000 -0.0572365391
C   C46       1.0  0.40890  0.33340  0.77550  1.0000 -0.0499764322
C   C47       1.0  0.13340  0.34160  0.83330  1.0000 -0.193146538
C   C48       1.0  0.32310  0.34440  0.79460  1.0000 -0.1824740059
C   C49       1.0  0.27430  0.35470  0.31790  1.0000 0.073177245
C   C50       1.0  0.31670  0.88610  0.18850  1.0000 0.5703441203
C   C51       1.0  0.29260  0.01760  0.25520  1.0000 0.073177245
C   C52       1.0  0.31840  0.98350  0.19930  1.0000 -0.0795785985
C   C53       1.0  0.29140  0.51990  0.30580  1.0000 0.5703441203
C   C54       1.0  0.30070  0.42460  0.28350  1.0000 -0.0748786553
C   C55       1.0  0.31660  0.16050  0.22530  1.0000 0.1638760791
C   C56       1.0  0.31420  0.25600  0.24240  1.0000 0.1453548681
C   C57       1.0  0.34620  0.04260  0.15570  1.0000 -0.0572365391
C   C58       1.0  0.33340  0.40890  0.22450  1.0000 -0.0499764322
C   C59       1.0  0.34160  0.13340  0.16670  1.0000 -0.193146538
C   C60       1.0  0.34440  0.32310  0.20540  1.0000 -0.1824740059
C   C61       1.0  0.72570  0.64530  0.81790  1.0000 0.073177245
C   C62       1.0  0.68330  0.11390  0.68850  1.0000 0.5703441203
C   C63       1.0  0.70740  0.98240  0.75520  1.0000 0.073177245
C   C64       1.0  0.68160  0.01650  0.69930  1.0000 -0.0795785985
C   C65       1.0  0.70860  0.48010  0.80580  1.0000 0.5703441203
C   C66       1.0  0.69930  0.57540  0.78350  1.0000 -0.0795785985
C   C67       1.0  0.68340  0.83950  0.72530  1.0000 0.1652807817
C   C68       1.0  0.68580  0.74400  0.74240  1.0000 0.1453548681
C   C69       1.0  0.65380  0.95740  0.65570  1.0000 -0.0572365391
C   C70       1.0  0.66667  0.59110  0.72450  1.0000 -0.0499764322
C   C71       1.0  0.65840  0.86660  0.66667  1.0000 -0.193146538
C   C72       1.0  0.65560  0.67690  0.70540  1.0000 -0.1824740059
C   C73       1.0  0.85470  0.22570  0.56790  1.0000 0.073177245
C   C74       1.0  0.38610  0.18330  0.43850  1.0000 0.5703441203
C   C75       1.0  0.51760  0.20740  0.50520  1.0000 0.073177245
C   C76       1.0  0.48350  0.18160  0.44930  1.0000 -0.0795785985
C   C77       1.0  0.01990  0.20860  0.55580  1.0000 0.5703441203
C   C78       1.0  0.92460  0.19930  0.53350  1.0000 -0.0748786553
C   C79       1.0  0.66050  0.18340  0.47530  1.0000 0.1652807817
C   C80       1.0  0.75600  0.18580  0.49240  1.0000 0.1453548681
C   C81       1.0  0.54260  0.15380  0.40570  1.0000 -0.0572365391
C   C82       1.0  0.90890  0.16660  0.47450  1.0000 -0.0499764322
C   C83       1.0  0.63340  0.15840  0.41670  1.0000 -0.193146538
C   C84       1.0  0.82310  0.15560  0.45540  1.0000 -0.1824740059
C   C85       1.0  0.14530  0.77430  0.06790  1.0000 0.073177245
C   C86       1.0  0.61390  0.81670  0.93850  1.0000 0.5703441203
C   C87       1.0  0.48240  0.79260  0.00520  1.0000 0.073177245
C   C88       1.0  0.51650  0.81840  0.94930  1.0000 -0.0795785985
C   C89       1.0  0.98010  0.79140  0.05580  1.0000 0.5703441203
C   C90       1.0  0.07540  0.80070  0.03350  1.0000 -0.0748786553
C   C91       1.0  0.33950  0.81660  0.97530  1.0000 0.1652807817
C   C92       1.0  0.24400  0.81420  0.99240  1.0000 0.1453548681
C   C93       1.0  0.45740  0.84620  0.90570  1.0000 -0.0572365391
C   C94       1.0  0.09110  0.83340  0.97450  1.0000 -0.0499764322
C   C95       1.0  0.36660  0.84160  0.91670  1.0000 -0.193146538
C   C96       1.0  0.17690  0.84440  0.95540  1.0000 -0.1824740059
N   N1        1.0  0.22160  0.77150  0.45160  1.0000 -0.2325780391
N   N2        1.0  0.20910  0.60320  0.48190  1.0000 -0.2531678396
N   N3        1.0  0.77840  0.22850  0.95160  1.0000 -0.2325780391
N   N4        1.0  0.79090  0.39680  0.98190  1.0000 -0.2531678396
N   N5        1.0  0.72850  0.72160  0.20160  1.0000 -0.2325780391
N   N6        1.0  0.89680  0.70910  0.23190  1.0000 -0.2531678396
N   N7        1.0  0.27150  0.27840  0.70160  1.0000 -0.2325780391
N   N8        1.0  0.10320  0.29090  0.73190  1.0000 -0.2531678396
N   N9        1.0  0.27840  0.27150  0.29840  1.0000 -0.2325780391
N   N10       1.0  0.29090  0.10320  0.26810  1.0000 -0.2531678396
N   N11       1.0  0.72160  0.72850  0.79840  1.0000 -0.2325780391
N   N12       1.0  0.70910  0.89680  0.76810  1.0000 -0.2531678396
N   N13       1.0  0.77150  0.22160  0.54840  1.0000 -0.2325780391
N   N14       1.0  0.60320  0.20910  0.51810  1.0000 -0.2531678396
N   N15       1.0  0.22850  0.77840  0.04840  1.0000 -0.2325780391
N   N16       1.0  0.39680  0.79090  0.01810  1.0000 -0.2531678396
O   O1        1.0  0.15800  0.36060  0.61300  1.0000 -0.5095763231
O   O2        1.0  0.18540  0.23010  0.41430  1.0000 -0.7420437484
O   O3        1.0  0.21890  0.03480  0.38810  1.0000 -0.5095763231
O   O4        1.0  0.20960  0.34080  0.51620  1.0000 -0.5095763231
O   O5        1.0  0.20560  0.07600  0.48660  1.0000 -0.4982219711
O   O6        1.0  0.84200  0.63940  0.11300  1.0000 -0.5095763231
O   O7        1.0  0.81460  0.76990  0.91430  1.0000 -0.7420437484
O   O8        1.0  0.78110  0.96520  0.88810  1.0000 -0.5095763231
O   O9        1.0  0.79040  0.65920  0.01620  1.0000 -0.5095763231
O   O10       1.0  0.79440  0.92400  0.98660  1.0000 -0.4982219711
O   O11       1.0  0.13940  0.65800  0.36300  1.0000 -0.5095763231
O   O12       1.0  0.26990  0.68540  0.16430  1.0000 -0.7420437484
O   O13       1.0  0.46520  0.71890  0.13810  1.0000 -0.5095763231
O   O14       1.0  0.15920  0.70960  0.26620  1.0000 -0.5095763231
O   O15       1.0  0.42400  0.70560  0.23660  1.0000 -0.4982219711
O   O16       1.0  0.86060  0.34200  0.86300  1.0000 -0.5095763231
O   O17       1.0  0.73010  0.31460  0.66430  1.0000 -0.7420437484
O   O18       1.0  0.53480  0.28110  0.63810  1.0000 -0.5095763231
O   O19       1.0  0.84080  0.29040  0.76620  1.0000 -0.5095763231
O   O20       1.0  0.57600  0.29440  0.73660  1.0000 -0.4982219711
O   O21       1.0  0.34200  0.86060  0.13700  1.0000 -0.5095763231
O   O22       1.0  0.31460  0.73010  0.33570  1.0000 -0.7420437484
O   O23       1.0  0.28110  0.53480  0.36190  1.0000 -0.5095763231
O   O24       1.0  0.29040  0.84080  0.23380  1.0000 -0.5095763231
O   O25       1.0  0.29440  0.57600  0.26340  1.0000 -0.4982219711
O   O26       1.0  0.65800  0.13940  0.63700  1.0000 -0.5095763231
O   O27       1.0  0.68540  0.26990  0.83570  1.0000 -0.7420437484
O   O28       1.0  0.71890  0.46520  0.86190  1.0000 -0.5095763231
O   O29       1.0  0.70960  0.15920  0.73380  1.0000 -0.5095763231
O   O30       1.0  0.70560  0.42400  0.76340  1.0000 -0.4982219711
O   O31       1.0  0.36060  0.15800  0.38700  1.0000 -0.5095763231
O   O32       1.0  0.23010  0.18540  0.58570  1.0000 -0.7420437484
O   O33       1.0  0.03480  0.21890  0.61190  1.0000 -0.5095763231
O   O34       1.0  0.34080  0.20960  0.48380  1.0000 -0.5095763231
O   O35       1.0  0.07600  0.20560  0.51340  1.0000 -0.4982219711
O   O36       1.0  0.63940  0.84200  0.88700  1.0000 -0.5095763231
O   O37       1.0  0.76990  0.81460  0.08570  1.0000 -0.7420437484
O   O38       1.0  0.96520  0.78110  0.11190  1.0000 -0.5095763231
O   O39       1.0  0.65920  0.79040  0.98380  1.0000 -0.5095763231
O   O40       1.0  0.92400  0.79440  0.01340  1.0000 -0.4982219711
