# DDEC6 charges by PACMAN v1.1 (https://github.com/mtap-research/PACMAN-charge/)
data_2017[Zr][scu]3[ASR]6
_chemical_formula_sum              "Zr6 H64 C88 O28"
_cell_length_a       19.9604
_cell_length_b       19.9604
_cell_length_c       16.155
_cell_angle_alpha    90
_cell_angle_beta     90
_cell_angle_gamma    129.57

_symmetry_space_group_name_H-M    "P 1"
_symmetry_Int_Tables_number       1

loop_
  _symmetry_equiv_pos_as_xyz
  'x, y, z'

loop_
  _atom_site_type_symbol
  _atom_site_label
  _atom_site_symmetry_multiplicity
  _atom_site_fract_x
  _atom_site_fract_y
  _atom_site_fract_z
  _atom_site_occupancy
  _atom_site_charge
Zr  Zr1       1.0  0.93231  0.06769  0.50000  1.0000 2.3201664116
Zr  Zr2       1.0  0.06769  0.93231  0.50000  1.0000 2.3201664116
Zr  Zr3       1.0  0.89583  0.89583  0.38996  1.0000 2.4712906505
Zr  Zr4       1.0  0.10417  0.10417  0.38996  1.0000 2.4712906505
Zr  Zr5       1.0  0.10417  0.10417  0.61004  1.0000 2.4712906505
Zr  Zr6       1.0  0.89583  0.89583  0.61004  1.0000 2.4712906505
H   H1        1.0  0.77100  0.08520  0.64560  1.0000 0.1178009492
H   H2        1.0  0.57270  0.86410  0.82680  1.0000 0.1119152891
H   H3        1.0  0.66680  0.85860  0.74860  1.0000 0.1119152891
H   H4        1.0  0.67680  0.09080  0.71770  1.0000 0.0992496066
H   H5        1.0  0.59750  0.99790  0.92780  1.0000 0.1178009492
H   H6        1.0  0.54750  0.12390  0.71740  1.0000 0.1303833227
H   H7        1.0  0.50040  0.08820  0.62930  1.0000 0.1303833227
H   H8        1.0  0.59560  0.11800  0.64180  1.0000 0.1178009492
H   H9        1.0  0.22900  0.91480  0.64560  1.0000 0.1178009492
H   H10       1.0  0.42730  0.13590  0.82680  1.0000 0.1119152891
H   H11       1.0  0.33320  0.14140  0.74860  1.0000 0.1119152891
H   H12       1.0  0.32320  0.90920  0.71770  1.0000 0.0992496066
H   H13       1.0  0.40250  0.00210  0.92780  1.0000 0.1178009492
H   H14       1.0  0.45250  0.87610  0.71740  1.0000 0.1303833227
H   H15       1.0  0.49960  0.91180  0.62930  1.0000 0.1303833227
H   H16       1.0  0.40440  0.88200  0.64180  1.0000 0.1178009492
H   H17       1.0  0.91480  0.22900  0.35440  1.0000 0.1178009492
H   H18       1.0  0.13590  0.42730  0.17320  1.0000 0.1119152891
H   H19       1.0  0.14140  0.33320  0.25140  1.0000 0.1119152891
H   H20       1.0  0.90920  0.32320  0.28230  1.0000 0.0992496066
H   H21       1.0  0.00210  0.40250  0.07220  1.0000 0.1178009492
H   H22       1.0  0.87610  0.45250  0.28260  1.0000 0.1303833227
H   H23       1.0  0.91180  0.49960  0.37070  1.0000 0.1303833227
H   H24       1.0  0.88200  0.40440  0.35820  1.0000 0.1178009492
H   H25       1.0  0.08520  0.77100  0.35440  1.0000 0.1178009492
H   H26       1.0  0.86410  0.57270  0.17320  1.0000 0.1178009492
H   H27       1.0  0.85860  0.66680  0.25140  1.0000 0.1119152891
H   H28       1.0  0.09080  0.67680  0.28230  1.0000 0.0992496066
H   H29       1.0  0.99790  0.59750  0.07220  1.0000 0.1178009492
H   H30       1.0  0.12390  0.54750  0.28260  1.0000 0.1303833227
H   H31       1.0  0.08820  0.50040  0.37070  1.0000 0.1303833227
H   H32       1.0  0.11800  0.59560  0.35820  1.0000 0.1178009492
H   H33       1.0  0.22900  0.91480  0.35440  1.0000 0.1178009492
H   H34       1.0  0.42730  0.13590  0.17320  1.0000 0.1119152891
H   H35       1.0  0.33320  0.14140  0.25140  1.0000 0.1119152891
H   H36       1.0  0.32320  0.90920  0.28230  1.0000 0.0992496066
H   H37       1.0  0.40250  0.00210  0.07220  1.0000 0.1178009492
H   H38       1.0  0.45250  0.87610  0.28260  1.0000 0.1303833227
H   H39       1.0  0.49960  0.91180  0.37070  1.0000 0.1303833227
H   H40       1.0  0.40440  0.88200  0.35820  1.0000 0.1178009492
H   H41       1.0  0.77100  0.08520  0.35440  1.0000 0.1178009492
H   H42       1.0  0.57270  0.86410  0.17320  1.0000 0.1119152891
H   H43       1.0  0.66680  0.85860  0.25140  1.0000 0.1119152891
H   H44       1.0  0.67680  0.09080  0.28230  1.0000 0.0992496066
H   H45       1.0  0.59750  0.99790  0.07220  1.0000 0.1178009492
H   H46       1.0  0.54750  0.12390  0.28260  1.0000 0.1303833227
H   H47       1.0  0.50040  0.08820  0.37070  1.0000 0.1303833227
H   H48       1.0  0.59560  0.11800  0.35820  1.0000 0.1178009492
H   H49       1.0  0.08520  0.77100  0.64560  1.0000 0.1178009492
H   H50       1.0  0.86410  0.57270  0.82680  1.0000 0.1119152891
H   H51       1.0  0.85860  0.66680  0.74860  1.0000 0.1119152891
H   H52       1.0  0.09080  0.67680  0.71770  1.0000 0.0992496066
H   H53       1.0  0.99790  0.59750  0.92780  1.0000 0.1119152891
H   H54       1.0  0.12390  0.54750  0.71740  1.0000 0.1303833227
H   H55       1.0  0.08820  0.50040  0.62930  1.0000 0.1303833227
H   H56       1.0  0.11800  0.59560  0.64180  1.0000 0.1178009492
H   H57       1.0  0.91480  0.22900  0.64560  1.0000 0.1178009492
H   H58       1.0  0.13590  0.42730  0.82680  1.0000 0.1119152891
H   H59       1.0  0.14140  0.33320  0.74860  1.0000 0.1119152891
H   H60       1.0  0.90920  0.32320  0.71770  1.0000 0.0992496066
H   H61       1.0  0.00210  0.40250  0.92780  1.0000 0.1178009492
H   H62       1.0  0.87610  0.45250  0.71740  1.0000 0.1303833227
H   H63       1.0  0.91180  0.49960  0.62930  1.0000 0.1303833227
H   H64       1.0  0.88200  0.40440  0.64180  1.0000 0.1178009492
C   C1        1.0  0.78970  0.96730  0.63920  1.0000 0.6296870435
C   C2        1.0  0.73000  0.97000  0.68930  1.0000 -0.0606102727
C   C3        1.0  0.61760  0.98500  0.77330  1.0000 0.0781250137
C   C4        1.0  0.73040  0.03860  0.68170  1.0000 -0.1079162893
C   C5        1.0  0.61230  0.90870  0.78850  1.0000 -0.211208151
C   C6        1.0  0.66980  0.90780  0.74240  1.0000 -0.097759317
C   C7        1.0  0.67310  0.04130  0.72530  1.0000 -0.1339573742
C   C8        1.0  0.55230  0.98950  0.81730  1.0000 -0.013689436
C   C9        1.0  0.55390  0.99590  0.90110  1.0000 -0.2396542815
C   C10       1.0  0.53950  0.09050  0.66800  1.0000 -0.3340435599
C   C11       1.0  0.21030  0.03270  0.63920  1.0000 0.6296870435
C   C12       1.0  0.27000  0.03000  0.68930  1.0000 -0.0606102727
C   C13       1.0  0.38240  0.01500  0.77330  1.0000 0.0781250137
C   C14       1.0  0.26960  0.96140  0.68170  1.0000 -0.1079162893
C   C15       1.0  0.38770  0.09130  0.78850  1.0000 -0.211208151
C   C16       1.0  0.33020  0.09220  0.74240  1.0000 -0.097759317
C   C17       1.0  0.32690  0.95870  0.72530  1.0000 -0.1339573742
C   C18       1.0  0.44770  0.01050  0.81730  1.0000 -0.013689436
C   C19       1.0  0.44610  0.00410  0.90110  1.0000 -0.2396542815
C   C20       1.0  0.46050  0.90950  0.66800  1.0000 -0.3340435599
C   C21       1.0  0.03270  0.21030  0.36080  1.0000 0.6296870435
C   C22       1.0  0.03000  0.27000  0.31070  1.0000 -0.0606102727
C   C23       1.0  0.01500  0.38240  0.22670  1.0000 0.0781250137
C   C24       1.0  0.96140  0.26960  0.31830  1.0000 -0.1079162893
C   C25       1.0  0.09130  0.38770  0.21150  1.0000 -0.211208151
C   C26       1.0  0.09220  0.33020  0.25760  1.0000 -0.097759317
C   C27       1.0  0.95870  0.32690  0.27470  1.0000 -0.1339573742
C   C28       1.0  0.01050  0.44770  0.18270  1.0000 -0.0150859582
C   C29       1.0  0.00410  0.44610  0.09890  1.0000 -0.2396542815
C   C30       1.0  0.90950  0.46050  0.33200  1.0000 -0.3340435599
C   C31       1.0  0.96730  0.78970  0.36080  1.0000 0.6296870435
C   C32       1.0  0.97000  0.73000  0.31070  1.0000 -0.0606102727
C   C33       1.0  0.98500  0.61760  0.22670  1.0000 0.0781250137
C   C34       1.0  0.03860  0.73040  0.31830  1.0000 -0.1079162893
C   C35       1.0  0.90870  0.61230  0.21150  1.0000 -0.211208151
C   C36       1.0  0.90780  0.66980  0.25760  1.0000 -0.097759317
C   C37       1.0  0.04130  0.67310  0.27470  1.0000 -0.1339573742
C   C38       1.0  0.98950  0.55230  0.18270  1.0000 -0.013689436
C   C39       1.0  0.99590  0.55390  0.09890  1.0000 -0.2396542815
C   C40       1.0  0.09050  0.53950  0.33200  1.0000 -0.3366034006
C   C41       1.0  0.21030  0.03270  0.36080  1.0000 0.6296870435
C   C42       1.0  0.27000  0.03000  0.31070  1.0000 -0.0606102727
C   C43       1.0  0.38240  0.01500  0.22670  1.0000 0.0781250137
C   C44       1.0  0.26960  0.96140  0.31830  1.0000 -0.1079162893
C   C45       1.0  0.38770  0.09130  0.21150  1.0000 -0.211208151
C   C46       1.0  0.33020  0.09220  0.25760  1.0000 -0.097759317
C   C47       1.0  0.32690  0.95870  0.27470  1.0000 -0.1339573742
C   C48       1.0  0.44770  0.01050  0.18270  1.0000 -0.013689436
C   C49       1.0  0.44610  0.00410  0.09890  1.0000 -0.2396542815
C   C50       1.0  0.46050  0.90950  0.33200  1.0000 -0.3340435599
C   C51       1.0  0.78970  0.96730  0.36080  1.0000 0.6296870435
C   C52       1.0  0.73000  0.97000  0.31070  1.0000 -0.0606102727
C   C53       1.0  0.61760  0.98500  0.22670  1.0000 0.0781250137
C   C54       1.0  0.73040  0.03860  0.31830  1.0000 -0.1079162893
C   C55       1.0  0.61230  0.90870  0.21150  1.0000 -0.211208151
C   C56       1.0  0.66980  0.90780  0.25760  1.0000 -0.097759317
C   C57       1.0  0.67310  0.04130  0.27470  1.0000 -0.1339573742
C   C58       1.0  0.55230  0.98950  0.18270  1.0000 -0.013689436
C   C59       1.0  0.55390  0.99590  0.09890  1.0000 -0.2396542815
C   C60       1.0  0.53950  0.09050  0.33200  1.0000 -0.3340435599
C   C61       1.0  0.96730  0.78970  0.63920  1.0000 0.6296870435
C   C62       1.0  0.97000  0.73000  0.68930  1.0000 -0.0606102727
C   C63       1.0  0.98500  0.61760  0.77330  1.0000 0.0781250137
C   C64       1.0  0.03860  0.73040  0.68170  1.0000 -0.1079162893
C   C65       1.0  0.90870  0.61230  0.78850  1.0000 -0.211208151
C   C66       1.0  0.90780  0.66980  0.74240  1.0000 -0.097759317
C   C67       1.0  0.04130  0.67310  0.72530  1.0000 -0.1339573742
C   C68       1.0  0.98950  0.55230  0.81730  1.0000 -0.013689436
C   C69       1.0  0.99590  0.55390  0.90110  1.0000 -0.2396542815
C   C70       1.0  0.09050  0.53950  0.66800  1.0000 -0.3366034006
C   C71       1.0  0.03270  0.21030  0.63920  1.0000 0.6296870435
C   C72       1.0  0.03000  0.27000  0.68930  1.0000 -0.0606102727
C   C73       1.0  0.01500  0.38240  0.77330  1.0000 0.0781250137
C   C74       1.0  0.96140  0.26960  0.68170  1.0000 -0.1079162893
C   C75       1.0  0.09130  0.38770  0.78850  1.0000 -0.211208151
C   C76       1.0  0.09220  0.33020  0.74240  1.0000 -0.097759317
C   C77       1.0  0.95870  0.32690  0.72530  1.0000 -0.1339573742
C   C78       1.0  0.01050  0.44770  0.81730  1.0000 -0.0150859582
C   C79       1.0  0.00410  0.44610  0.90110  1.0000 -0.2396542815
C   C80       1.0  0.90950  0.46050  0.66800  1.0000 -0.3340435599
C   C81       1.0  0.50000  0.00000  0.95540  1.0000 0.0729792851
C   C82       1.0  0.50000  0.00000  0.77700  1.0000 0.0729792851
C   C83       1.0  0.00000  0.50000  0.04460  1.0000 0.0729792851
C   C84       1.0  0.00000  0.50000  0.22300  1.0000 0.0729792851
C   C85       1.0  0.50000  0.00000  0.04460  1.0000 0.0729792851
C   C86       1.0  0.50000  0.00000  0.22300  1.0000 0.0729792851
C   C87       1.0  0.00000  0.50000  0.95540  1.0000 0.0729792851
C   C88       1.0  0.00000  0.50000  0.77700  1.0000 0.0729792851
O   O1        1.0  0.82500  0.02140  0.58140  1.0000 -0.5668455859
O   O2        1.0  0.80060  0.91400  0.65630  1.0000 -0.5989882921
O   O3        1.0  0.17500  0.97860  0.58140  1.0000 -0.5668455859
O   O4        1.0  0.19940  0.08600  0.65630  1.0000 -0.5989882921
O   O5        1.0  0.97860  0.17500  0.41860  1.0000 -0.5668455859
O   O6        1.0  0.08600  0.19940  0.34370  1.0000 -0.5989882921
O   O7        1.0  0.02140  0.82500  0.41860  1.0000 -0.5668455859
O   O8        1.0  0.91400  0.80060  0.34370  1.0000 -0.5989882921
O   O9        1.0  0.17500  0.97860  0.41860  1.0000 -0.5668455859
O   O10       1.0  0.19940  0.08600  0.34370  1.0000 -0.5989882921
O   O11       1.0  0.82500  0.02140  0.41860  1.0000 -0.5668455859
O   O12       1.0  0.80060  0.91400  0.34370  1.0000 -0.5989882921
O   O13       1.0  0.02140  0.82500  0.58140  1.0000 -0.5668455859
O   O14       1.0  0.91400  0.80060  0.65630  1.0000 -0.5989882921
O   O15       1.0  0.97860  0.17500  0.58140  1.0000 -0.5668455859
O   O16       1.0  0.08600  0.19940  0.65630  1.0000 -0.5989882921
O   O17       1.0  0.96810  0.03190  0.39110  1.0000 -1.1864604329
O   O18       1.0  0.03190  0.96810  0.39110  1.0000 -1.1782676553
O   O19       1.0  0.96810  0.03190  0.60890  1.0000 -1.1864604329
O   O20       1.0  0.03190  0.96810  0.60890  1.0000 -1.1782676553
O   O21       1.0  0.85600  0.92360  0.50000  1.0000 -1.1700644269
O   O22       1.0  0.14400  0.07640  0.50000  1.0000 -1.1700644269
O   O23       1.0  0.07640  0.14400  0.50000  1.0000 -1.1700644269
O   O24       1.0  0.92360  0.85600  0.50000  1.0000 -1.1782676553
O   O25       1.0  0.50000  0.00000  0.69390  1.0000 0.0183466824
O   O26       1.0  0.00000  0.50000  0.30610  1.0000 0.0183466824
O   O27       1.0  0.50000  0.00000  0.30610  1.0000 0.0183466824
O   O28       1.0  0.00000  0.50000  0.69390  1.0000 0.0183466824
