# DDEC6 charges by PACMAN v1.1 (https://github.com/mtap-research/PACMAN-charge/)
data_2017[Cd][dmd]3[ASR]1
_chemical_formula_sum              "Cd6 H108 C104 N20 O24"
_cell_length_a       14.9421
_cell_length_b       14.9421
_cell_length_c       29.421
_cell_angle_alpha    88.9902
_cell_angle_beta     91.0098
_cell_angle_gamma    138.169

_symmetry_space_group_name_H-M    "P 1"
_symmetry_Int_Tables_number       1

loop_
  _symmetry_equiv_pos_as_xyz
  'x, y, z'

loop_
  _atom_site_type_symbol
  _atom_site_label
  _atom_site_symmetry_multiplicity
  _atom_site_fract_x
  _atom_site_fract_y
  _atom_site_fract_z
  _atom_site_occupancy
  _atom_site_charge
Cd  Cd1       1.0  0.41641  0.06661  0.54120  1.0000 0.7937152329
Cd  Cd2       1.0  0.06661  0.41641  0.95880  1.0000 0.7937152329
Cd  Cd3       1.0  0.58359  0.93339  0.45880  1.0000 0.7937152329
Cd  Cd4       1.0  0.93339  0.58359  0.04120  1.0000 0.7937152329
Cd  Cd5       1.0  0.76230  0.76230  0.25000  1.0000 0.8288250806
Cd  Cd6       1.0  0.23770  0.23770  0.75000  1.0000 0.8288250806
H   H1        1.0  0.51160  0.04820  0.63550  1.0000 0.1003740822
H   H2        1.0  0.64820  0.10020  0.62760  1.0000 0.1003740822
H   H3        1.0  0.73950  0.29950  0.59560  1.0000 0.1003740822
H   H4        1.0  0.69370  0.28210  0.64560  1.0000 0.1003740822
H   H5        1.0  0.70160  0.39660  0.55160  1.0000 0.1200195693
H   H6        1.0  0.59230  0.38490  0.56480  1.0000 0.1200195693
H   H7        1.0  0.91190  0.54510  0.59490  1.0000 0.1200195693
H   H8        1.0  0.06730  0.73270  0.63940  1.0000 0.1300751249
H   H9        1.0  0.18680  0.86580  0.70200  1.0000 0.1300751249
H   H10       1.0  0.30430  0.07030  0.74270  1.0000 0.1300751249
H   H11       1.0  0.97310  0.92870  0.69550  1.0000 0.1123415621
H   H12       1.0  0.79260  0.70940  0.67220  1.0000 0.1300751249
H   H13       1.0  0.63640  0.51880  0.62780  1.0000 0.1200195693
H   H14       1.0  0.46200  0.15420  0.65440  1.0000 0.1003740822
H   H15       1.0  0.53090  0.29990  0.65220  1.0000 0.1123415621
H   H16       1.0  0.38060  0.23200  0.59390  1.0000 0.1123415621
H   H17       1.0  0.30450  0.15050  0.63910  1.0000 0.1003740822
H   H18       1.0  0.08590  0.67670  0.45400  1.0000 0.1123415621
H   H19       1.0  0.91810  0.45930  0.42680  1.0000 0.1123415621
H   H20       1.0  0.65150  0.31430  0.40020  1.0000 0.1200195693
H   H21       1.0  0.72330  0.45830  0.34120  1.0000 0.1200195693
H   H22       1.0  0.52730  0.51690  0.39020  1.0000 0.1003740822
H   H23       1.0  0.44800  0.36620  0.44880  1.0000 0.1200195693
H   H24       1.0  0.61660  0.09360  0.55190  1.0000 0.2824257592
H   H25       1.0  0.49830  0.96250  0.57000  1.0000 0.2860378267
H   H26       1.0  0.24960  0.97760  0.61100  1.0000 0.2496147396
H   H27       1.0  0.21510  0.01590  0.57580  1.0000 0.2824257592
H   H28       1.0  0.04820  0.51160  0.86450  1.0000 0.1003740822
H   H29       1.0  0.10020  0.64820  0.87240  1.0000 0.1003740822
H   H30       1.0  0.29950  0.73950  0.90440  1.0000 0.1003740822
H   H31       1.0  0.28210  0.69370  0.85440  1.0000 0.1003740822
H   H32       1.0  0.39660  0.70160  0.94840  1.0000 0.1200195693
H   H33       1.0  0.38490  0.59230  0.93520  1.0000 0.1200195693
H   H34       1.0  0.54510  0.91190  0.90510  1.0000 0.1200195693
H   H35       1.0  0.73270  0.06730  0.86060  1.0000 0.1300751249
H   H36       1.0  0.86580  0.18680  0.79800  1.0000 0.1300751249
H   H37       1.0  0.07030  0.30430  0.75730  1.0000 0.1300751249
H   H38       1.0  0.92870  0.97310  0.80450  1.0000 0.1123415621
H   H39       1.0  0.70940  0.79260  0.82780  1.0000 0.1300751249
H   H40       1.0  0.51880  0.63640  0.87220  1.0000 0.1200195693
H   H41       1.0  0.15420  0.46200  0.84560  1.0000 0.1003740822
H   H42       1.0  0.29990  0.53090  0.84780  1.0000 0.1123415621
H   H43       1.0  0.23200  0.38060  0.90610  1.0000 0.1123415621
H   H44       1.0  0.15050  0.30450  0.86090  1.0000 0.1003740822
H   H45       1.0  0.67670  0.08590  0.04600  1.0000 0.1123415621
H   H46       1.0  0.45930  0.91810  0.07320  1.0000 0.1123415621
H   H47       1.0  0.31430  0.65150  0.09980  1.0000 0.1200195693
H   H48       1.0  0.45830  0.72330  0.15880  1.0000 0.1200195693
H   H49       1.0  0.51690  0.52730  0.10980  1.0000 0.1003740822
H   H50       1.0  0.36620  0.44800  0.05120  1.0000 0.1200195693
H   H51       1.0  0.09360  0.61660  0.94810  1.0000 0.2824257592
H   H52       1.0  0.96250  0.49830  0.93000  1.0000 0.2860378267
H   H53       1.0  0.97760  0.24960  0.88900  1.0000 0.2496147396
H   H54       1.0  0.01590  0.21510  0.92420  1.0000 0.2824257592
H   H55       1.0  0.48840  0.95180  0.36450  1.0000 0.1003740822
H   H56       1.0  0.35180  0.89980  0.37240  1.0000 0.1003740822
H   H57       1.0  0.26050  0.70050  0.40440  1.0000 0.1003740822
H   H58       1.0  0.30630  0.71790  0.35440  1.0000 0.1003740822
H   H59       1.0  0.29840  0.60340  0.44840  1.0000 0.1200195693
H   H60       1.0  0.40770  0.61510  0.43520  1.0000 0.1200195693
H   H61       1.0  0.08810  0.45490  0.40510  1.0000 0.1200195693
H   H62       1.0  0.93270  0.26730  0.36060  1.0000 0.1300751249
H   H63       1.0  0.81320  0.13420  0.29800  1.0000 0.1300751249
H   H64       1.0  0.69570  0.92970  0.25730  1.0000 0.1300751249
H   H65       1.0  0.02690  0.07130  0.30450  1.0000 0.1123415621
H   H66       1.0  0.20740  0.29060  0.32780  1.0000 0.1300751249
H   H67       1.0  0.36360  0.48120  0.37220  1.0000 0.1200195693
H   H68       1.0  0.53800  0.84580  0.34560  1.0000 0.1003740822
H   H69       1.0  0.46910  0.70010  0.34780  1.0000 0.1123415621
H   H70       1.0  0.61940  0.76800  0.40610  1.0000 0.1123415621
H   H71       1.0  0.69550  0.84950  0.36090  1.0000 0.1003740822
H   H72       1.0  0.91410  0.32330  0.54600  1.0000 0.1123415621
H   H73       1.0  0.08190  0.54070  0.57320  1.0000 0.1123415621
H   H74       1.0  0.34850  0.68570  0.59980  1.0000 0.1200195693
H   H75       1.0  0.27670  0.54170  0.65880  1.0000 0.1200195693
H   H76       1.0  0.47270  0.48310  0.60980  1.0000 0.1003740822
H   H77       1.0  0.55200  0.63380  0.55120  1.0000 0.1200195693
H   H78       1.0  0.38340  0.90640  0.44810  1.0000 0.2824257592
H   H79       1.0  0.50170  0.03750  0.43000  1.0000 0.2860378267
H   H80       1.0  0.75040  0.02240  0.38900  1.0000 0.2496147396
H   H81       1.0  0.78490  0.98410  0.42420  1.0000 0.2824257592
H   H82       1.0  0.95180  0.48840  0.13550  1.0000 0.1003740822
H   H83       1.0  0.89980  0.35180  0.12760  1.0000 0.1003740822
H   H84       1.0  0.70050  0.26050  0.09560  1.0000 0.1003740822
H   H85       1.0  0.71790  0.30630  0.14560  1.0000 0.1003740822
H   H86       1.0  0.60340  0.29840  0.05160  1.0000 0.1200195693
H   H87       1.0  0.61510  0.40770  0.06480  1.0000 0.1200195693
H   H88       1.0  0.45490  0.08810  0.09490  1.0000 0.1200195693
H   H89       1.0  0.26730  0.93270  0.13940  1.0000 0.1300751249
H   H90       1.0  0.13420  0.81320  0.20200  1.0000 0.1300751249
H   H91       1.0  0.92970  0.69570  0.24270  1.0000 0.1300751249
H   H92       1.0  0.07130  0.02690  0.19550  1.0000 0.1123415621
H   H93       1.0  0.29060  0.20740  0.17220  1.0000 0.1300751249
H   H94       1.0  0.48120  0.36360  0.12780  1.0000 0.1200195693
H   H95       1.0  0.84580  0.53800  0.15440  1.0000 0.1003740822
H   H96       1.0  0.70010  0.46910  0.15220  1.0000 0.1123415621
H   H97       1.0  0.76800  0.61940  0.09390  1.0000 0.1123415621
H   H98       1.0  0.84950  0.69550  0.13910  1.0000 0.1003740822
H   H99       1.0  0.32330  0.91410  0.95400  1.0000 0.1123415621
H   H100      1.0  0.54070  0.08190  0.92680  1.0000 0.1123415621
H   H101      1.0  0.68570  0.34850  0.90020  1.0000 0.1200195693
H   H102      1.0  0.54170  0.27670  0.84120  1.0000 0.1200195693
H   H103      1.0  0.48310  0.47270  0.89020  1.0000 0.1003740822
H   H104      1.0  0.63380  0.55200  0.94880  1.0000 0.1200195693
H   H105      1.0  0.90640  0.38340  0.05190  1.0000 0.2824257592
H   H106      1.0  0.03750  0.50170  0.07000  1.0000 0.2860378267
H   H107      1.0  0.02240  0.75040  0.11100  1.0000 0.2496147396
H   H108      1.0  0.98410  0.78490  0.07580  1.0000 0.2824257592
C   C1        1.0  0.58901  0.10259  0.61575  1.0000 -0.0452602451
C   C2        1.0  0.66189  0.24591  0.61513  1.0000 -0.1633260419
C   C3        1.0  0.65440  0.38680  0.57707  1.0000 -0.1921473016
C   C4        1.0  0.75662  0.51098  0.60672  1.0000 0.0937245282
C   C5        1.0  0.88670  0.57690  0.61060  1.0000 -0.1287979535
C   C6        1.0  0.98001  0.68959  0.63730  1.0000 -0.170716949
C   C7        1.0  0.94478  0.73822  0.66065  1.0000 0.1379452439
C   C8        1.0  0.15819  0.90321  0.70530  1.0000 -0.1287979535
C   C9        1.0  0.22225  0.01595  0.72776  1.0000 -0.0348112045
C   C10       1.0  0.04184  0.93956  0.70199  1.0000 0.0673011931
C   C11       1.0  0.81680  0.67600  0.65700  1.0000 -0.170716949
C   C12       1.0  0.72360  0.56180  0.63010  1.0000 -0.1287979535
C   C13       1.0  0.48490  0.22110  0.63429  1.0000 -0.1633260419
C   C14       1.0  0.35870  0.16690  0.61480  1.0000 -0.0585366498
C   C15       1.0  0.20782  0.77278  0.53492  1.0000 0.5415745618
C   C16       1.0  0.10165  0.63195  0.51647  1.0000 -0.0218436896
C   C17       1.0  0.05167  0.60593  0.47268  1.0000 -0.1287979535
C   C18       1.0  0.95059  0.47501  0.45624  1.0000 -0.1212510203
C   C19       1.0  0.49454  0.23406  0.47054  1.0000 0.5333333926
C   C20       1.0  0.54155  0.32645  0.43098  1.0000 -0.0090452811
C   C21       1.0  0.62418  0.35342  0.39835  1.0000 -0.1212510203
C   C22       1.0  0.66620  0.43940  0.36280  1.0000 -0.1046545339
C   C23       1.0  0.62771  0.49669  0.35809  1.0000 -0.000776302
C   C24       1.0  0.67260  0.58880  0.31872  1.0000 0.5333333926
C   C25       1.0  0.55030  0.47370  0.39120  1.0000 -0.1212510203
C   C26       1.0  0.50490  0.38470  0.42720  1.0000 -0.1140061823
C   C27       1.0  0.10259  0.58901  0.88425  1.0000 -0.0452602451
C   C28       1.0  0.24591  0.66189  0.88487  1.0000 -0.1633260419
C   C29       1.0  0.38680  0.65440  0.92293  1.0000 -0.1921473016
C   C30       1.0  0.51098  0.75662  0.89328  1.0000 0.0937245282
C   C31       1.0  0.57690  0.88670  0.88940  1.0000 -0.1287979535
C   C32       1.0  0.68959  0.98001  0.86270  1.0000 -0.170716949
C   C33       1.0  0.73822  0.94478  0.83935  1.0000 0.1379452439
C   C34       1.0  0.90321  0.15819  0.79470  1.0000 -0.1287979535
C   C35       1.0  0.01595  0.22225  0.77224  1.0000 -0.0348112045
C   C36       1.0  0.93956  0.04184  0.79801  1.0000 0.0673011931
C   C37       1.0  0.67600  0.81680  0.84300  1.0000 -0.170716949
C   C38       1.0  0.56180  0.72360  0.86990  1.0000 -0.1287979535
C   C39       1.0  0.22110  0.48490  0.86571  1.0000 -0.1633260419
C   C40       1.0  0.16690  0.35870  0.88520  1.0000 -0.0585366498
C   C41       1.0  0.77278  0.20782  0.96508  1.0000 0.5415745618
C   C42       1.0  0.63195  0.10165  0.98353  1.0000 -0.0218436896
C   C43       1.0  0.60593  0.05167  0.02732  1.0000 -0.1212510203
C   C44       1.0  0.47501  0.95059  0.04376  1.0000 -0.1212510203
C   C45       1.0  0.23406  0.49454  0.02946  1.0000 0.5333333926
C   C46       1.0  0.32645  0.54155  0.06902  1.0000 -0.0090452811
C   C47       1.0  0.35342  0.62418  0.10165  1.0000 -0.1212510203
C   C48       1.0  0.43940  0.66620  0.13720  1.0000 -0.1046545339
C   C49       1.0  0.49669  0.62771  0.14191  1.0000 -0.000776302
C   C50       1.0  0.58880  0.67260  0.18128  1.0000 0.5333333926
C   C51       1.0  0.47370  0.55030  0.10880  1.0000 -0.1212510203
C   C52       1.0  0.38470  0.50490  0.07280  1.0000 -0.1140061823
C   C53       1.0  0.41099  0.89741  0.38425  1.0000 -0.0452602451
C   C54       1.0  0.33811  0.75409  0.38487  1.0000 -0.1633260419
C   C55       1.0  0.34560  0.61320  0.42293  1.0000 -0.1921473016
C   C56       1.0  0.24338  0.48902  0.39328  1.0000 0.0937245282
C   C57       1.0  0.11330  0.42310  0.38940  1.0000 -0.1287979535
C   C58       1.0  0.01999  0.31041  0.36270  1.0000 -0.170716949
C   C59       1.0  0.05522  0.26178  0.33935  1.0000 0.1379452439
C   C60       1.0  0.84181  0.09679  0.29470  1.0000 -0.1287979535
C   C61       1.0  0.77775  0.98405  0.27224  1.0000 -0.0348112045
C   C62       1.0  0.95816  0.06044  0.29801  1.0000 0.0673011931
C   C63       1.0  0.18320  0.32400  0.34300  1.0000 -0.170716949
C   C64       1.0  0.27640  0.43820  0.36990  1.0000 -0.1350275485
C   C65       1.0  0.51510  0.77890  0.36571  1.0000 -0.1633260419
C   C66       1.0  0.64130  0.83310  0.38520  1.0000 -0.0585366498
C   C67       1.0  0.79218  0.22722  0.46508  1.0000 0.5415745618
C   C68       1.0  0.89835  0.36805  0.48353  1.0000 -0.0218436896
C   C69       1.0  0.94833  0.39407  0.52732  1.0000 -0.1212510203
C   C70       1.0  0.04941  0.52499  0.54376  1.0000 -0.1212510203
C   C71       1.0  0.50546  0.76594  0.52946  1.0000 0.5333333926
C   C72       1.0  0.45845  0.67355  0.56902  1.0000 -0.0090452811
C   C73       1.0  0.37582  0.64658  0.60165  1.0000 -0.1140061823
C   C74       1.0  0.33380  0.56060  0.63720  1.0000 -0.1046545339
C   C75       1.0  0.37229  0.50331  0.64191  1.0000 -0.000776302
C   C76       1.0  0.32740  0.41120  0.68128  1.0000 0.5333333926
C   C77       1.0  0.44970  0.52630  0.60880  1.0000 -0.1212510203
C   C78       1.0  0.49510  0.61530  0.57280  1.0000 -0.1140061823
C   C79       1.0  0.89741  0.41099  0.11575  1.0000 -0.0452602451
C   C80       1.0  0.75409  0.33811  0.11513  1.0000 -0.1633260419
C   C81       1.0  0.61320  0.34560  0.07707  1.0000 -0.1921473016
C   C82       1.0  0.48902  0.24338  0.10672  1.0000 0.0937245282
C   C83       1.0  0.42310  0.11330  0.11060  1.0000 -0.1287979535
C   C84       1.0  0.31041  0.01999  0.13730  1.0000 -0.170716949
C   C85       1.0  0.26178  0.05522  0.16065  1.0000 0.1379452439
C   C86       1.0  0.09679  0.84181  0.20530  1.0000 -0.1287979535
C   C87       1.0  0.98405  0.77775  0.22776  1.0000 -0.0348112045
C   C88       1.0  0.06044  0.95816  0.20199  1.0000 0.0673011931
C   C89       1.0  0.32400  0.18320  0.15700  1.0000 -0.170716949
C   C90       1.0  0.43820  0.27640  0.13010  1.0000 -0.1350275485
C   C91       1.0  0.77890  0.51510  0.13429  1.0000 -0.1633260419
C   C92       1.0  0.83310  0.64130  0.11480  1.0000 -0.0585366498
C   C93       1.0  0.22722  0.79218  0.03492  1.0000 0.5415745618
C   C94       1.0  0.36805  0.89835  0.01647  1.0000 -0.0218436896
C   C95       1.0  0.39407  0.94833  0.97268  1.0000 -0.1287979535
C   C96       1.0  0.52499  0.04941  0.95624  1.0000 -0.1212510203
C   C97       1.0  0.76594  0.50546  0.97054  1.0000 0.5333333926
C   C98       1.0  0.67355  0.45845  0.93098  1.0000 -0.0090452811
C   C99       1.0  0.64658  0.37582  0.89835  1.0000 -0.1212510203
C   C100      1.0  0.56060  0.33380  0.86280  1.0000 -0.1046545339
C   C101      1.0  0.50331  0.37229  0.85809  1.0000 -0.000776302
C   C102      1.0  0.41120  0.32740  0.81872  1.0000 0.5333333926
C   C103      1.0  0.52630  0.44970  0.89120  1.0000 -0.1212510203
C   C104      1.0  0.61530  0.49510  0.92720  1.0000 -0.1140061823
N   N1        1.0  0.54542  0.04818  0.56947  1.0000 -0.5286172314
N   N2        1.0  0.28329  0.04151  0.59088  1.0000 -0.508809155
N   N3        1.0  0.57596  0.25704  0.59886  1.0000 -0.0829433707
N   N4        1.0  0.04182  0.85398  0.68825  1.0000 0.0013182581
N   N5        1.0  0.14928  0.03952  0.72549  1.0000 -0.2983944474
N   N6        1.0  0.04818  0.54542  0.93053  1.0000 -0.5286172314
N   N7        1.0  0.04151  0.28329  0.90912  1.0000 -0.508809155
N   N8        1.0  0.25704  0.57596  0.90114  1.0000 -0.0829433707
N   N9        1.0  0.85398  0.04182  0.81175  1.0000 0.0013182581
N   N10       1.0  0.03952  0.14928  0.77451  1.0000 -0.2983944474
N   N11       1.0  0.45458  0.95182  0.43053  1.0000 -0.5286172314
N   N12       1.0  0.71671  0.95849  0.40912  1.0000 -0.508809155
N   N13       1.0  0.42404  0.74296  0.40114  1.0000 -0.0829433707
N   N14       1.0  0.95818  0.14602  0.31175  1.0000 0.0013182581
N   N15       1.0  0.85072  0.96048  0.27451  1.0000 -0.2983944474
N   N16       1.0  0.95182  0.45458  0.06947  1.0000 -0.5286172314
N   N17       1.0  0.95849  0.71671  0.09088  1.0000 -0.508809155
N   N18       1.0  0.74296  0.42404  0.09886  1.0000 -0.0829433707
N   N19       1.0  0.14602  0.95818  0.18825  1.0000 0.0013182581
N   N20       1.0  0.96048  0.85072  0.22549  1.0000 -0.2983944474
O   O1        1.0  0.53869  0.18871  0.47475  1.0000 -0.5473978577
O   O2        1.0  0.41507  0.20733  0.49781  1.0000 -0.5401753543
O   O3        1.0  0.26242  0.86638  0.50559  1.0000 -0.5669657124
O   O4        1.0  0.23272  0.79048  0.57589  1.0000 -0.5669657124
O   O5        1.0  0.63560  0.64040  0.31621  1.0000 -0.5473978577
O   O6        1.0  0.74517  0.61003  0.28986  1.0000 -0.5286172314
O   O7        1.0  0.18871  0.53869  0.02525  1.0000 -0.5473978577
O   O8        1.0  0.20733  0.41507  0.00219  1.0000 -0.5401753543
O   O9        1.0  0.86638  0.26242  0.99441  1.0000 -0.5669657124
O   O10       1.0  0.79048  0.23272  0.92411  1.0000 -0.5669657124
O   O11       1.0  0.64040  0.63560  0.18379  1.0000 -0.5473978577
O   O12       1.0  0.61003  0.74517  0.21014  1.0000 -0.5286172314
O   O13       1.0  0.46131  0.81129  0.52525  1.0000 -0.5473978577
O   O14       1.0  0.58493  0.79267  0.50219  1.0000 -0.5401753543
O   O15       1.0  0.73758  0.13362  0.49441  1.0000 -0.5669657124
O   O16       1.0  0.76728  0.20952  0.42411  1.0000 -0.5669657124
O   O17       1.0  0.36440  0.35960  0.68379  1.0000 -0.5473978577
O   O18       1.0  0.25483  0.38997  0.71014  1.0000 -0.5286172314
O   O19       1.0  0.81129  0.46131  0.97475  1.0000 -0.5473978577
O   O20       1.0  0.79267  0.58493  0.99781  1.0000 -0.5401753543
O   O21       1.0  0.13362  0.73758  0.00559  1.0000 -0.5669657124
O   O22       1.0  0.20952  0.76728  0.07589  1.0000 -0.5669657124
O   O23       1.0  0.35960  0.36440  0.81621  1.0000 -0.5473978577
O   O24       1.0  0.38997  0.25483  0.78986  1.0000 -0.5286172314
