# DDEC6 charges by PACMAN v1.1 (https://github.com/mtap-research/PACMAN-charge/)
data_2017[DyCu][nan]3[ASR]1
_chemical_formula_sum              "Dy8 Cu16 H112 C168 I12 N28 O56"
_cell_length_a       9.287
_cell_length_b       23.164
_cell_length_c       30.643
_cell_angle_alpha    90
_cell_angle_beta     90
_cell_angle_gamma    90

_symmetry_space_group_name_H-M    "P 1"
_symmetry_Int_Tables_number       1

loop_
  _symmetry_equiv_pos_as_xyz
  'x, y, z'

loop_
  _atom_site_type_symbol
  _atom_site_label
  _atom_site_symmetry_multiplicity
  _atom_site_fract_x
  _atom_site_fract_y
  _atom_site_fract_z
  _atom_site_occupancy
  _atom_site_charge
Dy  Dy1       1.0  0.54209  0.56065  0.51550  1.0000 2.1506394057
Dy  Dy2       1.0  0.01182  0.53464  0.52165  1.0000 2.1506394057
Dy  Dy3       1.0  0.95791  0.43935  0.01550  1.0000 2.1506394057
Dy  Dy4       1.0  0.48818  0.46536  0.02165  1.0000 2.1506394057
Dy  Dy5       1.0  0.45791  0.06065  0.98450  1.0000 2.1506394057
Dy  Dy6       1.0  0.98818  0.03464  0.97835  1.0000 2.1506394057
Dy  Dy7       1.0  0.04209  0.93935  0.48450  1.0000 2.1506394057
Dy  Dy8       1.0  0.51182  0.96536  0.47835  1.0000 2.1506394057
Cu  Cu1       1.0  0.54428  0.88055  0.22259  1.0000 0.1787379889
Cu  Cu2       1.0  0.22043  0.76500  0.17632  1.0000 0.2010345343
Cu  Cu3       1.0  0.00645  0.64286  0.24924  1.0000 0.1945579855
Cu  Cu4       1.0  0.24454  0.71763  0.25730  1.0000 0.1692887752
Cu  Cu5       1.0  0.95572  0.11945  0.72259  1.0000 0.1787379889
Cu  Cu6       1.0  0.27957  0.23500  0.67632  1.0000 0.2010345343
Cu  Cu7       1.0  0.49355  0.35714  0.74924  1.0000 0.1945579855
Cu  Cu8       1.0  0.25546  0.28237  0.75730  1.0000 0.1692887752
Cu  Cu9       1.0  0.45572  0.38055  0.27741  1.0000 0.1787379889
Cu  Cu10      1.0  0.77957  0.26500  0.32368  1.0000 0.2010345343
Cu  Cu11      1.0  0.99355  0.14286  0.25076  1.0000 0.2010345343
Cu  Cu12      1.0  0.75546  0.21763  0.24270  1.0000 0.1692887752
Cu  Cu13      1.0  0.04428  0.61945  0.77741  1.0000 0.1787379889
Cu  Cu14      1.0  0.72043  0.73500  0.82368  1.0000 0.2010345343
Cu  Cu15      1.0  0.50645  0.85714  0.75076  1.0000 0.2010345343
Cu  Cu16      1.0  0.74454  0.78237  0.74270  1.0000 0.1692887752
H   H1        1.0  0.50350  0.81880  0.37830  1.0000 0.1295329838
H   H2        1.0  0.02800  0.53530  0.70540  1.0000 0.1065627643
H   H3        1.0  0.04160  0.59300  0.40600  1.0000 0.1474875767
H   H4        1.0  0.98450  0.32900  0.38370  1.0000 0.0992132805
H   H5        1.0  0.42160  0.44560  0.68220  1.0000 0.0992132805
H   H6        1.0  0.11460  0.60940  0.33540  1.0000 0.0992132805
H   H7        1.0  0.07380  0.81400  0.39440  1.0000 0.1383151293
H   H8        1.0  0.25030  0.67670  0.71700  1.0000 0.0992132805
H   H9        1.0  0.55450  0.41160  0.42060  1.0000 0.1295329838
H   H10       1.0  0.05820  0.75770  0.33200  1.0000 0.0891180718
H   H11       1.0  0.35260  0.66260  0.64890  1.0000 0.1383151293
H   H12       1.0  0.09490  0.40940  0.59760  1.0000 0.1383151293
H   H13       1.0  0.50340  0.36990  0.56820  1.0000 0.1383151293
H   H14       1.0  0.90190  0.42700  0.65560  1.0000 0.1295329838
H   H15       1.0  0.57220  0.34500  0.36550  1.0000 0.0891180718
H   H16       1.0  0.64850  0.64950  0.37330  1.0000 0.1383151293
H   H17       1.0  0.20530  0.41340  0.41890  1.0000 0.1383151293
H   H18       1.0  0.51970  0.49420  0.62450  1.0000 0.1383151293
H   H19       1.0  0.79070  0.37720  0.71140  1.0000 0.1065627643
H   H20       1.0  0.26400  0.36540  0.35610  1.0000 0.1065627643
H   H21       1.0  0.97840  0.39270  0.44110  1.0000 0.1383151293
H   H22       1.0  0.47360  0.76070  0.31660  1.0000 0.0891180718
H   H23       1.0  0.73600  0.66680  0.30410  1.0000 0.0992132805
H   H24       1.0  0.48870  0.29580  0.61710  1.0000 0.0992132805
H   H25       1.0  0.09850  0.33520  0.64850  1.0000 0.0992132805
H   H26       1.0  0.47880  0.49720  0.31350  1.0000 0.0992132805
H   H27       1.0  0.10390  0.52320  0.63530  1.0000 0.1474875767
H   H28       1.0  0.42920  0.54810  0.37610  1.0000 0.1474875767
H   H29       1.0  0.99650  0.18120  0.87830  1.0000 0.1295329838
H   H30       1.0  0.47200  0.46470  0.20540  1.0000 0.1065627643
H   H31       1.0  0.45840  0.40700  0.90600  1.0000 0.1474875767
H   H32       1.0  0.51550  0.67100  0.88370  1.0000 0.0992132805
H   H33       1.0  0.07840  0.55440  0.18220  1.0000 0.0992132805
H   H34       1.0  0.38540  0.39060  0.83540  1.0000 0.0992132805
H   H35       1.0  0.42620  0.18600  0.89440  1.0000 0.1383151293
H   H36       1.0  0.24970  0.32330  0.21700  1.0000 0.0992132805
H   H37       1.0  0.94550  0.58840  0.92060  1.0000 0.1295329838
H   H38       1.0  0.44180  0.24230  0.83200  1.0000 0.0891180718
H   H39       1.0  0.14740  0.33740  0.14890  1.0000 0.1383151293
H   H40       1.0  0.40510  0.59060  0.09760  1.0000 0.1383151293
H   H41       1.0  0.99660  0.63010  0.06820  1.0000 0.1383151293
H   H42       1.0  0.59810  0.57300  0.15560  1.0000 0.1295329838
H   H43       1.0  0.92780  0.65500  0.86550  1.0000 0.0891180718
H   H44       1.0  0.85150  0.35050  0.87330  1.0000 0.1383151293
H   H45       1.0  0.29470  0.58660  0.91890  1.0000 0.1383151293
H   H46       1.0  0.98030  0.50580  0.12450  1.0000 0.1383151293
H   H47       1.0  0.70930  0.62280  0.21140  1.0000 0.1065627643
H   H48       1.0  0.23600  0.63460  0.85610  1.0000 0.1065627643
H   H49       1.0  0.52160  0.60730  0.94110  1.0000 0.1383151293
H   H50       1.0  0.02640  0.23930  0.81660  1.0000 0.0891180718
H   H51       1.0  0.76400  0.33320  0.80410  1.0000 0.0992132805
H   H52       1.0  0.01130  0.70420  0.11710  1.0000 0.0992132805
H   H53       1.0  0.40150  0.66480  0.14850  1.0000 0.0992132805
H   H54       1.0  0.02120  0.50280  0.81350  1.0000 0.0992132805
H   H55       1.0  0.39610  0.47680  0.13530  1.0000 0.1474875767
H   H56       1.0  0.07080  0.45190  0.87610  1.0000 0.1474875767
H   H57       1.0  0.49650  0.31880  0.12170  1.0000 0.1295329838
H   H58       1.0  0.97200  0.03530  0.79460  1.0000 0.1065627643
H   H59       1.0  0.95840  0.09300  0.09400  1.0000 0.1474875767
H   H60       1.0  0.01550  0.82900  0.11630  1.0000 0.0992132805
H   H61       1.0  0.57840  0.94560  0.81780  1.0000 0.0992132805
H   H62       1.0  0.88540  0.10940  0.16460  1.0000 0.0992132805
H   H63       1.0  0.92620  0.31400  0.10560  1.0000 0.1383151293
H   H64       1.0  0.74970  0.17670  0.78300  1.0000 0.0992132805
H   H65       1.0  0.44550  0.91160  0.07940  1.0000 0.1295329838
H   H66       1.0  0.94180  0.25770  0.16800  1.0000 0.0891180718
H   H67       1.0  0.64740  0.16260  0.85110  1.0000 0.1383151293
H   H68       1.0  0.90510  0.90940  0.90240  1.0000 0.1383151293
H   H69       1.0  0.49660  0.86990  0.93180  1.0000 0.1383151293
H   H70       1.0  0.09810  0.92700  0.84440  1.0000 0.1295329838
H   H71       1.0  0.42780  0.84500  0.13450  1.0000 0.0891180718
H   H72       1.0  0.35150  0.14950  0.12670  1.0000 0.1383151293
H   H73       1.0  0.79470  0.91340  0.08110  1.0000 0.1383151293
H   H74       1.0  0.48030  0.99420  0.87550  1.0000 0.1383151293
H   H75       1.0  0.20930  0.87720  0.78860  1.0000 0.1065627643
H   H76       1.0  0.73600  0.86540  0.14390  1.0000 0.1065627643
H   H77       1.0  0.02160  0.89270  0.05890  1.0000 0.1383151293
H   H78       1.0  0.52640  0.26070  0.18340  1.0000 0.0891180718
H   H79       1.0  0.26400  0.16680  0.19590  1.0000 0.0992132805
H   H80       1.0  0.51130  0.79580  0.88290  1.0000 0.0992132805
H   H81       1.0  0.90150  0.83520  0.85150  1.0000 0.0992132805
H   H82       1.0  0.52120  0.99720  0.18650  1.0000 0.0992132805
H   H83       1.0  0.89610  0.02320  0.86470  1.0000 0.1474875767
H   H84       1.0  0.57080  0.04810  0.12390  1.0000 0.1474875767
H   H85       1.0  0.00350  0.68120  0.62170  1.0000 0.1295329838
H   H86       1.0  0.52800  0.96470  0.29460  1.0000 0.1065627643
H   H87       1.0  0.54160  0.90700  0.59400  1.0000 0.1474875767
H   H88       1.0  0.48450  0.17100  0.61630  1.0000 0.0992132805
H   H89       1.0  0.92160  0.05440  0.31780  1.0000 0.0992132805
H   H90       1.0  0.61460  0.89060  0.66460  1.0000 0.0992132805
H   H91       1.0  0.57380  0.68600  0.60560  1.0000 0.1383151293
H   H92       1.0  0.75030  0.82330  0.28300  1.0000 0.0992132805
H   H93       1.0  0.05450  0.08840  0.57940  1.0000 0.1295329838
H   H94       1.0  0.55820  0.74230  0.66800  1.0000 0.0891180718
H   H95       1.0  0.85260  0.83740  0.35110  1.0000 0.1383151293
H   H96       1.0  0.59490  0.09060  0.40240  1.0000 0.1383151293
H   H97       1.0  0.00340  0.13010  0.43180  1.0000 0.1383151293
H   H98       1.0  0.40190  0.07300  0.34440  1.0000 0.1295329838
H   H99       1.0  0.07220  0.15500  0.63450  1.0000 0.0891180718
H   H100      1.0  0.14850  0.85050  0.62670  1.0000 0.1383151293
H   H101      1.0  0.70530  0.08660  0.58110  1.0000 0.1383151293
H   H102      1.0  0.01970  0.00580  0.37550  1.0000 0.1383151293
H   H103      1.0  0.29070  0.12280  0.28860  1.0000 0.1065627643
H   H104      1.0  0.76400  0.13460  0.64390  1.0000 0.1065627643
H   H105      1.0  0.47840  0.10730  0.55890  1.0000 0.1383151293
H   H106      1.0  0.97360  0.73930  0.68340  1.0000 0.0891180718
H   H107      1.0  0.23600  0.83320  0.69590  1.0000 0.0992132805
H   H108      1.0  0.98870  0.20420  0.38290  1.0000 0.0992132805
H   H109      1.0  0.59850  0.16480  0.35150  1.0000 0.0992132805
H   H110      1.0  0.97880  0.00280  0.68650  1.0000 0.0992132805
H   H111      1.0  0.60390  0.97680  0.36470  1.0000 0.1474875767
H   H112      1.0  0.92920  0.95190  0.62390  1.0000 0.1474875767
C   C1        1.0  0.41230  0.80700  0.36950  1.0000 -0.159647228
C   C2        1.0  0.09070  0.56220  0.69340  1.0000 0.0603811769
C   C3        1.0  0.23860  0.59050  0.63447  1.0000 0.029001678
C   C4        1.0  0.72250  0.46360  0.63233  1.0000 0.0193151828
C   C5        1.0  0.97590  0.60680  0.38562  1.0000 -0.1430767369
C   C6        1.0  0.89700  0.34600  0.39100  1.0000 0.0534931908
C   C7        1.0  0.29000  0.82290  0.39250  1.0000 0.029001678
C   C8        1.0  0.26820  0.52150  0.44440  1.0000 0.6417909472
C   C9        1.0  0.76240  0.45640  0.47203  1.0000 0.6292835011
C   C10       1.0  0.30330  0.48790  0.40359  1.0000 0.029001678
C   C11       1.0  0.29840  0.44950  0.54670  1.0000 0.6292835011
C   C12       1.0  0.78210  0.59990  0.44301  1.0000 0.6292835011
C   C13       1.0  0.30070  0.39780  0.57760  1.0000 0.0193151828
C   C14       1.0  0.51920  0.44080  0.67650  1.0000 0.0684737299
C   C15       1.0  0.30330  0.86120  0.43298  1.0000 0.6417909472
C   C16       1.0  0.02000  0.61770  0.34310  1.0000 0.0684737299
C   C17       1.0  0.15640  0.80430  0.37890  1.0000 -0.1513372397
C   C18       1.0  0.76740  0.41130  0.43562  1.0000 0.029001678
C   C19       1.0  0.22360  0.64450  0.70070  1.0000 0.0806488667
C   C20       1.0  0.64330  0.39570  0.41340  1.0000 -0.1513372397
C   C21       1.0  0.14800  0.77040  0.34140  1.0000 0.0603811769
C   C22       1.0  0.83440  0.61650  0.39764  1.0000 0.029001678
C   C23       1.0  0.28380  0.63700  0.65940  1.0000 -0.1670423365
C   C24       1.0  0.17710  0.38690  0.60130  1.0000 -0.1513372397
C   C25       1.0  0.41850  0.36340  0.58350  1.0000 -0.1513372397
C   C26       1.0  0.80300  0.43030  0.65960  1.0000 -0.1513372397
C   C27       1.0  0.65570  0.35570  0.38010  1.0000 0.0684737299
C   C28       1.0  0.74350  0.64050  0.36650  1.0000 -0.1670423365
C   C29       1.0  0.26030  0.43180  0.39760  1.0000 -0.1793139
C   C30       1.0  0.57710  0.47030  0.64160  1.0000 -0.1430767369
C   C31       1.0  0.73500  0.40110  0.69380  1.0000 0.0684737299
C   C32       1.0  0.29870  0.40270  0.36010  1.0000 0.0603811769
C   C33       1.0  0.29780  0.58320  0.58850  1.0000 0.6292835011
C   C34       1.0  0.78640  0.49280  0.59241  1.0000 0.6244193225
C   C35       1.0  0.89510  0.38480  0.42540  1.0000 -0.1513372397
C   C36       1.0  0.39270  0.77230  0.33220  1.0000 0.0806488667
C   C37       1.0  0.79750  0.65090  0.32480  1.0000 0.0603811769
C   C38       1.0  0.40760  0.31870  0.61310  1.0000 0.0684737299
C   C39       1.0  0.17930  0.34130  0.63110  1.0000 0.0603811769
C   C40       1.0  0.42470  0.47960  0.33520  1.0000 0.0684737299
C   C41       1.0  0.13890  0.55390  0.65180  1.0000 -0.1430767369
C   C42       1.0  0.39160  0.51120  0.37240  1.0000 -0.159647228
C   C43       1.0  0.08770  0.19300  0.86950  1.0000 -0.159647228
C   C44       1.0  0.40930  0.43780  0.19340  1.0000 0.0603811769
C   C45       1.0  0.26140  0.40950  0.13447  1.0000 0.029001678
C   C46       1.0  0.77750  0.53640  0.13233  1.0000 0.0193151828
C   C47       1.0  0.52410  0.39320  0.88562  1.0000 -0.1430767369
C   C48       1.0  0.60300  0.65400  0.89100  1.0000 0.0534931908
C   C49       1.0  0.21000  0.17710  0.89250  1.0000 0.029001678
C   C50       1.0  0.23180  0.47850  0.94440  1.0000 0.6417909472
C   C51       1.0  0.73760  0.54360  0.97203  1.0000 0.6292835011
C   C52       1.0  0.19670  0.51210  0.90359  1.0000 0.0193151828
C   C53       1.0  0.20160  0.55050  0.04670  1.0000 0.6292835011
C   C54       1.0  0.71790  0.40010  0.94301  1.0000 0.6292835011
C   C55       1.0  0.19930  0.60220  0.07760  1.0000 0.0193151828
C   C56       1.0  0.98080  0.55920  0.17650  1.0000 0.0684737299
C   C57       1.0  0.19670  0.13880  0.93298  1.0000 0.6417909472
C   C58       1.0  0.48000  0.38230  0.84310  1.0000 0.0684737299
C   C59       1.0  0.34360  0.19570  0.87890  1.0000 -0.1513372397
C   C60       1.0  0.73260  0.58870  0.93562  1.0000 0.029001678
C   C61       1.0  0.27640  0.35550  0.20070  1.0000 0.0806488667
C   C62       1.0  0.85670  0.60430  0.91340  1.0000 -0.1513372397
C   C63       1.0  0.35200  0.22960  0.84140  1.0000 0.0603811769
C   C64       1.0  0.66560  0.38350  0.89764  1.0000 0.029001678
C   C65       1.0  0.21620  0.36300  0.15940  1.0000 -0.1670423365
C   C66       1.0  0.32290  0.61310  0.10130  1.0000 -0.1513372397
C   C67       1.0  0.08150  0.63660  0.08350  1.0000 -0.1513372397
C   C68       1.0  0.69700  0.56970  0.15960  1.0000 -0.1513372397
C   C69       1.0  0.84430  0.64430  0.88010  1.0000 0.0684737299
C   C70       1.0  0.75650  0.35950  0.86650  1.0000 -0.1670423365
C   C71       1.0  0.23970  0.56820  0.89760  1.0000 -0.1793139
C   C72       1.0  0.92290  0.52970  0.14160  1.0000 -0.1430767369
C   C73       1.0  0.76500  0.59890  0.19380  1.0000 0.0684737299
C   C74       1.0  0.20130  0.59730  0.86010  1.0000 0.0603811769
C   C75       1.0  0.20220  0.41680  0.08850  1.0000 0.6292835011
C   C76       1.0  0.71360  0.50720  0.09241  1.0000 0.6244193225
C   C77       1.0  0.60490  0.61520  0.92540  1.0000 -0.1513372397
C   C78       1.0  0.10730  0.22770  0.83220  1.0000 0.0806488667
C   C79       1.0  0.70250  0.34910  0.82480  1.0000 0.0603811769
C   C80       1.0  0.09240  0.68130  0.11310  1.0000 0.0684737299
C   C81       1.0  0.32070  0.65870  0.13110  1.0000 0.0603811769
C   C82       1.0  0.07530  0.52040  0.83520  1.0000 0.0684737299
C   C83       1.0  0.36110  0.44610  0.15180  1.0000 -0.1430767369
C   C84       1.0  0.10840  0.48880  0.87240  1.0000 -0.159647228
C   C85       1.0  0.58770  0.30700  0.13050  1.0000 -0.159647228
C   C86       1.0  0.90930  0.06220  0.80660  1.0000 0.0603811769
C   C87       1.0  0.76140  0.09050  0.86553  1.0000 0.029001678
C   C88       1.0  0.27750  0.96360  0.86767  1.0000 0.0193151828
C   C89       1.0  0.02410  0.10680  0.11438  1.0000 -0.1430767369
C   C90       1.0  0.10300  0.84600  0.10900  1.0000 0.0534931908
C   C91       1.0  0.71000  0.32290  0.10750  1.0000 0.029001678
C   C92       1.0  0.73180  0.02150  0.05560  1.0000 0.6417909472
C   C93       1.0  0.23760  0.95640  0.02797  1.0000 0.6292835011
C   C94       1.0  0.69670  0.98790  0.09641  1.0000 0.029001678
C   C95       1.0  0.70160  0.94950  0.95330  1.0000 0.6292835011
C   C96       1.0  0.21790  0.09990  0.05699  1.0000 0.6292835011
C   C97       1.0  0.69930  0.89780  0.92240  1.0000 0.0193151828
C   C98       1.0  0.48080  0.94080  0.82350  1.0000 0.0684737299
C   C99       1.0  0.69670  0.36120  0.06702  1.0000 0.6417909472
C   C100      1.0  0.98000  0.11770  0.15690  1.0000 0.0684737299
C   C101      1.0  0.84360  0.30430  0.12110  1.0000 -0.1513372397
C   C102      1.0  0.23260  0.91130  0.06438  1.0000 0.029001678
C   C103      1.0  0.77640  0.14450  0.79930  1.0000 0.0806488667
C   C104      1.0  0.35670  0.89570  0.08660  1.0000 -0.1513372397
C   C105      1.0  0.85200  0.27040  0.15860  1.0000 0.0603811769
C   C106      1.0  0.16560  0.11650  0.10236  1.0000 0.029001678
C   C107      1.0  0.71620  0.13700  0.84060  1.0000 -0.1670423365
C   C108      1.0  0.82290  0.88690  0.89870  1.0000 -0.1513372397
C   C109      1.0  0.58150  0.86340  0.91650  1.0000 -0.1513372397
C   C110      1.0  0.19700  0.93030  0.84040  1.0000 -0.1513372397
C   C111      1.0  0.34430  0.85570  0.11990  1.0000 0.0684737299
C   C112      1.0  0.25650  0.14050  0.13350  1.0000 -0.1670423365
C   C113      1.0  0.73970  0.93180  0.10240  1.0000 -0.1793139
C   C114      1.0  0.42290  0.97030  0.85840  1.0000 -0.1430767369
C   C115      1.0  0.26500  0.90110  0.80620  1.0000 0.0684737299
C   C116      1.0  0.70130  0.90270  0.13990  1.0000 0.0603811769
C   C117      1.0  0.70220  0.08320  0.91150  1.0000 0.6292835011
C   C118      1.0  0.21360  0.99280  0.90759  1.0000 0.6244193225
C   C119      1.0  0.10490  0.88480  0.07460  1.0000 -0.1513372397
C   C120      1.0  0.60730  0.27230  0.16780  1.0000 0.0806488667
C   C121      1.0  0.20250  0.15090  0.17520  1.0000 0.0603811769
C   C122      1.0  0.59240  0.81870  0.88690  1.0000 0.0684737299
C   C123      1.0  0.82070  0.84130  0.86890  1.0000 0.0603811769
C   C124      1.0  0.57530  0.97960  0.16480  1.0000 0.0684737299
C   C125      1.0  0.86110  0.05390  0.84820  1.0000 -0.1430767369
C   C126      1.0  0.60840  0.01120  0.12760  1.0000 -0.159647228
C   C127      1.0  0.91230  0.69300  0.63050  1.0000 -0.159647228
C   C128      1.0  0.59070  0.93780  0.30660  1.0000 0.0603811769
C   C129      1.0  0.73860  0.90950  0.36553  1.0000 0.029001678
C   C130      1.0  0.22250  0.03640  0.36767  1.0000 0.0193151828
C   C131      1.0  0.47590  0.89320  0.61438  1.0000 -0.1430767369
C   C132      1.0  0.39700  0.15400  0.60900  1.0000 0.0534931908
C   C133      1.0  0.79000  0.67710  0.60750  1.0000 0.029001678
C   C134      1.0  0.76820  0.97850  0.55560  1.0000 0.6417909472
C   C135      1.0  0.26240  0.04360  0.52797  1.0000 0.6292835011
C   C136      1.0  0.80330  0.01210  0.59641  1.0000 0.029001678
C   C137      1.0  0.79840  0.05050  0.45330  1.0000 0.6292835011
C   C138      1.0  0.28210  0.90010  0.55699  1.0000 0.6292835011
C   C139      1.0  0.80070  0.10220  0.42240  1.0000 0.0193151828
C   C140      1.0  0.01920  0.05920  0.32350  1.0000 0.0684737299
C   C141      1.0  0.80330  0.63880  0.56702  1.0000 0.6417909472
C   C142      1.0  0.52000  0.88230  0.65690  1.0000 0.0684737299
C   C143      1.0  0.65640  0.69570  0.62110  1.0000 -0.1513372397
C   C144      1.0  0.26740  0.08870  0.56438  1.0000 0.029001678
C   C145      1.0  0.72360  0.85550  0.29930  1.0000 0.0806488667
C   C146      1.0  0.14330  0.10430  0.58660  1.0000 -0.1513372397
C   C147      1.0  0.64800  0.72960  0.65860  1.0000 0.0603811769
C   C148      1.0  0.33440  0.88350  0.60236  1.0000 0.029001678
C   C149      1.0  0.78380  0.86300  0.34060  1.0000 -0.1670423365
C   C150      1.0  0.67710  0.11310  0.39870  1.0000 -0.1513372397
C   C151      1.0  0.91850  0.13660  0.41650  1.0000 -0.1513372397
C   C152      1.0  0.30300  0.06970  0.34040  1.0000 -0.1513372397
C   C153      1.0  0.15570  0.14430  0.61990  1.0000 0.0684737299
C   C154      1.0  0.24350  0.85950  0.63350  1.0000 -0.1670423365
C   C155      1.0  0.76030  0.06820  0.60240  1.0000 -0.1793139
C   C156      1.0  0.07710  0.02970  0.35840  1.0000 -0.1430767369
C   C157      1.0  0.23500  0.09890  0.30620  1.0000 0.0684737299
C   C158      1.0  0.79870  0.09730  0.63990  1.0000 0.0603811769
C   C159      1.0  0.79780  0.91680  0.41150  1.0000 0.6292835011
C   C160      1.0  0.28640  0.00720  0.40759  1.0000 0.6244193225
C   C161      1.0  0.39510  0.11520  0.57460  1.0000 -0.1513372397
C   C162      1.0  0.89270  0.72770  0.66780  1.0000 0.0806488667
C   C163      1.0  0.29750  0.84910  0.67520  1.0000 0.0603811769
C   C164      1.0  0.90760  0.18130  0.38690  1.0000 0.0684737299
C   C165      1.0  0.67930  0.15870  0.36890  1.0000 0.0603811769
C   C166      1.0  0.92470  0.02040  0.66480  1.0000 0.0684737299
C   C167      1.0  0.63890  0.94610  0.34820  1.0000 -0.1430767369
C   C168      1.0  0.89160  0.98880  0.62760  1.0000 -0.159647228
I   I1        1.0  0.28945  0.60774  0.25115  1.0000 -0.4527124257
I   I2        1.0  0.47821  0.77006  0.21443  1.0000 -0.4105543063
I   I3        1.0  0.98694  0.75531  0.22464  1.0000 -0.3981136771
I   I4        1.0  0.21055  0.39226  0.75115  1.0000 -0.4527124257
I   I5        1.0  0.02179  0.22994  0.71443  1.0000 -0.4105543063
I   I6        1.0  0.51306  0.24469  0.72464  1.0000 -0.3981136771
I   I7        1.0  0.71055  0.10774  0.24885  1.0000 -0.4527124257
I   I8        1.0  0.52179  0.27006  0.28557  1.0000 -0.4105543063
I   I9        1.0  0.01306  0.25531  0.27536  1.0000 -0.3981136771
I   I10       1.0  0.78945  0.89226  0.74885  1.0000 -0.4527124257
I   I11       1.0  0.97821  0.72994  0.78557  1.0000 -0.4105543063
I   I12       1.0  0.48694  0.74469  0.77536  1.0000 -0.3981136771
N   N1        1.0  0.77940  0.33120  0.36758  1.0000 -0.1793139
N   N2        1.0  0.13030  0.60790  0.71762  1.0000 -0.1670423365
N   N3        1.0  0.38280  0.42510  0.32918  1.0000 -0.1793139
N   N4        1.0  0.29250  0.30560  0.63597  1.0000 -0.1793139
N   N5        1.0  0.26510  0.75540  0.31837  1.0000 -0.1793139
N   N6        1.0  0.59480  0.40560  0.70257  1.0000 -0.1793139
N   N7        1.0  0.93270  0.63930  0.31303  1.0000 -0.1856646281
N   N8        1.0  0.72060  0.66880  0.86758  1.0000 -0.1793139
N   N9        1.0  0.36970  0.39210  0.21762  1.0000 -0.1670423365
N   N10       1.0  0.11720  0.57490  0.82918  1.0000 -0.1793139
N   N11       1.0  0.20750  0.69440  0.13597  1.0000 -0.1856646281
N   N12       1.0  0.23490  0.24460  0.81837  1.0000 -0.1793139
N   N13       1.0  0.90520  0.59440  0.20257  1.0000 -0.1793139
N   N14       1.0  0.56730  0.36070  0.81303  1.0000 -0.1793139
N   N15       1.0  0.22060  0.83120  0.13242  1.0000 -0.1793139
N   N16       1.0  0.86970  0.10790  0.78238  1.0000 -0.1670423365
N   N17       1.0  0.61720  0.92510  0.17082  1.0000 -0.1793139
N   N18       1.0  0.70750  0.80560  0.86403  1.0000 -0.1793139
N   N19       1.0  0.73490  0.25540  0.18163  1.0000 -0.1793139
N   N20       1.0  0.40520  0.90560  0.79743  1.0000 -0.1793139
N   N21       1.0  0.06730  0.13930  0.18697  1.0000 -0.1856646281
N   N22       1.0  0.27940  0.16880  0.63242  1.0000 -0.1793139
N   N23       1.0  0.63030  0.89210  0.28238  1.0000 -0.1670423365
N   N24       1.0  0.88280  0.07490  0.67082  1.0000 -0.1793139
N   N25       1.0  0.79250  0.19440  0.36403  1.0000 -0.1793139
N   N26       1.0  0.76510  0.74460  0.68163  1.0000 -0.1793139
N   N27       1.0  0.09480  0.09440  0.29743  1.0000 -0.1793139
N   N28       1.0  0.43270  0.86070  0.68697  1.0000 -0.1793139
O   O1        1.0  0.17830  0.46140  0.53042  1.0000 -0.6591198684
O   O2        1.0  0.19350  0.86644  0.45607  1.0000 -0.6490201544
O   O3        1.0  0.37080  0.54570  0.46252  1.0000 -0.6591198684
O   O4        1.0  0.13850  0.52480  0.45533  1.0000 -0.6490201544
O   O5        1.0  0.41670  0.47380  0.53991  1.0000 -0.6400715054
O   O6        1.0  0.43120  0.58610  0.58375  1.0000 -0.6400715054
O   O7        1.0  0.42580  0.88470  0.43879  1.0000 -0.671447301
O   O8        1.0  0.87470  0.46280  0.49313  1.0000 -0.6490201544
O   O9        1.0  0.92180  0.48900  0.58694  1.0000 -0.671447301
O   O10       1.0  0.64750  0.48260  0.47658  1.0000 -0.6256785335
O   O11       1.0  0.20810  0.57320  0.55864  1.0000 -0.6912450137
O   O12       1.0  0.70310  0.51880  0.56675  1.0000 -0.6789078505
O   O13       1.0  0.88080  0.58510  0.46975  1.0000 -0.7161534519
O   O14       1.0  0.65210  0.60150  0.45048  1.0000 -0.6210208477
O   O15       1.0  0.32170  0.53860  0.03042  1.0000 -0.6591198684
O   O16       1.0  0.30650  0.13356  0.95607  1.0000 -0.6490201544
O   O17       1.0  0.12920  0.45430  0.96252  1.0000 -0.6591198684
O   O18       1.0  0.36150  0.47520  0.95533  1.0000 -0.6490201544
O   O19       1.0  0.08330  0.52620  0.03991  1.0000 -0.6400715054
O   O20       1.0  0.06880  0.41390  0.08375  1.0000 -0.6400715054
O   O21       1.0  0.07420  0.11530  0.93879  1.0000 -0.671447301
O   O22       1.0  0.62530  0.53720  0.99313  1.0000 -0.6490201544
O   O23       1.0  0.57820  0.51100  0.08694  1.0000 -0.671447301
O   O24       1.0  0.85250  0.51740  0.97658  1.0000 -0.6256785335
O   O25       1.0  0.29190  0.42680  0.05864  1.0000 -0.6912450137
O   O26       1.0  0.79690  0.48120  0.06675  1.0000 -0.6789078505
O   O27       1.0  0.61920  0.41490  0.96975  1.0000 -0.7161534519
O   O28       1.0  0.84790  0.39850  0.95048  1.0000 -0.6210208477
O   O29       1.0  0.82170  0.96140  0.96958  1.0000 -0.6591198684
O   O30       1.0  0.80650  0.36644  0.04393  1.0000 -0.6490201544
O   O31       1.0  0.62920  0.04570  0.03748  1.0000 -0.6591198684
O   O32       1.0  0.86150  0.02480  0.04467  1.0000 -0.6490201544
O   O33       1.0  0.58330  0.97380  0.96009  1.0000 -0.6400715054
O   O34       1.0  0.56880  0.08610  0.91625  1.0000 -0.6400715054
O   O35       1.0  0.57420  0.38470  0.06121  1.0000 -0.671447301
O   O36       1.0  0.12530  0.96280  0.00687  1.0000 -0.6490201544
O   O37       1.0  0.07820  0.98900  0.91306  1.0000 -0.671447301
O   O38       1.0  0.35250  0.98260  0.02342  1.0000 -0.6256785335
O   O39       1.0  0.79190  0.07320  0.94136  1.0000 -0.6912450137
O   O40       1.0  0.29690  0.01880  0.93325  1.0000 -0.6789078505
O   O41       1.0  0.11920  0.08510  0.03025  1.0000 -0.7161534519
O   O42       1.0  0.34790  0.10150  0.04952  1.0000 -0.6210208477
O   O43       1.0  0.67830  0.03860  0.46958  1.0000 -0.6591198684
O   O44       1.0  0.69350  0.63356  0.54393  1.0000 -0.6490201544
O   O45       1.0  0.87080  0.95430  0.53748  1.0000 -0.6591198684
O   O46       1.0  0.63850  0.97520  0.54467  1.0000 -0.6490201544
O   O47       1.0  0.91670  0.02620  0.46009  1.0000 -0.6400715054
O   O48       1.0  0.93120  0.91390  0.41625  1.0000 -0.6400715054
O   O49       1.0  0.92580  0.61530  0.56121  1.0000 -0.671447301
O   O50       1.0  0.37470  0.03720  0.50687  1.0000 -0.6490201544
O   O51       1.0  0.42180  0.01100  0.41306  1.0000 -0.671447301
O   O52       1.0  0.14750  0.01740  0.52342  1.0000 -0.6256785335
O   O53       1.0  0.70810  0.92680  0.44136  1.0000 -0.6912450137
O   O54       1.0  0.20310  0.98120  0.43325  1.0000 -0.6789078505
O   O55       1.0  0.38080  0.91490  0.53025  1.0000 -0.7161534519
O   O56       1.0  0.15210  0.89850  0.54952  1.0000 -0.6210208477
