# DDEC6 charges by PACMAN v1.1 (https://github.com/mtap-research/PACMAN-charge/)
data_2017[Eu][nan]3[ASR]10
_chemical_formula_sum              "Eu8 H48 C108 N12 O60"
_cell_length_a       16.472
_cell_length_b       17.297
_cell_length_c       20.853
_cell_angle_alpha    90
_cell_angle_beta     109.499
_cell_angle_gamma    90

_symmetry_space_group_name_H-M    "P 1"
_symmetry_Int_Tables_number       1

loop_
  _symmetry_equiv_pos_as_xyz
  'x, y, z'

loop_
  _atom_site_type_symbol
  _atom_site_label
  _atom_site_symmetry_multiplicity
  _atom_site_fract_x
  _atom_site_fract_y
  _atom_site_fract_z
  _atom_site_occupancy
  _atom_site_charge
Eu  Eu1       1.0  0.74437  0.66154  0.79197  1.0000 2.0465323961
Eu  Eu2       1.0  0.00663  0.67489  0.67357  1.0000 2.0465323961
Eu  Eu3       1.0  0.25563  0.16154  0.70803  1.0000 2.0465323961
Eu  Eu4       1.0  0.99337  0.17489  0.82643  1.0000 2.0465323961
Eu  Eu5       1.0  0.25563  0.33846  0.20803  1.0000 2.0465323961
Eu  Eu6       1.0  0.99337  0.32511  0.32643  1.0000 2.0411634878
Eu  Eu7       1.0  0.74437  0.83846  0.29197  1.0000 2.0411634878
Eu  Eu8       1.0  0.00663  0.82511  0.17357  1.0000 2.0465323961
H   H1        1.0  0.47680  0.70040  0.54550  1.0000 0.288222386
H   H2        1.0  0.26980  0.79470  0.41130  1.0000 0.2815898047
H   H3        1.0  0.42460  0.56950  0.92550  1.0000 0.2815898047
H   H4        1.0  0.62070  0.69510  0.61040  1.0000 0.1324015345
H   H5        1.0  0.54810  0.78230  0.42070  1.0000 0.1324015345
H   H6        1.0  0.79860  0.75750  0.53000  1.0000 0.139381927
H   H7        1.0  0.19970  0.73450  0.54200  1.0000 0.139381927
H   H8        1.0  0.95290  0.79700  0.44720  1.0000 0.139381927
H   H9        1.0  0.12900  0.81430  0.35200  1.0000 0.1214808509
H   H10       1.0  0.17290  0.43290  0.71010  1.0000 0.139381927
H   H11       1.0  0.39280  0.38380  0.85700  1.0000 0.1324015345
H   H12       1.0  0.29470  0.59640  0.84420  1.0000 0.1214808509
H   H13       1.0  0.52320  0.20040  0.95450  1.0000 0.288222386
H   H14       1.0  0.73020  0.29470  0.08870  1.0000 0.2815898047
H   H15       1.0  0.57540  0.06950  0.57450  1.0000 0.2815898047
H   H16       1.0  0.37930  0.19510  0.88960  1.0000 0.1324015345
H   H17       1.0  0.45190  0.28230  0.07930  1.0000 0.1324015345
H   H18       1.0  0.20140  0.25750  0.97000  1.0000 0.139381927
H   H19       1.0  0.80030  0.23450  0.95800  1.0000 0.139381927
H   H20       1.0  0.04710  0.29700  0.05280  1.0000 0.139381927
H   H21       1.0  0.87100  0.31430  0.14800  1.0000 0.1214808509
H   H22       1.0  0.82710  0.93290  0.78990  1.0000 0.139381927
H   H23       1.0  0.60720  0.88380  0.64300  1.0000 0.1324015345
H   H24       1.0  0.70530  0.09640  0.65580  1.0000 0.1214808509
H   H25       1.0  0.52320  0.29960  0.45450  1.0000 0.288222386
H   H26       1.0  0.73020  0.20530  0.58870  1.0000 0.2815898047
H   H27       1.0  0.57540  0.43050  0.07450  1.0000 0.2815898047
H   H28       1.0  0.37930  0.30490  0.38960  1.0000 0.1324015345
H   H29       1.0  0.45190  0.21770  0.57930  1.0000 0.1324015345
H   H30       1.0  0.20140  0.24250  0.47000  1.0000 0.139381927
H   H31       1.0  0.80030  0.26550  0.45800  1.0000 0.139381927
H   H32       1.0  0.04710  0.20300  0.55280  1.0000 0.139381927
H   H33       1.0  0.87100  0.18570  0.64800  1.0000 0.1214808509
H   H34       1.0  0.82710  0.56710  0.28990  1.0000 0.139381927
H   H35       1.0  0.60720  0.61620  0.14300  1.0000 0.1324015345
H   H36       1.0  0.70530  0.40360  0.15580  1.0000 0.1214808509
H   H37       1.0  0.47680  0.79960  0.04550  1.0000 0.288222386
H   H38       1.0  0.26980  0.70530  0.91130  1.0000 0.2815898047
H   H39       1.0  0.42460  0.93050  0.42550  1.0000 0.2815898047
H   H40       1.0  0.62070  0.80490  0.11040  1.0000 0.1324015345
H   H41       1.0  0.54810  0.71770  0.92070  1.0000 0.1324015345
H   H42       1.0  0.79860  0.74250  0.03000  1.0000 0.139381927
H   H43       1.0  0.19970  0.76550  0.04200  1.0000 0.139381927
H   H44       1.0  0.95290  0.70300  0.94720  1.0000 0.139381927
H   H45       1.0  0.12900  0.68570  0.85200  1.0000 0.1214808509
H   H46       1.0  0.17290  0.06710  0.21010  1.0000 0.139381927
H   H47       1.0  0.39280  0.11620  0.35700  1.0000 0.1324015345
H   H48       1.0  0.29470  0.90360  0.34420  1.0000 0.1214808509
C   C1        1.0  0.78860  0.69640  0.64530  1.0000 0.6632680879
C   C2        1.0  0.72180  0.72210  0.58060  1.0000 -0.0267247339
C   C3        1.0  0.63500  0.71480  0.57410  1.0000 -0.2015692643
C   C4        1.0  0.56990  0.73570  0.51570  1.0000 0.2084955211
C   C5        1.0  0.59100  0.76630  0.46020  1.0000 -0.1707293015
C   C6        1.0  0.67780  0.77160  0.46630  1.0000 -0.0064511922
C   C7        1.0  0.74110  0.75130  0.52630  1.0000 -0.1018907602
C   C8        1.0  0.70060  0.79860  0.40670  1.0000 0.5694281458
C   C9        1.0  0.41170  0.75570  0.46810  1.0000 0.3793134489
C   C10       1.0  0.33120  0.73680  0.48780  1.0000 0.3793134489
C   C11       1.0  0.17620  0.77480  0.44740  1.0000 0.1914110244
C   C12       1.0  0.15720  0.75390  0.50370  1.0000 -0.160310322
C   C13       1.0  0.07160  0.76220  0.50270  1.0000 0.014397888
C   C14       1.0  0.00890  0.79110  0.44700  1.0000 -0.1080801472
C   C15       1.0  0.03040  0.81180  0.38930  1.0000 -0.0206687565
C   C16       1.0  0.11460  0.80210  0.39030  1.0000 -0.208531627
C   C17       1.0  0.05140  0.73610  0.56540  1.0000 0.5576861934
C   C18       1.0  0.96470  0.84310  0.32680  1.0000 0.6740126049
C   C19       1.0  0.15060  0.57890  0.73880  1.0000 0.5694281458
C   C20       1.0  0.22180  0.52420  0.77160  1.0000 -0.0064511922
C   C21       1.0  0.21890  0.44850  0.74770  1.0000 -0.1018907602
C   C22       1.0  0.28290  0.39700  0.77880  1.0000 -0.0021071522
C   C23       1.0  0.35030  0.41950  0.83530  1.0000 -0.1707293015
C   C24       1.0  0.35580  0.49310  0.86010  1.0000 0.2084955211
C   C25       1.0  0.29120  0.54600  0.82790  1.0000 -0.2015692643
C   C26       1.0  0.27870  0.31490  0.75190  1.0000 0.5694281458
C   C27       1.0  0.47490  0.47590  0.96920  1.0000 0.3724303082
C   C28       1.0  0.21140  0.19640  0.85470  1.0000 0.6632680879
C   C29       1.0  0.27820  0.22210  0.91940  1.0000 -0.0267247339
C   C30       1.0  0.36500  0.21480  0.92590  1.0000 -0.2015692643
C   C31       1.0  0.43010  0.23570  0.98430  1.0000 0.2084955211
C   C32       1.0  0.40900  0.26630  0.03980  1.0000 -0.1707293015
C   C33       1.0  0.32220  0.27160  0.03370  1.0000 -0.0064511922
C   C34       1.0  0.25890  0.25130  0.97370  1.0000 -0.1018907602
C   C35       1.0  0.29940  0.29860  0.09330  1.0000 0.5694281458
C   C36       1.0  0.58830  0.25570  0.03190  1.0000 0.3793134489
C   C37       1.0  0.66880  0.23680  0.01220  1.0000 0.3793134489
C   C38       1.0  0.82380  0.27480  0.05260  1.0000 0.1914110244
C   C39       1.0  0.84280  0.25390  0.99630  1.0000 -0.160310322
C   C40       1.0  0.92840  0.26220  0.99730  1.0000 0.0159699093
C   C41       1.0  0.99110  0.29110  0.05300  1.0000 -0.1080801472
C   C42       1.0  0.96960  0.31180  0.11070  1.0000 -0.0206687565
C   C43       1.0  0.88540  0.30210  0.10970  1.0000 -0.208531627
C   C44       1.0  0.94860  0.23610  0.93460  1.0000 0.5576861934
C   C45       1.0  0.03530  0.34310  0.17320  1.0000 0.675169392
C   C46       1.0  0.84940  0.07890  0.76120  1.0000 0.5694281458
C   C47       1.0  0.77820  0.02420  0.72840  1.0000 -0.0064511922
C   C48       1.0  0.78110  0.94850  0.75230  1.0000 -0.1018907602
C   C49       1.0  0.71710  0.89700  0.72120  1.0000 -0.0021071522
C   C50       1.0  0.64970  0.91950  0.66470  1.0000 -0.1707293015
C   C51       1.0  0.64420  0.99310  0.63990  1.0000 0.2084955211
C   C52       1.0  0.70880  0.04600  0.67210  1.0000 -0.2015692643
C   C53       1.0  0.72130  0.81490  0.74810  1.0000 0.5694281458
C   C54       1.0  0.52510  0.97590  0.53080  1.0000 0.3724303082
C   C55       1.0  0.21140  0.30360  0.35470  1.0000 0.6632680879
C   C56       1.0  0.27820  0.27790  0.41940  1.0000 -0.0267247339
C   C57       1.0  0.36500  0.28520  0.42590  1.0000 -0.2015692643
C   C58       1.0  0.43010  0.26430  0.48430  1.0000 0.215253158
C   C59       1.0  0.40900  0.23370  0.53980  1.0000 -0.1707293015
C   C60       1.0  0.32220  0.22840  0.53370  1.0000 -0.0064511922
C   C61       1.0  0.25890  0.24870  0.47370  1.0000 -0.1080801472
C   C62       1.0  0.29940  0.20140  0.59330  1.0000 0.5694281458
C   C63       1.0  0.58830  0.24430  0.53190  1.0000 0.3793134489
C   C64       1.0  0.66880  0.26320  0.51220  1.0000 0.3793134489
C   C65       1.0  0.82380  0.22520  0.55260  1.0000 0.1914110244
C   C66       1.0  0.84280  0.24610  0.49630  1.0000 -0.160310322
C   C67       1.0  0.92840  0.23780  0.49730  1.0000 0.0159699093
C   C68       1.0  0.99110  0.20890  0.55300  1.0000 -0.1080801472
C   C69       1.0  0.96960  0.18820  0.61070  1.0000 -0.0206687565
C   C70       1.0  0.88540  0.19790  0.60970  1.0000 -0.208531627
C   C71       1.0  0.94860  0.26390  0.43460  1.0000 0.5576861934
C   C72       1.0  0.03530  0.15690  0.67320  1.0000 0.6740126049
C   C73       1.0  0.84940  0.42110  0.26120  1.0000 0.5750428871
C   C74       1.0  0.77820  0.47580  0.22840  1.0000 -0.0064511922
C   C75       1.0  0.78110  0.55150  0.25230  1.0000 -0.1018907602
C   C76       1.0  0.71710  0.60300  0.22120  1.0000 -0.0021071522
C   C77       1.0  0.64970  0.58050  0.16470  1.0000 -0.1707293015
C   C78       1.0  0.64420  0.50690  0.13990  1.0000 0.2084955211
C   C79       1.0  0.70880  0.45400  0.17210  1.0000 -0.2015692643
C   C80       1.0  0.72130  0.68510  0.24810  1.0000 0.5694281458
C   C81       1.0  0.52510  0.52410  0.03080  1.0000 0.3724303082
C   C82       1.0  0.78860  0.80360  0.14530  1.0000 0.6632680879
C   C83       1.0  0.72180  0.77790  0.08060  1.0000 -0.0267247339
C   C84       1.0  0.63500  0.78520  0.07410  1.0000 -0.2015692643
C   C85       1.0  0.56990  0.76430  0.01570  1.0000 0.215253158
C   C86       1.0  0.59100  0.73370  0.96020  1.0000 -0.1707293015
C   C87       1.0  0.67780  0.72840  0.96630  1.0000 -0.0064511922
C   C88       1.0  0.74110  0.74870  0.02630  1.0000 -0.1018907602
C   C89       1.0  0.70060  0.70140  0.90670  1.0000 0.5694281458
C   C90       1.0  0.41170  0.74430  0.96810  1.0000 0.3793134489
C   C91       1.0  0.33120  0.76320  0.98780  1.0000 0.3793134489
C   C92       1.0  0.17620  0.72520  0.94740  1.0000 0.1914110244
C   C93       1.0  0.15720  0.74610  0.00370  1.0000 -0.160310322
C   C94       1.0  0.07160  0.73780  0.00270  1.0000 0.014397888
C   C95       1.0  0.00890  0.70890  0.94700  1.0000 -0.1080801472
C   C96       1.0  0.03040  0.68820  0.88930  1.0000 -0.0206687565
C   C97       1.0  0.11460  0.69790  0.89030  1.0000 -0.208531627
C   C98       1.0  0.05140  0.76390  0.06540  1.0000 0.5576861934
C   C99       1.0  0.96470  0.65690  0.82680  1.0000 0.6740126049
C   C100      1.0  0.15060  0.92110  0.23880  1.0000 0.5694281458
C   C101      1.0  0.22180  0.97580  0.27160  1.0000 -0.0064511922
C   C102      1.0  0.21890  0.05150  0.24770  1.0000 -0.1018907602
C   C103      1.0  0.28290  0.10300  0.27880  1.0000 -0.0021071522
C   C104      1.0  0.35030  0.08050  0.33530  1.0000 -0.1707293015
C   C105      1.0  0.35580  0.00690  0.36010  1.0000 0.2084955211
C   C106      1.0  0.29120  0.95400  0.32790  1.0000 -0.2015692643
C   C107      1.0  0.27870  0.18510  0.25190  1.0000 0.5694281458
C   C108      1.0  0.47490  0.02410  0.46920  1.0000 0.3724303082
N   N1        1.0  0.48400  0.72750  0.51330  1.0000 -0.3094078987
N   N2        1.0  0.26190  0.77130  0.44500  1.0000 -0.3094078987
N   N3        1.0  0.42000  0.52020  0.91990  1.0000 -0.337499158
N   N4        1.0  0.51600  0.22750  0.98670  1.0000 -0.3094078987
N   N5        1.0  0.73810  0.27130  0.05500  1.0000 -0.3094078987
N   N6        1.0  0.58000  0.02020  0.58010  1.0000 -0.337499158
N   N7        1.0  0.51600  0.27250  0.48670  1.0000 -0.3094078987
N   N8        1.0  0.73810  0.22870  0.55500  1.0000 -0.3094078987
N   N9        1.0  0.58000  0.47980  0.08010  1.0000 -0.337499158
N   N10       1.0  0.48400  0.77250  0.01330  1.0000 -0.3094078987
N   N11       1.0  0.26190  0.72870  0.94500  1.0000 -0.3094078987
N   N12       1.0  0.42000  0.97980  0.41990  1.0000 -0.337499158
O   O1        1.0  0.76640  0.65800  0.68650  1.0000 -0.6697334661
O   O2        1.0  0.86420  0.71560  0.65110  1.0000 -0.6697334661
O   O3        1.0  0.77900  0.80270  0.41190  1.0000 -0.6188419922
O   O4        1.0  0.64290  0.81290  0.35150  1.0000 -0.6410552086
O   O5        1.0  0.40670  0.79400  0.41800  1.0000 -0.4571135505
O   O6        1.0  0.33450  0.69770  0.53620  1.0000 -0.4101819336
O   O7        1.0  0.10360  0.69560  0.60890  1.0000 -0.6312558076
O   O8        1.0  0.98180  0.75990  0.57110  1.0000 -0.6410552086
O   O9        1.0  0.98450  0.85850  0.27580  1.0000 -0.6697334661
O   O10       1.0  0.89100  0.85970  0.33050  1.0000 -0.6833850756
O   O11       1.0  0.08220  0.55290  0.69690  1.0000 -0.6312558076
O   O12       1.0  0.15910  0.64860  0.75520  1.0000 -0.6312558076
O   O13       1.0  0.21010  0.29330  0.70640  1.0000 -0.6312558076
O   O14       1.0  0.34280  0.27090  0.77330  1.0000 -0.6312558076
O   O15       1.0  0.48920  0.40820  0.96480  1.0000 -0.4422139093
O   O16       1.0  0.23360  0.15800  0.81350  1.0000 -0.6697334661
O   O17       1.0  0.13580  0.21560  0.84890  1.0000 -0.6697334661
O   O18       1.0  0.22100  0.30270  0.08810  1.0000 -0.6188419922
O   O19       1.0  0.35710  0.31290  0.14850  1.0000 -0.6410552086
O   O20       1.0  0.59330  0.29400  0.08200  1.0000 -0.4571135505
O   O21       1.0  0.66550  0.19770  0.96380  1.0000 -0.4101819336
O   O22       1.0  0.89640  0.19560  0.89110  1.0000 -0.6312558076
O   O23       1.0  0.01820  0.25990  0.92890  1.0000 -0.6410552086
O   O24       1.0  0.01550  0.35850  0.22420  1.0000 -0.6697334661
O   O25       1.0  0.10900  0.35970  0.16950  1.0000 -0.6833850756
O   O26       1.0  0.91780  0.05290  0.80310  1.0000 -0.6410552086
O   O27       1.0  0.84090  0.14860  0.74480  1.0000 -0.6312558076
O   O28       1.0  0.78990  0.79330  0.79360  1.0000 -0.6312558076
O   O29       1.0  0.65720  0.77090  0.72670  1.0000 -0.6312558076
O   O30       1.0  0.51080  0.90820  0.53520  1.0000 -0.4422139093
O   O31       1.0  0.23360  0.34200  0.31350  1.0000 -0.6697334661
O   O32       1.0  0.13580  0.28440  0.34890  1.0000 -0.6697334661
O   O33       1.0  0.22100  0.19730  0.58810  1.0000 -0.6188419922
O   O34       1.0  0.35710  0.18710  0.64850  1.0000 -0.6410552086
O   O35       1.0  0.59330  0.20600  0.58200  1.0000 -0.4571135505
O   O36       1.0  0.66550  0.30230  0.46380  1.0000 -0.4101819336
O   O37       1.0  0.89640  0.30440  0.39110  1.0000 -0.6312558076
O   O38       1.0  0.01820  0.24010  0.42890  1.0000 -0.6312558076
O   O39       1.0  0.01550  0.14150  0.72420  1.0000 -0.6697334661
O   O40       1.0  0.10900  0.14030  0.66950  1.0000 -0.6833850756
O   O41       1.0  0.91780  0.44710  0.30310  1.0000 -0.6312558076
O   O42       1.0  0.84090  0.35140  0.24480  1.0000 -0.6312558076
O   O43       1.0  0.78990  0.70670  0.29360  1.0000 -0.6312558076
O   O44       1.0  0.65720  0.72910  0.22670  1.0000 -0.6312558076
O   O45       1.0  0.51080  0.59180  0.03520  1.0000 -0.4422139093
O   O46       1.0  0.76640  0.84200  0.18650  1.0000 -0.6697334661
O   O47       1.0  0.86420  0.78440  0.15110  1.0000 -0.6697334661
O   O48       1.0  0.77900  0.69730  0.91190  1.0000 -0.6188419922
O   O49       1.0  0.64290  0.68710  0.85150  1.0000 -0.6410552086
O   O50       1.0  0.40670  0.70600  0.91800  1.0000 -0.4571135505
O   O51       1.0  0.33450  0.80230  0.03620  1.0000 -0.4101819336
O   O52       1.0  0.10360  0.80440  0.10890  1.0000 -0.6312558076
O   O53       1.0  0.98180  0.74010  0.07110  1.0000 -0.6312558076
O   O54       1.0  0.98450  0.64150  0.77580  1.0000 -0.6697334661
O   O55       1.0  0.89100  0.64030  0.83050  1.0000 -0.6833850756
O   O56       1.0  0.08220  0.94710  0.19690  1.0000 -0.6312558076
O   O57       1.0  0.15910  0.85140  0.25520  1.0000 -0.6312558076
O   O58       1.0  0.21010  0.20670  0.20640  1.0000 -0.6312558076
O   O59       1.0  0.34280  0.22910  0.27330  1.0000 -0.6312558076
O   O60       1.0  0.48920  0.09180  0.46480  1.0000 -0.4422139093
