# DDEC6 charges by PACMAN v1.1 (https://github.com/mtap-research/PACMAN-charge/)
data_2017[Zn][nan]3[ASR]17
_chemical_formula_sum              "Zn8 H52 C104 N24 O40"
_cell_length_a       18.1172
_cell_length_b       18.1172
_cell_length_c       30.293
_cell_angle_alpha    67.1181
_cell_angle_beta     112.882
_cell_angle_gamma    123.077

_symmetry_space_group_name_H-M    "P 1"
_symmetry_Int_Tables_number       1

loop_
  _symmetry_equiv_pos_as_xyz
  'x, y, z'

loop_
  _atom_site_type_symbol
  _atom_site_label
  _atom_site_symmetry_multiplicity
  _atom_site_fract_x
  _atom_site_fract_y
  _atom_site_fract_z
  _atom_site_occupancy
  _atom_site_charge
Zn  Zn1       1.0  0.60462  0.39746  0.98278  1.0000 0.9407408324
Zn  Zn2       1.0  0.39746  0.60462  0.51722  1.0000 0.9407408324
Zn  Zn3       1.0  0.39538  0.60254  0.01722  1.0000 0.9407408324
Zn  Zn4       1.0  0.60254  0.39538  0.48278  1.0000 0.9407408324
Zn  Zn5       1.0  0.79022  0.52252  0.93094  1.0000 0.9468091664
Zn  Zn6       1.0  0.52252  0.79022  0.56906  1.0000 0.9468091664
Zn  Zn7       1.0  0.20978  0.47748  0.06906  1.0000 0.9468091664
Zn  Zn8       1.0  0.47748  0.20978  0.43094  1.0000 0.9468091664
H   H1        1.0  0.13220  0.32720  0.30410  1.0000 0.3037923214
H   H2        1.0  0.32720  0.13220  0.19590  1.0000 0.3037923214
H   H3        1.0  0.86780  0.67280  0.69590  1.0000 0.3053723958
H   H4        1.0  0.67280  0.86780  0.80410  1.0000 0.3053723958
H   H5        1.0  0.82540  0.34780  0.21700  1.0000 0.2891129193
H   H6        1.0  0.34780  0.82540  0.28300  1.0000 0.2891129193
H   H7        1.0  0.17460  0.65220  0.78300  1.0000 0.2891129193
H   H8        1.0  0.65220  0.17460  0.71700  1.0000 0.2891129193
H   H9        1.0  0.00140  0.39700  0.40410  1.0000 0.2891129193
H   H10       1.0  0.39700  0.00140  0.09590  1.0000 0.2891129193
H   H11       1.0  0.99860  0.60300  0.59590  1.0000 0.2891129193
H   H12       1.0  0.60300  0.99860  0.90410  1.0000 0.2891129193
H   H13       1.0  0.24980  0.29220  0.35230  1.0000 0.1462273461
H   H14       1.0  0.29220  0.24980  0.14770  1.0000 0.1462273461
H   H15       1.0  0.75020  0.70780  0.64770  1.0000 0.1462273461
H   H16       1.0  0.70780  0.75020  0.85230  1.0000 0.1390190716
H   H17       1.0  0.41940  0.41500  0.46420  1.0000 0.1462273461
H   H18       1.0  0.41500  0.41940  0.03580  1.0000 0.1462273461
H   H19       1.0  0.58060  0.58500  0.53580  1.0000 0.1462273461
H   H20       1.0  0.58500  0.58060  0.96420  1.0000 0.1462273461
H   H21       1.0  0.19440  0.44180  0.39100  1.0000 0.1290451127
H   H22       1.0  0.44180  0.19440  0.10900  1.0000 0.1290451127
H   H23       1.0  0.80560  0.55820  0.60900  1.0000 0.1290451127
H   H24       1.0  0.55820  0.80560  0.89100  1.0000 0.1290451127
H   H25       1.0  0.02140  0.37720  0.19900  1.0000 0.121943082
H   H26       1.0  0.37720  0.02140  0.30100  1.0000 0.121943082
H   H27       1.0  0.97860  0.62280  0.80100  1.0000 0.121943082
H   H28       1.0  0.62280  0.97860  0.69900  1.0000 0.121943082
H   H29       1.0  0.94570  0.43450  0.05190  1.0000 0.1390190716
H   H30       1.0  0.43450  0.94570  0.44810  1.0000 0.1390190716
H   H31       1.0  0.05430  0.56550  0.94810  1.0000 0.1390190716
H   H32       1.0  0.56550  0.05430  0.55190  1.0000 0.1390190716
H   H33       1.0  0.78780  0.39080  0.13270  1.0000 0.1390190716
H   H34       1.0  0.39080  0.78780  0.36730  1.0000 0.1390190716
H   H35       1.0  0.21220  0.60920  0.86730  1.0000 0.1390190716
H   H36       1.0  0.60920  0.21220  0.63270  1.0000 0.1390190716
H   H37       1.0  0.78110  0.32050  0.32910  1.0000 0.1390190716
H   H38       1.0  0.32050  0.78110  0.17090  1.0000 0.1290451127
H   H39       1.0  0.21890  0.67950  0.67090  1.0000 0.1290451127
H   H40       1.0  0.67950  0.21890  0.82910  1.0000 0.1390190716
H   H41       1.0  0.66700  0.31200  0.34790  1.0000 0.1390190716
H   H42       1.0  0.31200  0.66700  0.15210  1.0000 0.1390190716
H   H43       1.0  0.33300  0.68800  0.65210  1.0000 0.1462273461
H   H44       1.0  0.68800  0.33300  0.84790  1.0000 0.1390190716
H   H45       1.0  0.83600  0.42860  0.45970  1.0000 0.1390190716
H   H46       1.0  0.42860  0.83600  0.04030  1.0000 0.1390190716
H   H47       1.0  0.16400  0.57140  0.54030  1.0000 0.1390190716
H   H48       1.0  0.57140  0.16400  0.95970  1.0000 0.1390190716
H   H49       1.0  0.95340  0.44340  0.44160  1.0000 0.121943082
H   H50       1.0  0.44340  0.95340  0.05840  1.0000 0.121943082
H   H51       1.0  0.04660  0.55660  0.55840  1.0000 0.121943082
H   H52       1.0  0.55660  0.04660  0.94160  1.0000 0.121943082
C   C1        1.0  0.06340  0.35760  0.31820  1.0000 0.5194891331
C   C2        1.0  0.35760  0.06340  0.18180  1.0000 0.5194891331
C   C3        1.0  0.93660  0.64240  0.68180  1.0000 0.5194891331
C   C4        1.0  0.64240  0.93660  0.81820  1.0000 0.5194891331
C   C5        1.0  0.97360  0.37660  0.34190  1.0000 0.5301341725
C   C6        1.0  0.37660  0.97360  0.15810  1.0000 0.5301341725
C   C7        1.0  0.02640  0.62340  0.65810  1.0000 0.5301341725
C   C8        1.0  0.62340  0.02640  0.84190  1.0000 0.5301341725
C   C9        1.0  0.93720  0.35780  0.26510  1.0000 0.5301341725
C   C10       1.0  0.35780  0.93720  0.23490  1.0000 0.5301341725
C   C11       1.0  0.06280  0.64220  0.73490  1.0000 0.5301341725
C   C12       1.0  0.64220  0.06280  0.76510  1.0000 0.5301341725
C   C13       1.0  0.21170  0.36370  0.36580  1.0000 0.1910864351
C   C14       1.0  0.36370  0.21170  0.13420  1.0000 0.1910864351
C   C15       1.0  0.78830  0.63630  0.63420  1.0000 0.1910864351
C   C16       1.0  0.63630  0.78830  0.86580  1.0000 0.1910864351
C   C17       1.0  0.26590  0.32890  0.37250  1.0000 -0.1898384455
C   C18       1.0  0.32890  0.26590  0.12750  1.0000 -0.1898384455
C   C19       1.0  0.73410  0.67110  0.62750  1.0000 -0.1898384455
C   C20       1.0  0.67110  0.73410  0.87250  1.0000 -0.1898384455
C   C21       1.0  0.34650  0.34730  0.40950  1.0000 0.0127636933
C   C22       1.0  0.34730  0.34650  0.09050  1.0000 0.0127636933
C   C23       1.0  0.65350  0.65270  0.59050  1.0000 0.0127636933
C   C24       1.0  0.65270  0.65350  0.90950  1.0000 0.0127636933
C   C25       1.0  0.36730  0.40230  0.43900  1.0000 -0.0933541569
C   C26       1.0  0.40230  0.36730  0.06100  1.0000 -0.0933541569
C   C27       1.0  0.63270  0.59770  0.56100  1.0000 -0.0933541569
C   C28       1.0  0.59770  0.63270  0.93900  1.0000 -0.0933541569
C   C29       1.0  0.31420  0.43600  0.43160  1.0000 0.0200242407
C   C30       1.0  0.43600  0.31420  0.06840  1.0000 0.0200242407
C   C31       1.0  0.68580  0.56400  0.56840  1.0000 0.0200242407
C   C32       1.0  0.56400  0.68580  0.93160  1.0000 0.0200242407
C   C33       1.0  0.23190  0.41830  0.39500  1.0000 -0.1802882745
C   C34       1.0  0.41830  0.23190  0.10500  1.0000 -0.1802882745
C   C35       1.0  0.76810  0.58170  0.60500  1.0000 -0.1802882745
C   C36       1.0  0.58170  0.76810  0.89500  1.0000 -0.1802882745
C   C37       1.0  0.34560  0.50400  0.46240  1.0000 0.5607241032
C   C38       1.0  0.50400  0.34560  0.03760  1.0000 0.5607241032
C   C39       1.0  0.65440  0.49600  0.53760  1.0000 0.5607241032
C   C40       1.0  0.49600  0.65440  0.96240  1.0000 0.5607241032
C   C41       1.0  0.41040  0.31080  0.41940  1.0000 0.5469592449
C   C42       1.0  0.31080  0.41040  0.08060  1.0000 0.5469592449
C   C43       1.0  0.58960  0.68920  0.58060  1.0000 0.5469592449
C   C44       1.0  0.68920  0.58960  0.91940  1.0000 0.5469592449
C   C45       1.0  0.90370  0.38130  0.17460  1.0000 0.2197003004
C   C46       1.0  0.38130  0.90370  0.32540  1.0000 0.2197003004
C   C47       1.0  0.09630  0.61870  0.82540  1.0000 0.2197003004
C   C48       1.0  0.61870  0.09630  0.67460  1.0000 0.2197003004
C   C49       1.0  0.98020  0.38760  0.17050  1.0000 -0.1671131987
C   C50       1.0  0.38760  0.98020  0.32950  1.0000 -0.1671131987
C   C51       1.0  0.01980  0.61240  0.82950  1.0000 -0.1671131987
C   C52       1.0  0.61240  0.01980  0.67050  1.0000 -0.1671131987
C   C53       1.0  0.99760  0.40900  0.12500  1.0000 -0.0271224297
C   C54       1.0  0.40900  0.99760  0.37500  1.0000 -0.0271224297
C   C55       1.0  0.00240  0.59100  0.87500  1.0000 -0.0271224297
C   C56       1.0  0.59100  0.00240  0.62500  1.0000 -0.0271224297
C   C57       1.0  0.08320  0.42260  0.12180  1.0000 0.5654171345
C   C58       1.0  0.42260  0.08320  0.37820  1.0000 0.5607241032
C   C59       1.0  0.91680  0.57740  0.87820  1.0000 0.5607241032
C   C60       1.0  0.57740  0.91680  0.62180  1.0000 0.5654171345
C   C61       1.0  0.93530  0.42090  0.08250  1.0000 -0.0985111526
C   C62       1.0  0.42090  0.93530  0.41750  1.0000 -0.0985111526
C   C63       1.0  0.06470  0.57910  0.91750  1.0000 -0.0985111526
C   C64       1.0  0.57910  0.06470  0.58250  1.0000 -0.0985111526
C   C65       1.0  0.85580  0.41200  0.08620  1.0000 0.0030997543
C   C66       1.0  0.41200  0.85580  0.41380  1.0000 0.0030997543
C   C67       1.0  0.14420  0.58800  0.91380  1.0000 0.0030997543
C   C68       1.0  0.58800  0.14420  0.58620  1.0000 0.0030997543
C   C69       1.0  0.78790  0.42910  0.03930  1.0000 0.5985400316
C   C70       1.0  0.42910  0.78790  0.46070  1.0000 0.5985400316
C   C71       1.0  0.21210  0.57090  0.96070  1.0000 0.5985400316
C   C72       1.0  0.57090  0.21210  0.53930  1.0000 0.5985400316
C   C73       1.0  0.83990  0.39430  0.13110  1.0000 -0.1962815511
C   C74       1.0  0.39430  0.83990  0.36890  1.0000 -0.1962815511
C   C75       1.0  0.16010  0.60570  0.86890  1.0000 -0.1962815511
C   C76       1.0  0.60570  0.16010  0.63110  1.0000 -0.1962815511
C   C77       1.0  0.88210  0.37910  0.38450  1.0000 0.2614969176
C   C78       1.0  0.37910  0.88210  0.11550  1.0000 0.2614969176
C   C79       1.0  0.11790  0.62090  0.61550  1.0000 0.2614969176
C   C80       1.0  0.62090  0.11790  0.88450  1.0000 0.2614969176
C   C81       1.0  0.79300  0.34140  0.35600  1.0000 -0.1802882745
C   C82       1.0  0.34140  0.79300  0.14400  1.0000 -0.1802882745
C   C83       1.0  0.20700  0.65860  0.64400  1.0000 -0.1802882745
C   C84       1.0  0.65860  0.20700  0.85600  1.0000 -0.1802882745
C   C85       1.0  0.72500  0.33540  0.36770  1.0000 -0.0707048734
C   C86       1.0  0.33540  0.72500  0.13230  1.0000 -0.0707048734
C   C87       1.0  0.27500  0.66460  0.63230  1.0000 -0.0707048734
C   C88       1.0  0.66460  0.27500  0.86770  1.0000 -0.0707048734
C   C89       1.0  0.73910  0.36350  0.40880  1.0000 -0.0359679877
C   C90       1.0  0.36350  0.73910  0.09120  1.0000 -0.0359679877
C   C91       1.0  0.26090  0.63650  0.59120  1.0000 -0.0359679877
C   C92       1.0  0.63650  0.26090  0.90880  1.0000 -0.0359679877
C   C93       1.0  0.82500  0.40520  0.43410  1.0000 -0.0707048734
C   C94       1.0  0.40520  0.82500  0.06590  1.0000 -0.0707048734
C   C95       1.0  0.17500  0.59480  0.56590  1.0000 -0.0707048734
C   C96       1.0  0.59480  0.17500  0.93410  1.0000 -0.0707048734
C   C97       1.0  0.89510  0.41410  0.42340  1.0000 -0.20531237
C   C98       1.0  0.41410  0.89510  0.07660  1.0000 -0.20531237
C   C99       1.0  0.10490  0.58590  0.57660  1.0000 -0.20531237
C   C100      1.0  0.58590  0.10490  0.92340  1.0000 -0.20531237
C   C101      1.0  0.65430  0.34110  0.42330  1.0000 0.5850137112
C   C102      1.0  0.34110  0.65430  0.07670  1.0000 0.5850137112
C   C103      1.0  0.34570  0.65890  0.57670  1.0000 0.5850137112
C   C104      1.0  0.65890  0.34570  0.92330  1.0000 0.5850137112
N   N1        1.0  0.04800  0.37200  0.35330  1.0000 -0.4999431732
N   N2        1.0  0.37200  0.04800  0.14670  1.0000 -0.4943493518
N   N3        1.0  0.95200  0.62800  0.64670  1.0000 -0.4999431732
N   N4        1.0  0.62800  0.95200  0.85330  1.0000 -0.4999431732
N   N5        1.0  0.00550  0.34870  0.27318  1.0000 -0.4804906014
N   N6        1.0  0.34870  0.00550  0.22682  1.0000 -0.4804906014
N   N7        1.0  0.99450  0.65130  0.72682  1.0000 -0.4804906014
N   N8        1.0  0.65130  0.99450  0.77318  1.0000 -0.4804906014
N   N9        1.0  0.90970  0.36710  0.29794  1.0000 -0.5581700864
N   N10       1.0  0.36710  0.90970  0.20206  1.0000 -0.5581700864
N   N11       1.0  0.09030  0.63290  0.70206  1.0000 -0.5581700864
N   N12       1.0  0.63290  0.09030  0.79794  1.0000 -0.5581700864
N   N13       1.0  0.13320  0.34700  0.32601  1.0000 -0.3221273298
N   N14       1.0  0.34700  0.13320  0.17399  1.0000 -0.3221273298
N   N15       1.0  0.86680  0.65300  0.67399  1.0000 -0.3221273298
N   N16       1.0  0.65300  0.86680  0.82601  1.0000 -0.3221273298
N   N17       1.0  0.87950  0.36010  0.21893  1.0000 -0.355860329
N   N18       1.0  0.36010  0.87950  0.28107  1.0000 -0.355860329
N   N19       1.0  0.12050  0.63990  0.78107  1.0000 -0.355860329
N   N20       1.0  0.63990  0.12050  0.71893  1.0000 -0.355860329
N   N21       1.0  0.95630  0.38530  0.37910  1.0000 -0.3221273298
N   N22       1.0  0.38530  0.95630  0.12090  1.0000 -0.3221273298
N   N23       1.0  0.04370  0.61470  0.62090  1.0000 -0.3221273298
N   N24       1.0  0.61470  0.04370  0.87910  1.0000 -0.3221273298
O   O1        1.0  0.46630  0.31410  0.45380  1.0000 -0.4484630885
O   O2        1.0  0.31410  0.46630  0.04620  1.0000 -0.4484630885
O   O3        1.0  0.53370  0.68590  0.54620  1.0000 -0.4484630885
O   O4        1.0  0.68590  0.53370  0.95380  1.0000 -0.4484630885
O   O5        1.0  0.37552  0.24488  0.39718  1.0000 -0.4999431732
O   O6        1.0  0.24488  0.37552  0.10282  1.0000 -0.4943493518
O   O7        1.0  0.62448  0.75512  0.60282  1.0000 -0.4999431732
O   O8        1.0  0.75512  0.62448  0.89718  1.0000 -0.4999431732
O   O9        1.0  0.28570  0.51130  0.47000  1.0000 -0.5581700864
O   O10       1.0  0.51130  0.28570  0.03000  1.0000 -0.5581700864
O   O11       1.0  0.71430  0.48870  0.53000  1.0000 -0.5581700864
O   O12       1.0  0.48870  0.71430  0.97000  1.0000 -0.5581700864
O   O13       1.0  0.42660  0.54580  0.48090  1.0000 -0.4999431732
O   O14       1.0  0.54580  0.42660  0.01910  1.0000 -0.4999431732
O   O15       1.0  0.57340  0.45420  0.51910  1.0000 -0.4999431732
O   O16       1.0  0.45420  0.57340  0.98090  1.0000 -0.4999431732
O   O17       1.0  0.14350  0.41390  0.16047  1.0000 -0.552302337
O   O18       1.0  0.41390  0.14350  0.33953  1.0000 -0.552302337
O   O19       1.0  0.85650  0.58610  0.83953  1.0000 -0.552302337
O   O20       1.0  0.58610  0.85650  0.66047  1.0000 -0.552302337
O   O21       1.0  0.09510  0.44190  0.07840  1.0000 -0.5367679807
O   O22       1.0  0.44190  0.09510  0.42160  1.0000 -0.5367679807
O   O23       1.0  0.90490  0.55810  0.92160  1.0000 -0.5367679807
O   O24       1.0  0.55810  0.90490  0.57840  1.0000 -0.5367679807
O   O25       1.0  0.81940  0.46400  0.00018  1.0000 -0.5796210828
O   O26       1.0  0.46400  0.81940  0.49982  1.0000 -0.5796210828
O   O27       1.0  0.18060  0.53600  0.99982  1.0000 -0.5796210828
O   O28       1.0  0.53600  0.18060  0.50018  1.0000 -0.5796210828
O   O29       1.0  0.71040  0.40460  0.04128  1.0000 -0.5063622358
O   O30       1.0  0.40460  0.71040  0.45872  1.0000 -0.5063622358
O   O31       1.0  0.28960  0.59540  0.95872  1.0000 -0.5063622358
O   O32       1.0  0.59540  0.28960  0.54128  1.0000 -0.4999431732
O   O33       1.0  0.58020  0.30060  0.39949  1.0000 -0.4999431732
O   O34       1.0  0.30060  0.58020  0.10051  1.0000 -0.4999431732
O   O35       1.0  0.41980  0.69940  0.60051  1.0000 -0.4999431732
O   O36       1.0  0.69940  0.41980  0.89949  1.0000 -0.4999431732
O   O37       1.0  0.67710  0.37790  0.45690  1.0000 -0.5367679807
O   O38       1.0  0.37790  0.67710  0.04310  1.0000 -0.5367679807
O   O39       1.0  0.32290  0.62210  0.54310  1.0000 -0.5367679807
O   O40       1.0  0.62210  0.32290  0.95690  1.0000 -0.5367679807
