# DDEC6 charges by PACMAN v1.1 (https://github.com/mtap-research/PACMAN-charge/)
data_2017[V][nan]3[ASR]9
_chemical_formula_sum              "V4 H16 C32 O20"
_cell_length_a       12.2559
_cell_length_b       12.2559
_cell_length_c       12.2559
_cell_angle_alpha    103.925
_cell_angle_beta     103.925
_cell_angle_gamma    121.244

_symmetry_space_group_name_H-M    "P 1"
_symmetry_Int_Tables_number       1

loop_
  _symmetry_equiv_pos_as_xyz
  'x, y, z'

loop_
  _atom_site_type_symbol
  _atom_site_label
  _atom_site_symmetry_multiplicity
  _atom_site_fract_x
  _atom_site_fract_y
  _atom_site_fract_z
  _atom_site_occupancy
  _atom_site_charge
V   V1        1.0  0.19170  0.80830  0.00000  1.0000 1.6318864523
V   V2        1.0  0.05830  0.55830  0.11660  1.0000 1.6318864523
V   V3        1.0  0.44170  0.94170  0.88340  1.0000 1.6318864523
V   V4        1.0  0.80830  0.19170  0.00000  1.0000 1.6318864523
H   H1        1.0  0.12610  0.12610  0.00000  1.0000 0.1432006954
H   H2        1.0  0.12390  0.62390  0.50000  1.0000 0.1432006954
H   H3        1.0  0.87390  0.87390  0.00000  1.0000 0.1432006954
H   H4        1.0  0.37610  0.87610  0.50000  1.0000 0.1432006954
H   H5        1.0  0.48053  0.28897  0.95480  1.0000 0.1270911544
H   H6        1.0  0.76947  0.22427  0.30844  1.0000 0.1270911544
H   H7        1.0  0.71103  0.51947  0.04520  1.0000 0.1270911544
H   H8        1.0  0.77573  0.23053  0.69156  1.0000 0.1270911544
H   H9        1.0  0.53897  0.08417  0.30844  1.0000 0.1270911544
H   H10       1.0  0.47427  0.66583  0.95480  1.0000 0.1270911544
H   H11       1.0  0.91583  0.46103  0.69156  1.0000 0.1270911544
H   H12       1.0  0.33417  0.52573  0.04520  1.0000 0.1270911544
H   H13       1.0  0.43100  0.87500  0.05600  1.0000 0.4128188043
H   H14       1.0  0.81900  0.37500  0.94400  1.0000 0.4128188043
H   H15       1.0  0.12500  0.56900  0.94400  1.0000 0.4128188043
H   H16       1.0  0.62500  0.18100  0.05600  1.0000 0.4128188043
C   C1        1.0  0.29271  0.06147  0.95112  1.0000 0.6139095723
C   C2        1.0  0.95729  0.40841  0.26876  1.0000 0.6139095723
C   C3        1.0  0.93853  0.70729  0.04888  1.0000 0.6139095723
C   C4        1.0  0.59159  0.04271  0.73124  1.0000 0.6139095723
C   C5        1.0  0.31147  0.86035  0.26876  1.0000 0.6139095723
C   C6        1.0  0.65841  0.88965  0.95112  1.0000 0.6139095723
C   C7        1.0  0.13965  0.68853  0.73124  1.0000 0.6139095723
C   C8        1.0  0.11035  0.34159  0.04888  1.0000 0.6139095723
C   C9        1.0  0.30472  0.19404  0.97854  1.0000 -0.0270100293
C   C10       1.0  0.94528  0.42382  0.38932  1.0000 -0.0270100293
C   C11       1.0  0.80596  0.69528  0.02146  1.0000 -0.0270100293
C   C12       1.0  0.57618  0.05472  0.61068  1.0000 -0.0270100293
C   C13       1.0  0.44404  0.96550  0.38932  1.0000 -0.0270100293
C   C14       1.0  0.67382  0.78450  0.97854  1.0000 -0.0270100293
C   C15       1.0  0.03450  0.55596  0.61068  1.0000 -0.0270100293
C   C16       1.0  0.21550  0.32618  0.02146  1.0000 -0.0270100293
C   C17       1.0  0.20346  0.20346  0.00000  1.0000 -0.0976200775
C   C18       1.0  0.04654  0.54654  0.50000  1.0000 -0.0976200775
C   C19       1.0  0.79654  0.79654  0.00000  1.0000 -0.0976200775
C   C20       1.0  0.45346  0.95346  0.50000  1.0000 -0.0976200775
C   C21       1.0  0.42658  0.31236  0.98044  1.0000 -0.1669596584
C   C22       1.0  0.82342  0.30386  0.38578  1.0000 -0.1669596584
C   C23       1.0  0.68764  0.57342  0.01956  1.0000 -0.1669596584
C   C24       1.0  0.69614  0.17658  0.61422  1.0000 -0.1669596584
C   C25       1.0  0.56236  0.08192  0.38578  1.0000 -0.1669596584
C   C26       1.0  0.55386  0.66808  0.98044  1.0000 -0.1669596584
C   C27       1.0  0.91808  0.43764  0.61422  1.0000 -0.1669596584
C   C28       1.0  0.33192  0.44614  0.01956  1.0000 -0.1669596584
C   C29       1.0  0.43621  0.43621  0.00000  1.0000 0.0662657226
C   C30       1.0  0.81379  0.31379  0.50000  1.0000 0.0662657226
C   C31       1.0  0.56379  0.56379  0.00000  1.0000 0.0662657226
C   C32       1.0  0.68621  0.18621  0.50000  1.0000 0.0662657226
O   O1        1.0  0.36984  0.87500  0.99484  1.0000 -0.9638173879
O   O2        1.0  0.88016  0.37500  0.00516  1.0000 -0.9638173879
O   O3        1.0  0.12500  0.63016  0.00516  1.0000 -0.9638173879
O   O4        1.0  0.62500  0.11984  0.99484  1.0000 -0.9638173879
O   O5        1.0  0.35754  0.04562  0.89132  1.0000 -0.604031465
O   O6        1.0  0.89246  0.28378  0.18808  1.0000 -0.604031465
O   O7        1.0  0.95438  0.64246  0.10868  1.0000 -0.604031465
O   O8        1.0  0.71622  0.10754  0.81192  1.0000 -0.604031465
O   O9        1.0  0.29562  0.90430  0.18808  1.0000 -0.604031465
O   O10       1.0  0.53378  0.84570  0.89132  1.0000 -0.6050034464
O   O11       1.0  0.09570  0.70438  0.81192  1.0000 -0.604031465
O   O12       1.0  0.15430  0.46622  0.10868  1.0000 -0.604031465
O   O13       1.0  0.22676  0.98920  0.99852  1.0000 -0.5392451809
O   O14       1.0  0.02324  0.52176  0.26244  1.0000 -0.5392451809
O   O15       1.0  0.01080  0.77324  0.00148  1.0000 -0.5392451809
O   O16       1.0  0.47824  0.97676  0.73756  1.0000 -0.5392451809
O   O17       1.0  0.23920  0.74068  0.26244  1.0000 -0.5392451809
O   O18       1.0  0.77176  0.00932  0.99852  1.0000 -0.5392451809
O   O19       1.0  0.25932  0.76080  0.73756  1.0000 -0.5392451809
O   O20       1.0  0.99068  0.22824  0.00148  1.0000 -0.5392451809
