# DDEC6 charges by PACMAN v1.1 (https://github.com/mtap-research/PACMAN-charge/)
data_2017[Tb][nan]3[ASR]11
_chemical_formula_sum              "Tb8 H48 C108 N12 O60"
_cell_length_a       16.4258
_cell_length_b       17.2439
_cell_length_c       20.743
_cell_angle_alpha    90
_cell_angle_beta     109.465
_cell_angle_gamma    90

_symmetry_space_group_name_H-M    "P 1"
_symmetry_Int_Tables_number       1

loop_
  _symmetry_equiv_pos_as_xyz
  'x, y, z'

loop_
  _atom_site_type_symbol
  _atom_site_label
  _atom_site_symmetry_multiplicity
  _atom_site_fract_x
  _atom_site_fract_y
  _atom_site_fract_z
  _atom_site_occupancy
  _atom_site_charge
Tb  Tb1       1.0  0.24278  0.83744  0.79320  1.0000 2.0314504733
Tb  Tb2       1.0  0.50320  0.82712  0.67467  1.0000 2.0529436697
Tb  Tb3       1.0  0.75722  0.33744  0.70680  1.0000 2.0314504733
Tb  Tb4       1.0  0.49680  0.32712  0.82533  1.0000 2.0529436697
Tb  Tb5       1.0  0.75722  0.16256  0.20680  1.0000 2.0314504733
Tb  Tb6       1.0  0.49680  0.17288  0.32533  1.0000 2.0529436697
Tb  Tb7       1.0  0.24278  0.66256  0.29320  1.0000 2.0314504733
Tb  Tb8       1.0  0.50320  0.67288  0.17467  1.0000 2.0529436697
H   H1        1.0  0.97460  0.80230  0.54640  1.0000 0.2872876679
H   H2        1.0  0.76730  0.70340  0.41190  1.0000 0.2872876679
H   H3        1.0  0.92510  0.93180  0.92490  1.0000 0.2832110529
H   H4        1.0  0.11850  0.80750  0.61290  1.0000 0.1303548859
H   H5        1.0  0.04700  0.71910  0.42360  1.0000 0.1395392818
H   H6        1.0  0.29960  0.74230  0.53350  1.0000 0.1395392818
H   H7        1.0  0.69500  0.76960  0.54360  1.0000 0.1395392818
H   H8        1.0  0.45030  0.70590  0.44730  1.0000 0.1395392818
H   H9        1.0  0.62550  0.68310  0.35300  1.0000 0.1229249297
H   H10       1.0  0.66900  0.06840  0.71210  1.0000 0.1395392818
H   H11       1.0  0.89560  0.11570  0.85730  1.0000 0.1303548859
H   H12       1.0  0.79230  0.90330  0.84280  1.0000 0.1229249297
H   H13       1.0  0.02540  0.30230  0.95360  1.0000 0.2872876679
H   H14       1.0  0.23270  0.20340  0.08810  1.0000 0.2872876679
H   H15       1.0  0.07490  0.43180  0.57510  1.0000 0.2832110529
H   H16       1.0  0.88150  0.30750  0.88710  1.0000 0.1303548859
H   H17       1.0  0.95300  0.21910  0.07640  1.0000 0.1395392818
H   H18       1.0  0.70040  0.24230  0.96650  1.0000 0.1395392818
H   H19       1.0  0.30500  0.26960  0.95640  1.0000 0.1395392818
H   H20       1.0  0.54970  0.20590  0.05270  1.0000 0.1395392818
H   H21       1.0  0.37450  0.18310  0.14700  1.0000 0.1303548859
H   H22       1.0  0.33100  0.56840  0.78790  1.0000 0.1395392818
H   H23       1.0  0.10440  0.61570  0.64270  1.0000 0.1303548859
H   H24       1.0  0.20770  0.40330  0.65720  1.0000 0.1229249297
H   H25       1.0  0.02540  0.19770  0.45360  1.0000 0.2872876679
H   H26       1.0  0.23270  0.29660  0.58810  1.0000 0.2872876679
H   H27       1.0  0.07490  0.06820  0.07510  1.0000 0.2832110529
H   H28       1.0  0.88150  0.19250  0.38710  1.0000 0.1303548859
H   H29       1.0  0.95300  0.28090  0.57640  1.0000 0.1395392818
H   H30       1.0  0.70040  0.25770  0.46650  1.0000 0.1395392818
H   H31       1.0  0.30500  0.23040  0.45640  1.0000 0.1395392818
H   H32       1.0  0.54970  0.29410  0.55270  1.0000 0.1395392818
H   H33       1.0  0.37450  0.31690  0.64700  1.0000 0.1229249297
H   H34       1.0  0.33100  0.93160  0.28790  1.0000 0.1395392818
H   H35       1.0  0.10440  0.88430  0.14270  1.0000 0.1303548859
H   H36       1.0  0.20770  0.09670  0.15720  1.0000 0.1229249297
H   H37       1.0  0.97460  0.69770  0.04640  1.0000 0.2872876679
H   H38       1.0  0.76730  0.79660  0.91190  1.0000 0.2872876679
H   H39       1.0  0.92510  0.56820  0.42490  1.0000 0.2832110529
H   H40       1.0  0.11850  0.69250  0.11290  1.0000 0.1303548859
H   H41       1.0  0.04700  0.78090  0.92360  1.0000 0.1395392818
H   H42       1.0  0.29960  0.75770  0.03350  1.0000 0.1395392818
H   H43       1.0  0.69500  0.73040  0.04360  1.0000 0.1395392818
H   H44       1.0  0.45030  0.79410  0.94730  1.0000 0.1395392818
H   H45       1.0  0.62550  0.81690  0.85300  1.0000 0.1229249297
H   H46       1.0  0.66900  0.43160  0.21210  1.0000 0.1395392818
H   H47       1.0  0.89560  0.38430  0.35730  1.0000 0.1303548859
H   H48       1.0  0.79230  0.59670  0.34280  1.0000 0.1229249297
C   C1        1.0  0.28720  0.80490  0.64710  1.0000 0.6708808621
C   C2        1.0  0.21930  0.77950  0.58160  1.0000 -0.0201412492
C   C3        1.0  0.13280  0.78770  0.57630  1.0000 -0.2000796691
C   C4        1.0  0.06690  0.76570  0.51510  1.0000 0.210580741
C   C5        1.0  0.08980  0.73650  0.46280  1.0000 -0.1774472515
C   C6        1.0  0.17550  0.73190  0.46630  1.0000 0.0036042422
C   C7        1.0  0.24180  0.75020  0.52870  1.0000 -0.108437519
C   C8        1.0  0.19880  0.70340  0.40730  1.0000 0.5618412723
C   C9        1.0  0.91090  0.74470  0.46960  1.0000 0.382343248
C   C10       1.0  0.82880  0.76340  0.48790  1.0000 0.382343248
C   C11       1.0  0.67430  0.72790  0.44810  1.0000 0.2159904966
C   C12       1.0  0.65300  0.74950  0.50520  1.0000 -0.1542487251
C   C13       1.0  0.56930  0.74080  0.50430  1.0000 0.0075369794
C   C14       1.0  0.50670  0.71110  0.44740  1.0000 -0.1018761075
C   C15       1.0  0.52710  0.68910  0.39040  1.0000 -0.0272148042
C   C16       1.0  0.61120  0.69770  0.39110  1.0000 -0.205432273
C   C17       1.0  0.54680  0.76540  0.56660  1.0000 0.5533528855
C   C18       1.0  0.46080  0.65530  0.32840  1.0000 0.6833064189
C   C19       1.0  0.64760  0.92130  0.74010  1.0000 0.5807821979
C   C20       1.0  0.72130  0.97730  0.77200  1.0000 0.0075369794
C   C21       1.0  0.71700  0.05240  0.74810  1.0000 -0.1018761075
C   C22       1.0  0.78320  0.10360  0.77740  1.0000 0.0036042422
C   C23       1.0  0.85190  0.08070  0.83550  1.0000 -0.1742959763
C   C24       1.0  0.85430  0.00700  0.85980  1.0000 0.210580741
C   C25       1.0  0.78930  0.95410  0.82710  1.0000 -0.205432273
C   C26       1.0  0.77810  0.18470  0.74960  1.0000 0.5533528855
C   C27       1.0  0.97580  0.02410  0.96890  1.0000 0.3716413607
C   C28       1.0  0.71280  0.30490  0.85290  1.0000 0.6708808621
C   C29       1.0  0.78070  0.27950  0.91840  1.0000 -0.0201412492
C   C30       1.0  0.86720  0.28770  0.92370  1.0000 -0.2000796691
C   C31       1.0  0.93310  0.26570  0.98490  1.0000 0.210580741
C   C32       1.0  0.91020  0.23650  0.03720  1.0000 -0.1774472515
C   C33       1.0  0.82450  0.23190  0.03370  1.0000 0.0036042422
C   C34       1.0  0.75820  0.25020  0.97130  1.0000 -0.108437519
C   C35       1.0  0.80120  0.20340  0.09270  1.0000 0.5618412723
C   C36       1.0  0.08910  0.24470  0.03040  1.0000 0.382343248
C   C37       1.0  0.17120  0.26340  0.01210  1.0000 0.382343248
C   C38       1.0  0.32570  0.22790  0.05190  1.0000 0.2159904966
C   C39       1.0  0.34700  0.24950  0.99480  1.0000 -0.1542487251
C   C40       1.0  0.43070  0.24080  0.99570  1.0000 0.0075369794
C   C41       1.0  0.49330  0.21110  0.05260  1.0000 -0.1018761075
C   C42       1.0  0.47290  0.18910  0.10960  1.0000 -0.0272148042
C   C43       1.0  0.38880  0.19770  0.10890  1.0000 -0.205432273
C   C44       1.0  0.45320  0.26540  0.93340  1.0000 0.5533528855
C   C45       1.0  0.53920  0.15530  0.17160  1.0000 0.6833064189
C   C46       1.0  0.35240  0.42130  0.75990  1.0000 0.5807821979
C   C47       1.0  0.27870  0.47730  0.72800  1.0000 0.0075369794
C   C48       1.0  0.28300  0.55240  0.75190  1.0000 -0.1018761075
C   C49       1.0  0.21680  0.60360  0.72260  1.0000 0.0036042422
C   C50       1.0  0.14810  0.58070  0.66450  1.0000 -0.1742959763
C   C51       1.0  0.14570  0.50700  0.64020  1.0000 0.210580741
C   C52       1.0  0.21070  0.45410  0.67290  1.0000 -0.2000796691
C   C53       1.0  0.22190  0.68470  0.75040  1.0000 0.5533528855
C   C54       1.0  0.02420  0.52410  0.53110  1.0000 0.3716413607
C   C55       1.0  0.71280  0.19510  0.35290  1.0000 0.6708808621
C   C56       1.0  0.78070  0.22050  0.41840  1.0000 -0.0201412492
C   C57       1.0  0.86720  0.21230  0.42370  1.0000 -0.2000796691
C   C58       1.0  0.93310  0.23430  0.48490  1.0000 0.210580741
C   C59       1.0  0.91020  0.26350  0.53720  1.0000 -0.1774472515
C   C60       1.0  0.82450  0.26810  0.53370  1.0000 0.0036042422
C   C61       1.0  0.75820  0.24980  0.47130  1.0000 -0.108437519
C   C62       1.0  0.80120  0.29660  0.59270  1.0000 0.5618412723
C   C63       1.0  0.08910  0.25530  0.53040  1.0000 0.382343248
C   C64       1.0  0.17120  0.23660  0.51210  1.0000 0.382343248
C   C65       1.0  0.32570  0.27210  0.55190  1.0000 0.210580741
C   C66       1.0  0.34700  0.25050  0.49480  1.0000 -0.1542487251
C   C67       1.0  0.43070  0.25920  0.49570  1.0000 0.0075369794
C   C68       1.0  0.49330  0.28890  0.55260  1.0000 -0.1018761075
C   C69       1.0  0.47290  0.31090  0.60960  1.0000 -0.0272148042
C   C70       1.0  0.38880  0.30230  0.60890  1.0000 -0.205432273
C   C71       1.0  0.45320  0.23460  0.43340  1.0000 0.5533528855
C   C72       1.0  0.53920  0.34470  0.67160  1.0000 0.6833064189
C   C73       1.0  0.35240  0.07870  0.25990  1.0000 0.5807821979
C   C74       1.0  0.27870  0.02270  0.22800  1.0000 0.0075369794
C   C75       1.0  0.28300  0.94760  0.25190  1.0000 -0.1018761075
C   C76       1.0  0.21680  0.89640  0.22260  1.0000 0.0036042422
C   C77       1.0  0.14810  0.91930  0.16450  1.0000 -0.1742959763
C   C78       1.0  0.14570  0.99300  0.14020  1.0000 0.210580741
C   C79       1.0  0.21070  0.04590  0.17290  1.0000 -0.205432273
C   C80       1.0  0.22190  0.81530  0.25040  1.0000 0.5533528855
C   C81       1.0  0.02420  0.97590  0.03110  1.0000 0.3716413607
C   C82       1.0  0.28720  0.69510  0.14710  1.0000 0.6708808621
C   C83       1.0  0.21930  0.72050  0.08160  1.0000 -0.0201412492
C   C84       1.0  0.13280  0.71230  0.07630  1.0000 -0.2000796691
C   C85       1.0  0.06690  0.73430  0.01510  1.0000 0.210580741
C   C86       1.0  0.08980  0.76350  0.96280  1.0000 -0.1774472515
C   C87       1.0  0.17550  0.76810  0.96630  1.0000 0.0036042422
C   C88       1.0  0.24180  0.74980  0.02870  1.0000 -0.108437519
C   C89       1.0  0.19880  0.79660  0.90730  1.0000 0.5618412723
C   C90       1.0  0.91090  0.75530  0.96960  1.0000 0.382343248
C   C91       1.0  0.82880  0.73660  0.98790  1.0000 0.382343248
C   C92       1.0  0.67430  0.77210  0.94810  1.0000 0.2159904966
C   C93       1.0  0.65300  0.75050  0.00520  1.0000 -0.1542487251
C   C94       1.0  0.56930  0.75920  0.00430  1.0000 0.0075369794
C   C95       1.0  0.50670  0.78890  0.94740  1.0000 -0.1018761075
C   C96       1.0  0.52710  0.81090  0.89040  1.0000 -0.0272148042
C   C97       1.0  0.61120  0.80230  0.89110  1.0000 -0.205432273
C   C98       1.0  0.54680  0.73460  0.06660  1.0000 0.5533528855
C   C99       1.0  0.46080  0.84470  0.82840  1.0000 0.6833064189
C   C100      1.0  0.64760  0.57870  0.24010  1.0000 0.5807821979
C   C101      1.0  0.72130  0.52270  0.27200  1.0000 0.0075369794
C   C102      1.0  0.71700  0.44760  0.24810  1.0000 -0.1018761075
C   C103      1.0  0.78320  0.39640  0.27740  1.0000 0.0036042422
C   C104      1.0  0.85190  0.41930  0.33550  1.0000 -0.1742959763
C   C105      1.0  0.85430  0.49300  0.35980  1.0000 0.210580741
C   C106      1.0  0.78930  0.54590  0.32710  1.0000 -0.2000796691
C   C107      1.0  0.77810  0.31530  0.24960  1.0000 0.5533528855
C   C108      1.0  0.97580  0.47590  0.46890  1.0000 0.3716413607
N   N1        1.0  0.98170  0.77450  0.51430  1.0000 -0.3108284692
N   N2        1.0  0.75960  0.72850  0.44520  1.0000 -0.3108284692
N   N3        1.0  0.92010  0.98130  0.91950  1.0000 -0.3306212495
N   N4        1.0  0.01830  0.27450  0.98570  1.0000 -0.3108284692
N   N5        1.0  0.24040  0.22850  0.05480  1.0000 -0.3108284692
N   N6        1.0  0.07990  0.48130  0.58050  1.0000 -0.3306212495
N   N7        1.0  0.01830  0.22550  0.48570  1.0000 -0.3108284692
N   N8        1.0  0.24040  0.27150  0.55480  1.0000 -0.3108284692
N   N9        1.0  0.07990  0.01870  0.08050  1.0000 -0.3306212495
N   N10       1.0  0.98170  0.72550  0.01430  1.0000 -0.3108284692
N   N11       1.0  0.75960  0.77150  0.94520  1.0000 -0.3108284692
N   N12       1.0  0.92010  0.51870  0.41950  1.0000 -0.3306212495
O   O1        1.0  0.26440  0.84450  0.68890  1.0000 -0.692784525
O   O2        1.0  0.36370  0.78670  0.65330  1.0000 -0.6833409438
O   O3        1.0  0.27770  0.69920  0.41200  1.0000 -0.6325765098
O   O4        1.0  0.14160  0.68930  0.35150  1.0000 -0.6484980504
O   O5        1.0  0.90310  0.70570  0.41880  1.0000 -0.4669933165
O   O6        1.0  0.83140  0.80560  0.53650  1.0000 -0.4384978483
O   O7        1.0  0.59910  0.80700  0.61050  1.0000 -0.6377424518
O   O8        1.0  0.47760  0.74460  0.57200  1.0000 -0.6093913535
O   O9        1.0  0.48360  0.64130  0.27670  1.0000 -0.70613527
O   O10       1.0  0.38790  0.64160  0.33160  1.0000 -0.6658783923
O   O11       1.0  0.57910  0.94720  0.69700  1.0000 -0.6484980504
O   O12       1.0  0.65600  0.85090  0.75580  1.0000 -0.6325765098
O   O13       1.0  0.70980  0.20620  0.70670  1.0000 -0.595418788
O   O14       1.0  0.84330  0.22770  0.77180  1.0000 -0.6377424518
O   O15       1.0  0.98930  0.09160  0.96470  1.0000 -0.4265154819
O   O16       1.0  0.73560  0.34450  0.81110  1.0000 -0.692784525
O   O17       1.0  0.63630  0.28670  0.84670  1.0000 -0.6833409438
O   O18       1.0  0.72230  0.19920  0.08800  1.0000 -0.6325765098
O   O19       1.0  0.85840  0.18930  0.14850  1.0000 -0.6484980504
O   O20       1.0  0.09690  0.20570  0.08120  1.0000 -0.4669933165
O   O21       1.0  0.16860  0.30560  0.96350  1.0000 -0.4384978483
O   O22       1.0  0.40090  0.30700  0.88950  1.0000 -0.6377424518
O   O23       1.0  0.52240  0.24460  0.92800  1.0000 -0.6093913535
O   O24       1.0  0.51640  0.14130  0.22330  1.0000 -0.7034713397
O   O25       1.0  0.61210  0.14160  0.16840  1.0000 -0.6641552816
O   O26       1.0  0.42090  0.44720  0.80300  1.0000 -0.6484980504
O   O27       1.0  0.34400  0.35090  0.74420  1.0000 -0.6325765098
O   O28       1.0  0.29020  0.70620  0.79330  1.0000 -0.595418788
O   O29       1.0  0.15670  0.72770  0.72820  1.0000 -0.6377424518
O   O30       1.0  0.01070  0.59160  0.53530  1.0000 -0.4265154819
O   O31       1.0  0.73560  0.15550  0.31110  1.0000 -0.692784525
O   O32       1.0  0.63630  0.21330  0.34670  1.0000 -0.6833409438
O   O33       1.0  0.72230  0.30080  0.58800  1.0000 -0.6325765098
O   O34       1.0  0.85840  0.31070  0.64850  1.0000 -0.6484980504
O   O35       1.0  0.09690  0.29430  0.58120  1.0000 -0.4669933165
O   O36       1.0  0.16860  0.19440  0.46350  1.0000 -0.4384978483
O   O37       1.0  0.40090  0.19300  0.38950  1.0000 -0.6377424518
O   O38       1.0  0.52240  0.25540  0.42800  1.0000 -0.6093913535
O   O39       1.0  0.51640  0.35870  0.72330  1.0000 -0.70613527
O   O40       1.0  0.61210  0.35840  0.66840  1.0000 -0.6641552816
O   O41       1.0  0.42090  0.05280  0.30300  1.0000 -0.6484980504
O   O42       1.0  0.34400  0.14910  0.24420  1.0000 -0.6377424518
O   O43       1.0  0.29020  0.79380  0.29330  1.0000 -0.5944286952
O   O44       1.0  0.15670  0.77230  0.22820  1.0000 -0.6377424518
O   O45       1.0  0.01070  0.90840  0.03530  1.0000 -0.4265154819
O   O46       1.0  0.26440  0.65550  0.18890  1.0000 -0.692784525
O   O47       1.0  0.36370  0.71330  0.15330  1.0000 -0.6833409438
O   O48       1.0  0.27770  0.80080  0.91200  1.0000 -0.6325765098
O   O49       1.0  0.14160  0.81070  0.85150  1.0000 -0.6484980504
O   O50       1.0  0.90310  0.79430  0.91880  1.0000 -0.4669933165
O   O51       1.0  0.83140  0.69440  0.03650  1.0000 -0.4384978483
O   O52       1.0  0.59910  0.69300  0.11050  1.0000 -0.6377424518
O   O53       1.0  0.47760  0.75540  0.07200  1.0000 -0.6093913535
O   O54       1.0  0.48360  0.85870  0.77670  1.0000 -0.70613527
O   O55       1.0  0.38790  0.85840  0.83160  1.0000 -0.6641552816
O   O56       1.0  0.57910  0.55280  0.19700  1.0000 -0.6484980504
O   O57       1.0  0.65600  0.64910  0.25580  1.0000 -0.6325765098
O   O58       1.0  0.70980  0.29380  0.20670  1.0000 -0.5944286952
O   O59       1.0  0.84330  0.27230  0.27180  1.0000 -0.6325765098
O   O60       1.0  0.98930  0.40840  0.46470  1.0000 -0.4265154819
