# DDEC6 charges by PACMAN v1.1 (https://github.com/mtap-research/PACMAN-charge/)
data_2017[CoCr][pcu]3[ASR]1
_chemical_formula_sum              "Cr4 Co2 H64 C72 N8 O6"
_cell_length_a       15.2678
_cell_length_b       15.2678
_cell_length_c       8.8768
_cell_angle_alpha    75.3656
_cell_angle_beta     104.634
_cell_angle_gamma    105.6

_symmetry_space_group_name_H-M    "P 1"
_symmetry_Int_Tables_number       1

loop_
  _symmetry_equiv_pos_as_xyz
  'x, y, z'

loop_
  _atom_site_type_symbol
  _atom_site_label
  _atom_site_symmetry_multiplicity
  _atom_site_fract_x
  _atom_site_fract_y
  _atom_site_fract_z
  _atom_site_occupancy
  _atom_site_charge
Cr  Cr1       1.0  0.35060  0.23748  0.41660  1.0000 0.6514868866
Cr  Cr2       1.0  0.23748  0.35060  0.08340  1.0000 0.6514868866
Cr  Cr3       1.0  0.64940  0.76252  0.58340  1.0000 0.6553815733
Cr  Cr4       1.0  0.76252  0.64940  0.91660  1.0000 0.6553815733
Co  Co1       1.0  0.28312  0.28312  0.75000  1.0000 0.7899066936
Co  Co2       1.0  0.71688  0.71688  0.25000  1.0000 0.7899066936
H   H1        1.0  0.07996  0.22494  0.80759  1.0000 0.1071160677
H   H2        1.0  0.22494  0.07996  0.69241  1.0000 0.1071160677
H   H3        1.0  0.17604  0.29948  0.41242  1.0000 0.0978741851
H   H4        1.0  0.29948  0.17604  0.08758  1.0000 0.0978741851
H   H5        1.0  0.93090  0.23010  0.66718  1.0000 0.1324044536
H   H6        1.0  0.23010  0.93090  0.83282  1.0000 0.1324044536
H   H7        1.0  0.02900  0.30020  0.26190  1.0000 0.1324044536
H   H8        1.0  0.30020  0.02900  0.23810  1.0000 0.1324044536
H   H9        1.0  0.80500  0.15150  0.45781  1.0000 0.1189529137
H   H10       1.0  0.15150  0.80500  0.04219  1.0000 0.1189529137
H   H11       1.0  0.75413  0.41143  0.07226  1.0000 0.1189529137
H   H12       1.0  0.41143  0.75413  0.42774  1.0000 0.1189529137
H   H13       1.0  0.96665  0.46015  0.30879  1.0000 0.1410281006
H   H14       1.0  0.46015  0.96665  0.19121  1.0000 0.1410281006
H   H15       1.0  0.90312  0.49606  0.14317  1.0000 0.1324044536
H   H16       1.0  0.49606  0.90312  0.35683  1.0000 0.1324044536
H   H17       1.0  0.97343  0.43351  0.14955  1.0000 0.1410281006
H   H18       1.0  0.43351  0.97343  0.35045  1.0000 0.1410281006
H   H19       1.0  0.57548  0.14540  0.33743  1.0000 0.1410281006
H   H20       1.0  0.14540  0.57548  0.16257  1.0000 0.1410281006
H   H21       1.0  0.64898  0.08156  0.42075  1.0000 0.1410281006
H   H22       1.0  0.08156  0.64898  0.07925  1.0000 0.1410281006
H   H23       1.0  0.60738  0.09194  0.23419  1.0000 0.1324044536
H   H24       1.0  0.09194  0.60738  0.26581  1.0000 0.1324044536
H   H25       1.0  0.58012  0.40356  0.13731  1.0000 0.1324044536
H   H26       1.0  0.40356  0.58012  0.36269  1.0000 0.1324044536
H   H27       1.0  0.58511  0.18101  0.97133  1.0000 0.1189529137
H   H28       1.0  0.18101  0.58511  0.52867  1.0000 0.1189529137
H   H29       1.0  0.43444  0.40654  0.96761  1.0000 0.0978741851
H   H30       1.0  0.40654  0.43444  0.53239  1.0000 0.0978741851
H   H31       1.0  0.44571  0.19171  0.80662  1.0000 0.0978741851
H   H32       1.0  0.19171  0.44571  0.69338  1.0000 0.0978741851
H   H33       1.0  0.92004  0.77506  0.19241  1.0000 0.1071160677
H   H34       1.0  0.77506  0.92004  0.30759  1.0000 0.1071160677
H   H35       1.0  0.82396  0.70052  0.58758  1.0000 0.0978741851
H   H36       1.0  0.70052  0.82396  0.91242  1.0000 0.0978741851
H   H37       1.0  0.06910  0.76990  0.33282  1.0000 0.1324044536
H   H38       1.0  0.76990  0.06910  0.16718  1.0000 0.1324044536
H   H39       1.0  0.97100  0.69980  0.73810  1.0000 0.1324044536
H   H40       1.0  0.69980  0.97100  0.76190  1.0000 0.1324044536
H   H41       1.0  0.19500  0.84850  0.54219  1.0000 0.1189529137
H   H42       1.0  0.84850  0.19500  0.95781  1.0000 0.1189529137
H   H43       1.0  0.24587  0.58857  0.92774  1.0000 0.1189529137
H   H44       1.0  0.58857  0.24587  0.57226  1.0000 0.1189529137
H   H45       1.0  0.03335  0.53985  0.69121  1.0000 0.1410281006
H   H46       1.0  0.53985  0.03335  0.80879  1.0000 0.1410281006
H   H47       1.0  0.09688  0.50394  0.85683  1.0000 0.1324044536
H   H48       1.0  0.50394  0.09688  0.64317  1.0000 0.1324044536
H   H49       1.0  0.02657  0.56649  0.85045  1.0000 0.1410281006
H   H50       1.0  0.56649  0.02657  0.64955  1.0000 0.1410281006
H   H51       1.0  0.42452  0.85460  0.66257  1.0000 0.1410281006
H   H52       1.0  0.85460  0.42452  0.83743  1.0000 0.1410281006
H   H53       1.0  0.35102  0.91844  0.57925  1.0000 0.1410281006
H   H54       1.0  0.91844  0.35102  0.92075  1.0000 0.1410281006
H   H55       1.0  0.39262  0.90806  0.76581  1.0000 0.1324044536
H   H56       1.0  0.90806  0.39262  0.73419  1.0000 0.1324044536
H   H57       1.0  0.41988  0.59644  0.86269  1.0000 0.1324044536
H   H58       1.0  0.59644  0.41988  0.63731  1.0000 0.1324044536
H   H59       1.0  0.41489  0.81899  0.02867  1.0000 0.1189529137
H   H60       1.0  0.81899  0.41489  0.47133  1.0000 0.1189529137
H   H61       1.0  0.56556  0.59346  0.03239  1.0000 0.0978741851
H   H62       1.0  0.59346  0.56556  0.46761  1.0000 0.0978741851
H   H63       1.0  0.55429  0.80829  0.19338  1.0000 0.0978741851
H   H64       1.0  0.80829  0.55429  0.30662  1.0000 0.0978741851
C   C1        1.0  0.06970  0.24230  0.69500  1.0000 0.0814272668
C   C2        1.0  0.24230  0.06970  0.80500  1.0000 0.0814272668
C   C3        1.0  0.12530  0.28490  0.46490  1.0000 0.0723418314
C   C4        1.0  0.28490  0.12530  0.03510  1.0000 0.0723418314
C   C5        1.0  0.98060  0.24520  0.61230  1.0000 -0.2077590022
C   C6        1.0  0.24520  0.98060  0.88770  1.0000 -0.2077590022
C   C7        1.0  0.03790  0.28710  0.37450  1.0000 -0.1877874789
C   C8        1.0  0.28710  0.03790  0.12550  1.0000 -0.1877874789
C   C9        1.0  0.96420  0.27080  0.44500  1.0000 0.1189529137
C   C10       1.0  0.27080  0.96420  0.05500  1.0000 0.1189529137
C   C11       1.0  0.87010  0.27830  0.35000  1.0000 -0.0180215671
C   C12       1.0  0.27830  0.87010  0.15000  1.0000 -0.0180215671
C   C13       1.0  0.79450  0.20430  0.37760  1.0000 -0.2168695648
C   C14       1.0  0.20430  0.79450  0.12240  1.0000 -0.2278446723
C   C15       1.0  0.85530  0.35670  0.23580  1.0000 0.1189529137
C   C16       1.0  0.35670  0.85530  0.26420  1.0000 0.1189529137
C   C17       1.0  0.70460  0.20520  0.29160  1.0000 0.1189529137
C   C18       1.0  0.20520  0.70460  0.20840  1.0000 0.1189529137
C   C19       1.0  0.76510  0.35790  0.15000  1.0000 -0.2168695648
C   C20       1.0  0.35790  0.76510  0.35000  1.0000 -0.2168695648
C   C21       1.0  0.93150  0.44450  0.20670  1.0000 -0.4715571273
C   C22       1.0  0.44450  0.93150  0.29330  1.0000 -0.4715571273
C   C23       1.0  0.69110  0.28390  0.17420  1.0000 -0.002271011
C   C24       1.0  0.28390  0.69110  0.32580  1.0000 -0.002271011
C   C25       1.0  0.62750  0.12410  0.32370  1.0000 -0.4775954355
C   C26       1.0  0.12410  0.62750  0.17630  1.0000 -0.4775954355
C   C27       1.0  0.59870  0.28930  0.07440  1.0000 0.1189529137
C   C28       1.0  0.28930  0.59870  0.42560  1.0000 0.1189529137
C   C29       1.0  0.55290  0.35870  0.07200  1.0000 -0.2168695648
C   C30       1.0  0.35870  0.55290  0.42800  1.0000 -0.2168695648
C   C31       1.0  0.55570  0.22810  0.97340  1.0000 -0.1877874789
C   C32       1.0  0.22810  0.55570  0.52660  1.0000 -0.1877874789
C   C33       1.0  0.46520  0.35980  0.96950  1.0000 0.0723418314
C   C34       1.0  0.35980  0.46520  0.53050  1.0000 0.0723418314
C   C35       1.0  0.47190  0.23410  0.87660  1.0000 0.0459471075
C   C36       1.0  0.23410  0.47190  0.62340  1.0000 0.0459471075
C   C37       1.0  0.93030  0.75770  0.30500  1.0000 0.0814272668
C   C38       1.0  0.75770  0.93030  0.19500  1.0000 0.0814272668
C   C39       1.0  0.87470  0.71510  0.53510  1.0000 0.0723418314
C   C40       1.0  0.71510  0.87470  0.96490  1.0000 0.0723418314
C   C41       1.0  0.01940  0.75480  0.38770  1.0000 -0.2077590022
C   C42       1.0  0.75480  0.01940  0.11230  1.0000 -0.2077590022
C   C43       1.0  0.96210  0.71290  0.62550  1.0000 -0.1877874789
C   C44       1.0  0.71290  0.96210  0.87450  1.0000 -0.1877874789
C   C45       1.0  0.03580  0.72920  0.55500  1.0000 0.1189529137
C   C46       1.0  0.72920  0.03580  0.94500  1.0000 0.1189529137
C   C47       1.0  0.12990  0.72170  0.65000  1.0000 -0.0180215671
C   C48       1.0  0.72170  0.12990  0.85000  1.0000 -0.0180215671
C   C49       1.0  0.20550  0.79570  0.62240  1.0000 -0.2278446723
C   C50       1.0  0.79570  0.20550  0.87760  1.0000 -0.2278446723
C   C51       1.0  0.14470  0.64330  0.76420  1.0000 0.1189529137
C   C52       1.0  0.64330  0.14470  0.73580  1.0000 0.1189529137
C   C53       1.0  0.29540  0.79480  0.70840  1.0000 0.1189529137
C   C54       1.0  0.79480  0.29540  0.79160  1.0000 0.1189529137
C   C55       1.0  0.23490  0.64210  0.85000  1.0000 -0.2168695648
C   C56       1.0  0.64210  0.23490  0.65000  1.0000 -0.2168695648
C   C57       1.0  0.06850  0.55550  0.79330  1.0000 -0.4715571273
C   C58       1.0  0.55550  0.06850  0.70670  1.0000 -0.4715571273
C   C59       1.0  0.30890  0.71610  0.82580  1.0000 -0.002271011
C   C60       1.0  0.71610  0.30890  0.67420  1.0000 -0.002271011
C   C61       1.0  0.37250  0.87590  0.67630  1.0000 -0.4775954355
C   C62       1.0  0.87590  0.37250  0.82370  1.0000 -0.4775954355
C   C63       1.0  0.40130  0.71070  0.92560  1.0000 0.1189529137
C   C64       1.0  0.71070  0.40130  0.57440  1.0000 0.1189529137
C   C65       1.0  0.44710  0.64130  0.92800  1.0000 -0.2168695648
C   C66       1.0  0.64130  0.44710  0.57200  1.0000 -0.2168695648
C   C67       1.0  0.44430  0.77190  0.02660  1.0000 -0.1877874789
C   C68       1.0  0.77190  0.44430  0.47340  1.0000 -0.1877874789
C   C69       1.0  0.53480  0.64020  0.03050  1.0000 0.0723418314
C   C70       1.0  0.64020  0.53480  0.46950  1.0000 0.0723418314
C   C71       1.0  0.52810  0.76590  0.12340  1.0000 0.0459471075
C   C72       1.0  0.76590  0.52810  0.37660  1.0000 0.0459471075
N   N1        1.0  0.14160  0.26280  0.62440  1.0000 -0.2278446723
N   N2        1.0  0.26280  0.14160  0.87560  1.0000 -0.2278446723
N   N3        1.0  0.42330  0.29810  0.87470  1.0000 -0.2621502746
N   N4        1.0  0.29810  0.42330  0.62530  1.0000 -0.2621502746
N   N5        1.0  0.85840  0.73720  0.37560  1.0000 -0.2278446723
N   N6        1.0  0.73720  0.85840  0.12440  1.0000 -0.2278446723
N   N7        1.0  0.57670  0.70190  0.12530  1.0000 -0.2621502746
N   N8        1.0  0.70190  0.57670  0.37470  1.0000 -0.2621502746
O   O1        1.0  0.24740  0.31960  0.92910  1.0000 -0.6997218002
O   O2        1.0  0.31960  0.24740  0.57090  1.0000 -0.6997218002
O   O3        1.0  0.26250  0.26250  0.25000  1.0000 -0.7573068608
O   O4        1.0  0.75260  0.68040  0.07090  1.0000 -0.6997218002
O   O5        1.0  0.68040  0.75260  0.42910  1.0000 -0.6997218002
O   O6        1.0  0.73750  0.73750  0.75000  1.0000 -0.7573068608
