# DDEC6 charges by PACMAN v1.1 (https://github.com/mtap-research/PACMAN-charge/)
data_2017[CoV][sql]2[ASR]1
_chemical_formula_sum              "V8 Co4 H128 C140 N24 O24"
_cell_length_a       12.5874
_cell_length_b       21.7694
_cell_length_c       21.8897
_cell_angle_alpha    94.011
_cell_angle_beta     104.95
_cell_angle_gamma    98.97

_symmetry_space_group_name_H-M    "P 1"
_symmetry_Int_Tables_number       1

loop_
  _symmetry_equiv_pos_as_xyz
  'x, y, z'

loop_
  _atom_site_type_symbol
  _atom_site_label
  _atom_site_symmetry_multiplicity
  _atom_site_fract_x
  _atom_site_fract_y
  _atom_site_fract_z
  _atom_site_occupancy
  _atom_site_charge
V   V1        1.0  0.59325  0.40901  0.00670  1.0000 1.8862988395
V   V2        1.0  0.51526  0.49712  0.09889  1.0000 1.5519796652
V   V3        1.0  0.86795  0.05630  0.43124  1.0000 1.8829270644
V   V4        1.0  0.97406  0.93929  0.41850  1.0000 1.7404617709
V   V5        1.0  0.40675  0.59099  0.99330  1.0000 1.8829270644
V   V6        1.0  0.48474  0.50288  0.90111  1.0000 1.5519796652
V   V7        1.0  0.13205  0.94370  0.56876  1.0000 1.8862988395
V   V8        1.0  0.02594  0.06071  0.58150  1.0000 1.7404617709
Co  Co1       1.0  0.79261  0.49653  0.12815  1.0000 0.8033635658
Co  Co2       1.0  0.68672  0.92142  0.40020  1.0000 0.8094159109
Co  Co3       1.0  0.20739  0.50347  0.87185  1.0000 0.8033635658
Co  Co4       1.0  0.31328  0.07858  0.59980  1.0000 0.8094159109
H   H1        1.0  0.08620  0.58050  0.02300  1.0000 0.1189349102
H   H2        1.0  0.98010  0.63490  0.95000  1.0000 0.109862123
H   H3        1.0  0.80100  0.64150  0.95260  1.0000 0.1189349102
H   H4        1.0  0.72630  0.58930  0.02370  1.0000 0.1299012329
H   H5        1.0  0.00250  0.41930  0.20820  1.0000 0.1189349102
H   H6        1.0  0.18890  0.45030  0.19660  1.0000 0.109862123
H   H7        1.0  0.21300  0.52770  0.06970  1.0000 0.109862123
H   H8        1.0  0.28590  0.51100  0.13370  1.0000 0.1016318351
H   H9        1.0  0.21900  0.62490  0.11000  1.0000 0.1016318351
H   H10       1.0  0.34120  0.61310  0.13590  1.0000 0.109862123
H   H11       1.0  0.29220  0.66460  0.21810  1.0000 0.0814552792
H   H12       1.0  0.18560  0.61270  0.20890  1.0000 0.0814552792
H   H13       1.0  0.42080  0.53820  0.44190  1.0000 0.1189349102
H   H14       1.0  0.25250  0.67030  0.30850  1.0000 0.1189349102
H   H15       1.0  0.46180  0.51920  0.28960  1.0000 0.1016318351
H   H16       1.0  0.43250  0.41620  0.23510  1.0000 0.109862123
H   H17       1.0  0.31340  0.31950  0.20000  1.0000 0.109862123
H   H18       1.0  0.17420  0.28810  0.24380  1.0000 0.109862123
H   H19       1.0  0.14970  0.35030  0.32620  1.0000 0.1016318351
H   H20       1.0  0.26280  0.44590  0.36400  1.0000 0.109862123
H   H21       1.0  0.48910  0.41150  0.39720  1.0000 0.1016318351
H   H22       1.0  0.79130  0.57440  0.45160  1.0000 0.1299012329
H   H23       1.0  0.78700  0.60830  0.35350  1.0000 0.0814552792
H   H24       1.0  0.74980  0.66600  0.38450  1.0000 0.0891727549
H   H25       1.0  0.68660  0.62200  0.25340  1.0000 0.1189349102
H   H26       1.0  0.75940  0.68740  0.28390  1.0000 0.1016318351
H   H27       1.0  0.58030  0.70260  0.23420  1.0000 0.1016318351
H   H28       1.0  0.52770  0.65300  0.27180  1.0000 0.109862123
H   H29       1.0  0.57520  0.78440  0.45570  1.0000 0.109862123
H   H30       1.0  0.53540  0.68570  0.38900  1.0000 0.1189349102
H   H31       1.0  0.70910  0.76930  0.22400  1.0000 0.109862123
H   H32       1.0  0.77150  0.84180  0.16100  1.0000 0.1016318351
H   H33       1.0  0.78800  0.94660  0.19020  1.0000 0.109862123
H   H34       1.0  0.74260  0.97820  0.28040  1.0000 0.109862123
H   H35       1.0  0.43230  0.92420  0.54230  1.0000 0.1189349102
H   H36       1.0  0.56980  0.94480  0.63860  1.0000 0.1016318351
H   H37       1.0  0.75530  0.95640  0.64250  1.0000 0.1189349102
H   H38       1.0  0.80160  0.94600  0.54550  1.0000 0.1189349102
H   H39       1.0  0.43690  0.91270  0.28110  1.0000 0.1189349102
H   H40       1.0  0.26280  0.88330  0.30900  1.0000 0.1189349102
H   H41       1.0  0.19870  0.87270  0.40480  1.0000 0.1016318351
H   H42       1.0  0.28100  0.90300  0.47040  1.0000 0.109862123
H   H43       1.0  0.35090  0.81070  0.48430  1.0000 0.1016318351
H   H44       1.0  0.22210  0.79840  0.47640  1.0000 0.1189349102
H   H45       1.0  0.19470  0.75760  0.36830  1.0000 0.0814552792
H   H46       1.0  0.32510  0.76370  0.38250  1.0000 0.0814552792
H   H47       1.0  0.27510  0.63240  0.51190  1.0000 0.1016318351
H   H48       1.0  0.56250  0.65230  0.51200  1.0000 0.109862123
H   H49       1.0  0.70740  0.74350  0.58030  1.0000 0.109862123
H   H50       1.0  0.63740  0.80800  0.63870  1.0000 0.109862123
H   H51       1.0  0.47470  0.80050  0.64670  1.0000 0.109862123
H   H52       1.0  0.33730  0.71670  0.58690  1.0000 0.109862123
H   H53       1.0  0.85640  0.56830  0.56000  1.0000 0.0814552792
H   H54       1.0  0.95560  0.54980  0.53550  1.0000 0.0891727549
H   H55       1.0  0.99850  0.55470  0.64710  1.0000 0.1016318351
H   H56       1.0  0.89300  0.50320  0.64080  1.0000 0.109862123
H   H57       1.0  0.08280  0.48450  0.60300  1.0000 0.1016318351
H   H58       1.0  0.97460  0.43310  0.58820  1.0000 0.109862123
H   H59       1.0  0.95560  0.36050  0.67420  1.0000 0.1189349102
H   H60       1.0  0.04120  0.36250  0.78710  1.0000 0.1189349102
H   H61       1.0  0.34970  0.63550  0.85790  1.0000 0.1016318351
H   H62       1.0  0.41190  0.68620  0.78420  1.0000 0.1189349102
H   H63       1.0  0.34890  0.64080  0.67850  1.0000 0.109862123
H   H64       1.0  0.22450  0.54810  0.65240  1.0000 0.109862123
H   H65       1.0  0.91380  0.41950  0.97700  1.0000 0.1189349102
H   H66       1.0  0.01990  0.36510  0.05000  1.0000 0.109862123
H   H67       1.0  0.19900  0.35850  0.04740  1.0000 0.1189349102
H   H68       1.0  0.27370  0.41070  0.97630  1.0000 0.1299012329
H   H69       1.0  0.99750  0.58070  0.79180  1.0000 0.1189349102
H   H70       1.0  0.81110  0.54970  0.80340  1.0000 0.1189349102
H   H71       1.0  0.78700  0.47230  0.93030  1.0000 0.109862123
H   H72       1.0  0.71410  0.48900  0.86630  1.0000 0.1016318351
H   H73       1.0  0.78100  0.37510  0.89000  1.0000 0.1016318351
H   H74       1.0  0.65880  0.38690  0.86410  1.0000 0.109862123
H   H75       1.0  0.70780  0.33540  0.78190  1.0000 0.0814552792
H   H76       1.0  0.81440  0.38730  0.79110  1.0000 0.0814552792
H   H77       1.0  0.57920  0.46180  0.55810  1.0000 0.1189349102
H   H78       1.0  0.74750  0.32970  0.69150  1.0000 0.1189349102
H   H79       1.0  0.53820  0.48080  0.71040  1.0000 0.1016318351
H   H80       1.0  0.56750  0.58380  0.76490  1.0000 0.109862123
H   H81       1.0  0.68660  0.68050  0.80000  1.0000 0.109862123
H   H82       1.0  0.82580  0.71190  0.75620  1.0000 0.109862123
H   H83       1.0  0.85030  0.64970  0.67380  1.0000 0.1016318351
H   H84       1.0  0.73720  0.55410  0.63600  1.0000 0.109862123
H   H85       1.0  0.51090  0.58850  0.60280  1.0000 0.1016318351
H   H86       1.0  0.20870  0.42560  0.54840  1.0000 0.1299012329
H   H87       1.0  0.21300  0.39170  0.64650  1.0000 0.0814552792
H   H88       1.0  0.25020  0.33400  0.61550  1.0000 0.0891727549
H   H89       1.0  0.31340  0.37800  0.74660  1.0000 0.1189349102
H   H90       1.0  0.24060  0.31260  0.71610  1.0000 0.1016318351
H   H91       1.0  0.41970  0.29740  0.76580  1.0000 0.1016318351
H   H92       1.0  0.47230  0.34700  0.72820  1.0000 0.109862123
H   H93       1.0  0.42480  0.21560  0.54430  1.0000 0.109862123
H   H94       1.0  0.46460  0.31430  0.61100  1.0000 0.1189349102
H   H95       1.0  0.29090  0.23070  0.77600  1.0000 0.109862123
H   H96       1.0  0.22850  0.15820  0.83900  1.0000 0.1016318351
H   H97       1.0  0.21200  0.05340  0.80980  1.0000 0.1189349102
H   H98       1.0  0.25740  0.02180  0.71960  1.0000 0.109862123
H   H99       1.0  0.56770  0.07580  0.45770  1.0000 0.1189349102
H   H100      1.0  0.43020  0.05520  0.36140  1.0000 0.1016318351
H   H101      1.0  0.24470  0.04360  0.35750  1.0000 0.1189349102
H   H102      1.0  0.19840  0.05400  0.45450  1.0000 0.1189349102
H   H103      1.0  0.56310  0.08730  0.71890  1.0000 0.1189349102
H   H104      1.0  0.73720  0.11670  0.69100  1.0000 0.1189349102
H   H105      1.0  0.80130  0.12730  0.59520  1.0000 0.1016318351
H   H106      1.0  0.71900  0.09700  0.52960  1.0000 0.109862123
H   H107      1.0  0.64910  0.18930  0.51570  1.0000 0.1016318351
H   H108      1.0  0.77790  0.20160  0.52360  1.0000 0.1189349102
H   H109      1.0  0.80530  0.24240  0.63170  1.0000 0.0814552792
H   H110      1.0  0.67490  0.23630  0.61750  1.0000 0.0814552792
H   H111      1.0  0.72490  0.36760  0.48810  1.0000 0.1016318351
H   H112      1.0  0.43750  0.34770  0.48800  1.0000 0.109862123
H   H113      1.0  0.29260  0.25650  0.41970  1.0000 0.109862123
H   H114      1.0  0.36260  0.19200  0.36130  1.0000 0.109862123
H   H115      1.0  0.52530  0.19950  0.35330  1.0000 0.109862123
H   H116      1.0  0.66270  0.28330  0.41310  1.0000 0.109862123
H   H117      1.0  0.14360  0.43170  0.44000  1.0000 0.0814552792
H   H118      1.0  0.04440  0.45020  0.46450  1.0000 0.0891727549
H   H119      1.0  0.00150  0.44530  0.35290  1.0000 0.1016318351
H   H120      1.0  0.10700  0.49680  0.35920  1.0000 0.109862123
H   H121      1.0  0.91720  0.51550  0.39700  1.0000 0.1016318351
H   H122      1.0  0.02540  0.56690  0.41180  1.0000 0.109862123
H   H123      1.0  0.04440  0.63950  0.32580  1.0000 0.1189349102
H   H124      1.0  0.95880  0.63750  0.21290  1.0000 0.1189349102
H   H125      1.0  0.65030  0.36450  0.14210  1.0000 0.1016318351
H   H126      1.0  0.58810  0.31380  0.21580  1.0000 0.1189349102
H   H127      1.0  0.65110  0.35920  0.32150  1.0000 0.109862123
H   H128      1.0  0.77550  0.45190  0.34760  1.0000 0.109862123
C   C1        1.0  0.01260  0.58220  0.02250  1.0000 -0.1929196499
C   C2        1.0  0.94960  0.61510  0.97950  1.0000 -0.0489377719
C   C3        1.0  0.84340  0.61850  0.98050  1.0000 -0.1661277095
C   C4        1.0  0.79950  0.58730  0.02360  1.0000 0.0814552792
C   C5        1.0  0.96420  0.55170  0.06480  1.0000 0.1299012329
C   C6        1.0  0.01570  0.51220  0.11090  1.0000 0.1712943209
C   C7        1.0  0.02260  0.44680  0.18070  1.0000 -0.0489377719
C   C8        1.0  0.12540  0.46440  0.17440  1.0000 -0.0834426465
C   C9        1.0  0.22640  0.53330  0.11560  1.0000 -0.1284438367
C   C10       1.0  0.26510  0.60130  0.13850  1.0000 -0.2579892515
C   C11       1.0  0.26210  0.62030  0.20620  1.0000 -0.0232953517
C   C12       1.0  0.33240  0.59490  0.31200  1.0000 0.1803066102
C   C13       1.0  0.38400  0.55490  0.35140  1.0000 -0.0232953517
C   C14       1.0  0.38690  0.56470  0.41460  1.0000 -0.209536239
C   C15       1.0  0.34240  0.61150  0.44060  1.0000 -0.0232953517
C   C16       1.0  0.29720  0.65130  0.40010  1.0000 0.1803066102
C   C17       1.0  0.28750  0.64380  0.33550  1.0000 -0.4119517463
C   C18       1.0  0.43820  0.50415  0.32610  1.0000 -0.121298159
C   C19       1.0  0.35870  0.44240  0.30180  1.0000 0.0814552792
C   C20       1.0  0.37500  0.40390  0.25360  1.0000 -0.1802720957
C   C21       1.0  0.30310  0.34540  0.23280  1.0000 -0.1284438367
C   C22       1.0  0.22140  0.32650  0.25870  1.0000 -0.1284438367
C   C23       1.0  0.20660  0.36410  0.30780  1.0000 -0.121298159
C   C24       1.0  0.27350  0.42130  0.33040  1.0000 -0.1661277095
C   C25       1.0  0.54340  0.49690  0.37560  1.0000 -0.0273754877
C   C26       1.0  0.55020  0.44410  0.40790  1.0000 -0.2238886724
C   C27       1.0  0.64470  0.43780  0.45570  1.0000 -0.0273754877
C   C28       1.0  0.73460  0.48750  0.47180  1.0000 0.194301669
C   C29       1.0  0.73140  0.54100  0.44020  1.0000 -0.4216114837
C   C30       1.0  0.63800  0.54330  0.39180  1.0000 0.194301669
C   C31       1.0  0.72650  0.63170  0.35050  1.0000 -0.0232953517
C   C32       1.0  0.69730  0.65620  0.28660  1.0000 -0.2579892515
C   C33       1.0  0.59190  0.68530  0.27460  1.0000 -0.1076562884
C   C34       1.0  0.59110  0.77850  0.41670  1.0000 -0.0391507151
C   C35       1.0  0.56770  0.72400  0.37970  1.0000 -0.1284438367
C   C36       1.0  0.64640  0.79690  0.33200  1.0000 0.1712943209
C   C37       1.0  0.69040  0.83430  0.28790  1.0000 0.1299012329
C   C38       1.0  0.71610  0.81210  0.23500  1.0000 -0.1929196499
C   C39       1.0  0.75350  0.85550  0.19760  1.0000 -0.0489377719
C   C40       1.0  0.76340  0.91720  0.21470  1.0000 -0.1478501218
C   C41       1.0  0.73640  0.93550  0.26910  1.0000 0.0438491893
C   C42       1.0  0.50740  0.92850  0.54340  1.0000 -0.1802720957
C   C43       1.0  0.59060  0.94100  0.60090  1.0000 -0.0642869431
C   C44       1.0  0.70020  0.94790  0.60390  1.0000 -0.1661277095
C   C45       1.0  0.72680  0.94150  0.54520  1.0000 0.1016318351
C   C46       1.0  0.53960  0.92280  0.48810  1.0000 0.1189349102
C   C47       1.0  0.46910  0.91240  0.42370  1.0000 0.1712943209
C   C48       1.0  0.42980  0.91040  0.32210  1.0000 -0.0391507151
C   C49       1.0  0.33360  0.89370  0.33740  1.0000 -0.121298159
C   C50       1.0  0.27210  0.87340  0.43340  1.0000 -0.1284438367
C   C51       1.0  0.27860  0.80900  0.45420  1.0000 -0.2674287143
C   C52       1.0  0.26300  0.75730  0.40130  1.0000 -0.0273754877
C   C53       1.0  0.34630  0.62060  0.51010  1.0000 -0.1076562884
C   C54       1.0  0.43860  0.67650  0.54510  1.0000 0.0814552792
C   C55       1.0  0.54400  0.68110  0.53920  1.0000 -0.1624395179
C   C56       1.0  0.63240  0.73660  0.57980  1.0000 -0.098672885
C   C57       1.0  0.58680  0.77380  0.61450  1.0000 -0.1445991951
C   C58       1.0  0.49220  0.77080  0.62000  1.0000 -0.098672885
C   C59       1.0  0.41050  0.72050  0.58430  1.0000 -0.1929196499
C   C60       1.0  0.89850  0.53510  0.55620  1.0000 -0.0391507151
C   C61       1.0  0.95130  0.51770  0.62090  1.0000 -0.2674287143
C   C62       1.0  0.01940  0.46820  0.61840  1.0000 -0.121298159
C   C63       1.0  0.01140  0.39180  0.69990  1.0000 -0.1624395179
C   C64       1.0  0.05920  0.39330  0.76230  1.0000 -0.0391507151
C   C65       1.0  0.13920  0.47840  0.73440  1.0000 0.1299012329
C   C66       1.0  0.21330  0.53670  0.74210  1.0000 0.1490071756
C   C67       1.0  0.32440  0.61750  0.81580  1.0000 0.0474453499
C   C68       1.0  0.36220  0.64830  0.77260  1.0000 -0.1624395179
C   C69       1.0  0.32410  0.62130  0.71000  1.0000 -0.0489377719
C   C70       1.0  0.25030  0.56620  0.69450  1.0000 -0.1802720957
C   C71       1.0  0.98740  0.41780  0.97750  1.0000 -0.1929196499
C   C72       1.0  0.05040  0.38490  0.02050  1.0000 -0.0489377719
C   C73       1.0  0.15660  0.38150  0.01950  1.0000 -0.1661277095
C   C74       1.0  0.20050  0.41270  0.97640  1.0000 0.0814552792
C   C75       1.0  0.03580  0.44830  0.93520  1.0000 0.1299012329
C   C76       1.0  0.98430  0.48780  0.88910  1.0000 0.1712943209
C   C77       1.0  0.97740  0.55320  0.81930  1.0000 -0.0489377719
C   C78       1.0  0.87460  0.53560  0.82560  1.0000 -0.0834426465
C   C79       1.0  0.77360  0.46670  0.88440  1.0000 -0.1284438367
C   C80       1.0  0.73490  0.39870  0.86150  1.0000 -0.2579892515
C   C81       1.0  0.73790  0.37970  0.79380  1.0000 -0.0232953517
C   C82       1.0  0.66760  0.40510  0.68800  1.0000 0.1803066102
C   C83       1.0  0.61600  0.44510  0.64860  1.0000 -0.0273754877
C   C84       1.0  0.61310  0.43530  0.58540  1.0000 -0.209536239
C   C85       1.0  0.65760  0.38850  0.55940  1.0000 -0.0232953517
C   C86       1.0  0.70280  0.34870  0.59990  1.0000 0.1803066102
C   C87       1.0  0.71250  0.35620  0.66450  1.0000 -0.4119517463
C   C88       1.0  0.56180  0.49585  0.67390  1.0000 -0.121298159
C   C89       1.0  0.64130  0.55760  0.69820  1.0000 0.0814552792
C   C90       1.0  0.62500  0.59610  0.74640  1.0000 -0.1802720957
C   C91       1.0  0.69690  0.65460  0.76720  1.0000 -0.1284438367
C   C92       1.0  0.77860  0.67350  0.74130  1.0000 -0.1284438367
C   C93       1.0  0.79340  0.63590  0.69220  1.0000 -0.121298159
C   C94       1.0  0.72650  0.57870  0.66960  1.0000 -0.1661277095
C   C95       1.0  0.45660  0.50310  0.62440  1.0000 -0.0273754877
C   C96       1.0  0.44980  0.55590  0.59210  1.0000 -0.2238886724
C   C97       1.0  0.35530  0.56220  0.54430  1.0000 -0.0273754877
C   C98       1.0  0.26540  0.51250  0.52820  1.0000 0.194301669
C   C99       1.0  0.26860  0.45900  0.55980  1.0000 -0.4216114837
C   C100      1.0  0.36200  0.45670  0.60820  1.0000 0.194301669
C   C101      1.0  0.27350  0.36830  0.64950  1.0000 -0.0273754877
C   C102      1.0  0.30270  0.34380  0.71340  1.0000 -0.2579892515
C   C103      1.0  0.40810  0.31470  0.72540  1.0000 -0.1076562884
C   C104      1.0  0.40890  0.22150  0.58330  1.0000 -0.0391507151
C   C105      1.0  0.43230  0.27600  0.62030  1.0000 -0.1284438367
C   C106      1.0  0.35360  0.20310  0.66800  1.0000 0.1712943209
C   C107      1.0  0.30960  0.16570  0.71210  1.0000 0.1189349102
C   C108      1.0  0.28390  0.18790  0.76500  1.0000 -0.1929196499
C   C109      1.0  0.24650  0.14450  0.80240  1.0000 -0.0489377719
C   C110      1.0  0.23660  0.08280  0.78530  1.0000 -0.1478501218
C   C111      1.0  0.26360  0.06450  0.73090  1.0000 0.0438491893
C   C112      1.0  0.49260  0.07150  0.45660  1.0000 -0.1802720957
C   C113      1.0  0.40940  0.05900  0.39910  1.0000 -0.0642869431
C   C114      1.0  0.29980  0.05210  0.39610  1.0000 -0.1661277095
C   C115      1.0  0.27320  0.05850  0.45480  1.0000 0.1016318351
C   C116      1.0  0.46040  0.07720  0.51190  1.0000 0.1189349102
C   C117      1.0  0.53090  0.08760  0.57630  1.0000 0.1712943209
C   C118      1.0  0.57020  0.08960  0.67790  1.0000 -0.0391507151
C   C119      1.0  0.66640  0.10630  0.66260  1.0000 -0.121298159
C   C120      1.0  0.72790  0.12660  0.56660  1.0000 -0.1284438367
C   C121      1.0  0.72140  0.19100  0.54580  1.0000 -0.2674287143
C   C122      1.0  0.73700  0.24270  0.59870  1.0000 -0.0232953517
C   C123      1.0  0.65370  0.37940  0.48990  1.0000 -0.1076562884
C   C124      1.0  0.56140  0.32350  0.45490  1.0000 0.0814552792
C   C125      1.0  0.45600  0.31890  0.46080  1.0000 -0.1661277095
C   C126      1.0  0.36760  0.26340  0.42020  1.0000 -0.098672885
C   C127      1.0  0.41320  0.22620  0.38550  1.0000 -0.1445991951
C   C128      1.0  0.50780  0.22920  0.38000  1.0000 -0.098672885
C   C129      1.0  0.58950  0.27950  0.41570  1.0000 -0.1929196499
C   C130      1.0  0.10150  0.46490  0.44380  1.0000 -0.0391507151
C   C131      1.0  0.04870  0.48230  0.37910  1.0000 -0.2674287143
C   C132      1.0  0.98060  0.53180  0.38160  1.0000 -0.121298159
C   C133      1.0  0.98860  0.60820  0.30010  1.0000 -0.1624395179
C   C134      1.0  0.94080  0.60670  0.23770  1.0000 -0.0391507151
C   C135      1.0  0.86080  0.52160  0.26560  1.0000 0.1299012329
C   C136      1.0  0.78670  0.46330  0.25790  1.0000 0.1490071756
C   C137      1.0  0.67560  0.38250  0.18420  1.0000 0.0474453499
C   C138      1.0  0.63780  0.35170  0.22740  1.0000 -0.1624395179
C   C139      1.0  0.67590  0.37870  0.29000  1.0000 -0.0489377719
C   C140      1.0  0.74970  0.43380  0.30550  1.0000 -0.1802720957
N   N1        1.0  0.64250  0.82460  0.38830  1.0000 -0.3263324457
N   N2        1.0  0.70210  0.89640  0.30660  1.0000 -0.2880044314
N   N3        1.0  0.60000  0.73472  0.32520  1.0000 0.0027208119
N   N4        1.0  0.65010  0.92940  0.48980  1.0000 -0.2579892515
N   N5        1.0  0.51470  0.92320  0.37620  1.0000 -0.3113480913
N   N6        1.0  0.35740  0.89470  0.40130  1.0000 0.0081775305
N   N7        1.0  0.12310  0.50480  0.13177  1.0000 0.0081775305
N   N8        1.0  0.95230  0.47690  0.13936  1.0000 -0.3113480913
N   N9        1.0  0.85730  0.55410  0.06535  1.0000 -0.2579892515
N   N10       1.0  0.06120  0.44560  0.68115  1.0000 0.0027208119
N   N11       1.0  0.13820  0.44660  0.78480  1.0000 -0.3246892053
N   N12       1.0  0.25280  0.56270  0.80300  1.0000 -0.2880044314
N   N13       1.0  0.35750  0.17540  0.61170  1.0000 -0.3263324457
N   N14       1.0  0.29790  0.10360  0.69340  1.0000 -0.2880044314
N   N15       1.0  0.40000  0.26528  0.67480  1.0000 0.0027208119
N   N16       1.0  0.34990  0.07060  0.51020  1.0000 -0.2579892515
N   N17       1.0  0.48530  0.07680  0.62380  1.0000 -0.3113480913
N   N18       1.0  0.64260  0.10530  0.59870  1.0000 0.0081775305
N   N19       1.0  0.87690  0.49520  0.86823  1.0000 0.0081775305
N   N20       1.0  0.04770  0.52310  0.86064  1.0000 -0.3113480913
N   N21       1.0  0.14270  0.44590  0.93465  1.0000 -0.2579892515
N   N22       1.0  0.93880  0.55440  0.31885  1.0000 0.0027208119
N   N23       1.0  0.86180  0.55340  0.21520  1.0000 -0.3246892053
N   N24       1.0  0.74720  0.43730  0.19700  1.0000 -0.2880044314
O   O1        1.0  0.32700  0.58457  0.24799  1.0000 -0.2304025101
O   O2        1.0  0.25710  0.69922  0.42659  1.0000 -0.209536239
O   O3        1.0  0.62910  0.59226  0.35501  1.0000 -0.2355412501
O   O4        1.0  0.82570  0.48016  0.51993  1.0000 -0.2238886724
O   O5        1.0  0.72250  0.42360  0.05242  1.0000 -0.8714363086
O   O6        1.0  0.64720  0.53290  0.11002  1.0000 -0.8714363086
O   O7        1.0  0.49970  0.42040  0.05420  1.0000 -1.072006877
O   O8        1.0  0.42280  0.54100  0.05421  1.0000 -0.9971678215
O   O9        1.0  0.73650  0.01611  0.40190  1.0000 -0.9180829483
O   O10       1.0  0.85670  0.91352  0.43710  1.0000 -0.8801332372
O   O11       1.0  0.96610  0.01844  0.40240  1.0000 -1.0788351851
O   O12       1.0  0.09370  0.93920  0.48450  1.0000 -1.0525159793
O   O13       1.0  0.67300  0.41543  0.75201  1.0000 -0.2304025101
O   O14       1.0  0.74290  0.30078  0.57341  1.0000 -0.209536239
O   O15       1.0  0.37090  0.40774  0.64499  1.0000 -0.2304025101
O   O16       1.0  0.17430  0.51984  0.48007  1.0000 -0.2238886724
O   O17       1.0  0.27750  0.57640  0.94758  1.0000 -0.8714363086
O   O18       1.0  0.35280  0.46710  0.88998  1.0000 -0.8714363086
O   O19       1.0  0.50030  0.57960  0.94580  1.0000 -1.072006877
O   O20       1.0  0.57720  0.45900  0.94579  1.0000 -0.9971678215
O   O21       1.0  0.26350  0.98389  0.59810  1.0000 -0.9180829483
O   O22       1.0  0.14330  0.08648  0.56290  1.0000 -0.8801332372
O   O23       1.0  0.03390  0.98156  0.59760  1.0000 -1.0788351851
O   O24       1.0  0.90630  0.06080  0.51550  1.0000 -1.0525159793
