# DDEC6 charges by PACMAN v1.1 (https://github.com/mtap-research/PACMAN-charge/)
data_2017[Zn][nan]3[ASR]28
_chemical_formula_sum              "Zn12 P6 H24 C78 N12 O48"
_cell_length_a       19.8657
_cell_length_b       19.8657
_cell_length_c       19.8657
_cell_angle_alpha    116.903
_cell_angle_beta     116.903
_cell_angle_gamma    116.903

_symmetry_space_group_name_H-M    "P 1"
_symmetry_Int_Tables_number       1

loop_
  _symmetry_equiv_pos_as_xyz
  'x, y, z'

loop_
  _atom_site_type_symbol
  _atom_site_label
  _atom_site_symmetry_multiplicity
  _atom_site_fract_x
  _atom_site_fract_y
  _atom_site_fract_z
  _atom_site_occupancy
  _atom_site_charge
Zn  Zn1       1.0  0.25842  0.05985  0.56684  1.0000 0.9311764137
Zn  Zn2       1.0  0.57115  0.25787  0.82895  1.0000 1.0232569671
Zn  Zn3       1.0  0.05985  0.56684  0.25842  1.0000 0.9311764137
Zn  Zn4       1.0  0.25787  0.82895  0.57115  1.0000 1.0232569671
Zn  Zn5       1.0  0.56684  0.25842  0.05985  1.0000 0.9311764137
Zn  Zn6       1.0  0.82895  0.57115  0.25787  1.0000 1.0232569671
Zn  Zn7       1.0  0.74158  0.94015  0.43316  1.0000 0.9311764137
Zn  Zn8       1.0  0.42885  0.74213  0.17105  1.0000 1.0232569671
Zn  Zn9       1.0  0.94015  0.43316  0.74158  1.0000 0.9311764137
Zn  Zn10      1.0  0.74213  0.17105  0.42885  1.0000 1.0232569671
Zn  Zn11      1.0  0.43316  0.74158  0.94015  1.0000 0.9311764137
Zn  Zn12      1.0  0.17105  0.42885  0.74213  1.0000 1.0232569671
P   P1        1.0  0.71057  0.30095  0.03396  1.0000 1.4603471255
P   P2        1.0  0.30095  0.03396  0.71057  1.0000 1.4603471255
P   P3        1.0  0.03396  0.71057  0.30095  1.0000 1.4603471255
P   P4        1.0  0.28943  0.69905  0.96604  1.0000 1.4603471255
P   P5        1.0  0.69905  0.96604  0.28943  1.0000 1.4603471255
P   P6        1.0  0.96604  0.28943  0.69905  1.0000 1.4603471255
H   H1        1.0  0.70306  0.79677  0.14116  1.0000 0.1665669875
H   H2        1.0  0.38162  0.39542  0.79400  1.0000 0.1364447372
H   H3        1.0  0.74193  0.60450  0.09184  1.0000 0.1591173767
H   H4        1.0  0.95079  0.79458  0.28263  1.0000 0.1591173767
H   H5        1.0  0.79677  0.14116  0.70306  1.0000 0.1665669875
H   H6        1.0  0.39542  0.79400  0.38162  1.0000 0.1364447372
H   H7        1.0  0.60450  0.09184  0.74193  1.0000 0.1591173767
H   H8        1.0  0.79458  0.28263  0.95079  1.0000 0.1591173767
H   H9        1.0  0.14116  0.70306  0.79677  1.0000 0.1665669875
H   H10       1.0  0.79400  0.38162  0.39542  1.0000 0.1364447372
H   H11       1.0  0.09184  0.74193  0.60450  1.0000 0.1591173767
H   H12       1.0  0.28263  0.95079  0.79458  1.0000 0.1591173767
H   H13       1.0  0.29694  0.20323  0.85884  1.0000 0.1665669875
H   H14       1.0  0.61838  0.60458  0.20600  1.0000 0.1364447372
H   H15       1.0  0.25807  0.39550  0.90816  1.0000 0.1591173767
H   H16       1.0  0.04921  0.20542  0.71737  1.0000 0.1591173767
H   H17       1.0  0.20323  0.85884  0.29694  1.0000 0.1665669875
H   H18       1.0  0.60458  0.20600  0.61838  1.0000 0.1364447372
H   H19       1.0  0.39550  0.90816  0.25807  1.0000 0.1591173767
H   H20       1.0  0.20542  0.71737  0.04921  1.0000 0.1591173767
H   H21       1.0  0.85884  0.29694  0.20323  1.0000 0.1665669875
H   H22       1.0  0.20600  0.61838  0.60458  1.0000 0.1364447372
H   H23       1.0  0.90816  0.25807  0.39550  1.0000 0.1591173767
H   H24       1.0  0.71737  0.04921  0.20542  1.0000 0.1591173767
C   C1        1.0  0.49635  0.35604  0.84161  1.0000 0.6111251013
C   C2        1.0  0.66541  0.71762  0.08887  1.0000 -0.1473965127
C   C3        1.0  0.55295  0.48099  0.92946  1.0000 0.0102114521
C   C4        1.0  0.44147  0.58968  0.90495  1.0000 0.6111251013
C   C5        1.0  0.52950  0.59546  0.95964  1.0000 0.0195964081
C   C6        1.0  0.47292  0.47693  0.88005  1.0000 -0.1094289115
C   C7        1.0  0.74447  0.72004  0.13909  1.0000 0.1458514379
C   C8        1.0  0.68838  0.60231  0.05881  1.0000 -0.1598381205
C   C9        1.0  0.97283  0.86365  0.32722  1.0000 0.0536134401
C   C10       1.0  0.09120  0.06040  0.45310  1.0000 0.0609269069
C   C11       1.0  0.96410  0.97640  0.34410  1.0000 0.0195964081
C   C12       1.0  0.07260  0.04020  0.49250  1.0000 0.0102114521
C   C13       1.0  0.94170  0.95080  0.38460  1.0000 0.0102114521
C   C14       1.0  0.35604  0.84161  0.49635  1.0000 0.6111251013
C   C15       1.0  0.71762  0.08887  0.66541  1.0000 -0.1473965127
C   C16       1.0  0.48099  0.92946  0.55295  1.0000 0.0102114521
C   C17       1.0  0.58968  0.90495  0.44147  1.0000 0.6111251013
C   C18       1.0  0.59546  0.95964  0.52950  1.0000 0.0195964081
C   C19       1.0  0.47693  0.88005  0.47292  1.0000 -0.1094289115
C   C20       1.0  0.72004  0.13909  0.74447  1.0000 0.1458514379
C   C21       1.0  0.60231  0.05881  0.68838  1.0000 -0.1598381205
C   C22       1.0  0.86365  0.32722  0.97283  1.0000 0.0609269069
C   C23       1.0  0.06040  0.45310  0.09120  1.0000 0.0609269069
C   C24       1.0  0.97640  0.34410  0.96410  1.0000 0.0195964081
C   C25       1.0  0.04020  0.49250  0.07260  1.0000 0.0102114521
C   C26       1.0  0.95080  0.38460  0.94170  1.0000 0.0102114521
C   C27       1.0  0.84161  0.49635  0.35604  1.0000 0.6111251013
C   C28       1.0  0.08887  0.66541  0.71762  1.0000 -0.1473965127
C   C29       1.0  0.92946  0.55295  0.48099  1.0000 0.0102114521
C   C30       1.0  0.90495  0.44147  0.58968  1.0000 0.6111251013
C   C31       1.0  0.95964  0.52950  0.59546  1.0000 0.0195964081
C   C32       1.0  0.88005  0.47292  0.47693  1.0000 -0.1094289115
C   C33       1.0  0.13909  0.74447  0.72004  1.0000 0.1458514379
C   C34       1.0  0.05881  0.68838  0.60231  1.0000 -0.1598381205
C   C35       1.0  0.32722  0.97283  0.86365  1.0000 0.0609269069
C   C36       1.0  0.45310  0.09120  0.06040  1.0000 0.0609269069
C   C37       1.0  0.34410  0.96410  0.97640  1.0000 0.0195964081
C   C38       1.0  0.49250  0.07260  0.04020  1.0000 0.0102114521
C   C39       1.0  0.38460  0.94170  0.95080  1.0000 0.0102114521
C   C40       1.0  0.50365  0.64396  0.15839  1.0000 0.6111251013
C   C41       1.0  0.33459  0.28238  0.91113  1.0000 -0.1473965127
C   C42       1.0  0.44705  0.51901  0.07054  1.0000 0.0102114521
C   C43       1.0  0.55853  0.41032  0.09505  1.0000 0.6111251013
C   C44       1.0  0.47050  0.40454  0.04036  1.0000 0.0195964081
C   C45       1.0  0.52708  0.52307  0.11995  1.0000 -0.1094289115
C   C46       1.0  0.25553  0.27996  0.86091  1.0000 0.1458514379
C   C47       1.0  0.31162  0.39769  0.94119  1.0000 -0.1598381205
C   C48       1.0  0.02717  0.13635  0.67278  1.0000 0.0609269069
C   C49       1.0  0.90880  0.93960  0.54690  1.0000 0.0609269069
C   C50       1.0  0.03590  0.02360  0.65590  1.0000 0.0195964081
C   C51       1.0  0.92740  0.95980  0.50750  1.0000 0.0102114521
C   C52       1.0  0.05830  0.04920  0.61540  1.0000 0.0102114521
C   C53       1.0  0.64396  0.15839  0.50365  1.0000 0.6111251013
C   C54       1.0  0.28238  0.91113  0.33459  1.0000 -0.1473965127
C   C55       1.0  0.51901  0.07054  0.44705  1.0000 0.0102114521
C   C56       1.0  0.41032  0.09505  0.55853  1.0000 0.6111251013
C   C57       1.0  0.40454  0.04036  0.47050  1.0000 0.0195964081
C   C58       1.0  0.52307  0.11995  0.52708  1.0000 -0.1094289115
C   C59       1.0  0.27996  0.86091  0.25553  1.0000 0.1458514379
C   C60       1.0  0.39769  0.94119  0.31162  1.0000 -0.1598381205
C   C61       1.0  0.13635  0.67278  0.02717  1.0000 0.0536134401
C   C62       1.0  0.93960  0.54690  0.90880  1.0000 0.0609269069
C   C63       1.0  0.02360  0.65590  0.03590  1.0000 0.0250555304
C   C64       1.0  0.95980  0.50750  0.92740  1.0000 0.0102114521
C   C65       1.0  0.04920  0.61540  0.05830  1.0000 0.0102114521
C   C66       1.0  0.15839  0.50365  0.64396  1.0000 0.6111251013
C   C67       1.0  0.91113  0.33459  0.28238  1.0000 -0.1473965127
C   C68       1.0  0.07054  0.44705  0.51901  1.0000 0.0102114521
C   C69       1.0  0.09505  0.55853  0.41032  1.0000 0.6111251013
C   C70       1.0  0.04036  0.47050  0.40454  1.0000 0.0195964081
C   C71       1.0  0.11995  0.52708  0.52307  1.0000 -0.1094289115
C   C72       1.0  0.86091  0.25553  0.27996  1.0000 0.1458514379
C   C73       1.0  0.94119  0.31162  0.39769  1.0000 -0.1598381205
C   C74       1.0  0.67278  0.02717  0.13635  1.0000 0.0536134401
C   C75       1.0  0.54690  0.90880  0.93960  1.0000 0.0609269069
C   C76       1.0  0.65590  0.03590  0.02360  1.0000 0.0195964081
C   C77       1.0  0.50750  0.92740  0.95980  1.0000 0.0102114521
C   C78       1.0  0.61540  0.05830  0.04920  1.0000 0.0102114521
N   N1        1.0  0.09423  0.98691  0.44886  1.0000 -0.0900994394
N   N2        1.0  0.88406  0.84377  0.27213  1.0000 0.0609269069
N   N3        1.0  0.98691  0.44886  0.09423  1.0000 -0.0900994394
N   N4        1.0  0.84377  0.27213  0.88406  1.0000 0.0609269069
N   N5        1.0  0.44886  0.09423  0.98691  1.0000 -0.0900994394
N   N6        1.0  0.27213  0.88406  0.84377  1.0000 0.0609269069
N   N7        1.0  0.90577  0.01309  0.55114  1.0000 -0.0900994394
N   N8        1.0  0.11594  0.15623  0.72787  1.0000 0.0609269069
N   N9        1.0  0.01309  0.55114  0.90577  1.0000 -0.0900994394
N   N10       1.0  0.15623  0.72787  0.11594  1.0000 0.0609269069
N   N11       1.0  0.55114  0.90577  0.01309  1.0000 -0.0900994394
N   N12       1.0  0.72787  0.11594  0.15623  1.0000 0.0609269069
O   O1        1.0  0.57568  0.36901  0.89811  1.0000 -0.5174650653
O   O2        1.0  0.32987  0.49515  0.83928  1.0000 -0.5397546543
O   O3        1.0  0.37865  0.25194  0.72051  1.0000 -0.5397546543
O   O4        1.0  0.48521  0.67673  0.92566  1.0000 -0.4990499123
O   O5        1.0  0.62694  0.22402  0.90004  1.0000 -0.7620232953
O   O6        1.0  0.68972  0.36132  0.08006  1.0000 -0.783760856
O   O7        1.0  0.84930  0.40478  0.12812  1.0000 -0.7433949216
O   O8        1.0  0.66142  0.20641  0.01787  1.0000 -0.7620232953
O   O9        1.0  0.36901  0.89811  0.57568  1.0000 -0.5174650653
O   O10       1.0  0.49515  0.83928  0.32987  1.0000 -0.5397546543
O   O11       1.0  0.25194  0.72051  0.37865  1.0000 -0.5397546543
O   O12       1.0  0.67673  0.92566  0.48521  1.0000 -0.4990499123
O   O13       1.0  0.22402  0.90004  0.62694  1.0000 -0.7620232953
O   O14       1.0  0.36132  0.08006  0.68972  1.0000 -0.783760856
O   O15       1.0  0.40478  0.12812  0.84930  1.0000 -0.7433949216
O   O16       1.0  0.20641  0.01787  0.66142  1.0000 -0.7620232953
O   O17       1.0  0.89811  0.57568  0.36901  1.0000 -0.5174650653
O   O18       1.0  0.83928  0.32987  0.49515  1.0000 -0.5397546543
O   O19       1.0  0.72051  0.37865  0.25194  1.0000 -0.5397546543
O   O20       1.0  0.92566  0.48521  0.67673  1.0000 -0.4990499123
O   O21       1.0  0.90004  0.62694  0.22402  1.0000 -0.7620232953
O   O22       1.0  0.08006  0.68972  0.36132  1.0000 -0.783760856
O   O23       1.0  0.12812  0.84930  0.40478  1.0000 -0.7433949216
O   O24       1.0  0.01787  0.66142  0.20641  1.0000 -0.7620232953
O   O25       1.0  0.42432  0.63099  0.10189  1.0000 -0.5174650653
O   O26       1.0  0.67013  0.50485  0.16072  1.0000 -0.5397546543
O   O27       1.0  0.62135  0.74806  0.27949  1.0000 -0.5397546543
O   O28       1.0  0.51479  0.32327  0.07434  1.0000 -0.4990499123
O   O29       1.0  0.37306  0.77598  0.09996  1.0000 -0.7620232953
O   O30       1.0  0.31028  0.63868  0.91994  1.0000 -0.783760856
O   O31       1.0  0.15070  0.59522  0.87188  1.0000 -0.7433949216
O   O32       1.0  0.33858  0.79359  0.98213  1.0000 -0.7620232953
O   O33       1.0  0.63099  0.10189  0.42432  1.0000 -0.5174650653
O   O34       1.0  0.50485  0.16072  0.67013  1.0000 -0.5397546543
O   O35       1.0  0.74806  0.27949  0.62135  1.0000 -0.5397546543
O   O36       1.0  0.32327  0.07434  0.51479  1.0000 -0.4990499123
O   O37       1.0  0.77598  0.09996  0.37306  1.0000 -0.7620232953
O   O38       1.0  0.63868  0.91994  0.31028  1.0000 -0.783760856
O   O39       1.0  0.59522  0.87188  0.15070  1.0000 -0.7433949216
O   O40       1.0  0.79359  0.98213  0.33858  1.0000 -0.7620232953
O   O41       1.0  0.10189  0.42432  0.63099  1.0000 -0.5174650653
O   O42       1.0  0.16072  0.67013  0.50485  1.0000 -0.5397546543
O   O43       1.0  0.27949  0.62135  0.74806  1.0000 -0.5397546543
O   O44       1.0  0.07434  0.51479  0.32327  1.0000 -0.4990499123
O   O45       1.0  0.09996  0.37306  0.77598  1.0000 -0.7620232953
O   O46       1.0  0.91994  0.31028  0.63868  1.0000 -0.783760856
O   O47       1.0  0.87188  0.15070  0.59522  1.0000 -0.7433949216
O   O48       1.0  0.98213  0.33858  0.79359  1.0000 -0.7620232953
