# DDEC6 charges by PACMAN v1.1 (https://github.com/mtap-research/PACMAN-charge/)
data_2017[Co][pcu]2[ASR]1
_chemical_formula_sum              "Co8 H88 C144 N56 O48"
_cell_length_a       10.0389
_cell_length_b       19.73
_cell_length_c       20.131
_cell_angle_alpha    90
_cell_angle_beta     90
_cell_angle_gamma    90

_symmetry_space_group_name_H-M    "P 1"
_symmetry_Int_Tables_number       1

loop_
  _symmetry_equiv_pos_as_xyz
  'x, y, z'

loop_
  _atom_site_type_symbol
  _atom_site_label
  _atom_site_symmetry_multiplicity
  _atom_site_fract_x
  _atom_site_fract_y
  _atom_site_fract_z
  _atom_site_occupancy
  _atom_site_charge
Co  Co1       1.0  0.92280  0.95987  0.05703  1.0000 0.8422157536
Co  Co2       1.0  0.91597  0.55477  0.56114  1.0000 0.8495967905
Co  Co3       1.0  0.07720  0.45987  0.44297  1.0000 0.8422157536
Co  Co4       1.0  0.08403  0.05477  0.93886  1.0000 0.8495967905
Co  Co5       1.0  0.57720  0.04013  0.55703  1.0000 0.8422157536
Co  Co6       1.0  0.58403  0.44523  0.06114  1.0000 0.8495967905
Co  Co7       1.0  0.42280  0.54013  0.94297  1.0000 0.8422157536
Co  Co8       1.0  0.41597  0.94523  0.43886  1.0000 0.8495967905
H   H1        1.0  0.09680  0.87070  0.95250  1.0000 0.1319806165
H   H2        1.0  0.77230  0.81620  0.05020  1.0000 0.1213042231
H   H3        1.0  0.82730  0.72250  0.97570  1.0000 0.1407518099
H   H4        1.0  0.89210  0.68670  0.86760  1.0000 0.1628450225
H   H5        1.0  0.30440  0.76170  0.80640  1.0000 0.093011837
H   H6        1.0  0.82040  0.59120  0.81050  1.0000 0.1319806165
H   H7        1.0  0.76020  0.53440  0.70580  1.0000 0.1213042231
H   H8        1.0  0.08220  0.64430  0.66860  1.0000 0.1141246609
H   H9        1.0  0.06460  0.85580  0.15800  1.0000 0.1213042231
H   H10       1.0  0.78340  0.98870  0.20390  1.0000 0.1213042231
H   H11       1.0  0.82350  0.92100  0.30470  1.0000 0.1319806165
H   H12       1.0  0.88820  0.82340  0.36490  1.0000 0.1628450225
H   H13       1.0  0.25830  0.71950  0.28270  1.0000 0.093011837
H   H14       1.0  0.07340  0.63200  0.44710  1.0000 0.1319806165
H   H15       1.0  0.79710  0.71080  0.56420  1.0000 0.1213042231
H   H16       1.0  0.84130  0.79520  0.47730  1.0000 0.1407518099
H   H17       1.0  0.46140  0.56050  0.57050  1.0000 0.1213042231
H   H18       1.0  0.60970  0.37380  0.60810  1.0000 0.1319806165
H   H19       1.0  0.21020  0.40290  0.60120  1.0000 0.1319806165
H   H20       1.0  0.45560  0.94930  0.06840  1.0000 0.1213042231
H   H21       1.0  0.22260  0.11290  0.10200  1.0000 0.1319806165
H   H22       1.0  0.62600  0.12950  0.11340  1.0000 0.1319806165
H   H23       1.0  0.90320  0.37070  0.54750  1.0000 0.1319806165
H   H24       1.0  0.22770  0.31620  0.44980  1.0000 0.1213042231
H   H25       1.0  0.17270  0.22250  0.52430  1.0000 0.1407518099
H   H26       1.0  0.10790  0.18670  0.63240  1.0000 0.1628450225
H   H27       1.0  0.69560  0.26170  0.69360  1.0000 0.093011837
H   H28       1.0  0.17960  0.09120  0.68950  1.0000 0.1319806165
H   H29       1.0  0.23980  0.03440  0.79420  1.0000 0.1213042231
H   H30       1.0  0.91780  0.14430  0.83140  1.0000 0.1141246609
H   H31       1.0  0.93540  0.35580  0.34200  1.0000 0.1213042231
H   H32       1.0  0.21660  0.48870  0.29610  1.0000 0.1213042231
H   H33       1.0  0.17650  0.42100  0.19530  1.0000 0.1319806165
H   H34       1.0  0.11180  0.32340  0.13510  1.0000 0.1628450225
H   H35       1.0  0.74170  0.21950  0.21730  1.0000 0.093011837
H   H36       1.0  0.92660  0.13200  0.05290  1.0000 0.1319806165
H   H37       1.0  0.20290  0.21080  0.93580  1.0000 0.1213042231
H   H38       1.0  0.15870  0.29520  0.02270  1.0000 0.1407518099
H   H39       1.0  0.53860  0.06050  0.92950  1.0000 0.1213042231
H   H40       1.0  0.39030  0.87380  0.89190  1.0000 0.1319806165
H   H41       1.0  0.78980  0.90290  0.89880  1.0000 0.1319806165
H   H42       1.0  0.54440  0.44930  0.43160  1.0000 0.1213042231
H   H43       1.0  0.77740  0.61290  0.39800  1.0000 0.1319806165
H   H44       1.0  0.37400  0.62950  0.38660  1.0000 0.1319806165
H   H45       1.0  0.40320  0.12930  0.45250  1.0000 0.1319806165
H   H46       1.0  0.72770  0.18380  0.55020  1.0000 0.1213042231
H   H47       1.0  0.67270  0.27750  0.47570  1.0000 0.1407518099
H   H48       1.0  0.60790  0.31330  0.36760  1.0000 0.1628450225
H   H49       1.0  0.19560  0.23830  0.30640  1.0000 0.093011837
H   H50       1.0  0.67960  0.40880  0.31050  1.0000 0.1319806165
H   H51       1.0  0.73980  0.46560  0.20580  1.0000 0.1213042231
H   H52       1.0  0.41780  0.35570  0.16860  1.0000 0.1141246609
H   H53       1.0  0.43540  0.14420  0.65800  1.0000 0.1213042231
H   H54       1.0  0.71660  0.01130  0.70390  1.0000 0.1213042231
H   H55       1.0  0.67650  0.07900  0.80470  1.0000 0.1319806165
H   H56       1.0  0.61180  0.17660  0.86490  1.0000 0.1628450225
H   H57       1.0  0.24170  0.28050  0.78270  1.0000 0.093011837
H   H58       1.0  0.42660  0.36800  0.94710  1.0000 0.1319806165
H   H59       1.0  0.70290  0.28920  0.06420  1.0000 0.1213042231
H   H60       1.0  0.65870  0.20480  0.97730  1.0000 0.1407518099
H   H61       1.0  0.03860  0.43950  0.07050  1.0000 0.1213042231
H   H62       1.0  0.89030  0.62620  0.10810  1.0000 0.1319806165
H   H63       1.0  0.28980  0.59710  0.10120  1.0000 0.1319806165
H   H64       1.0  0.04440  0.05070  0.56840  1.0000 0.1213042231
H   H65       1.0  0.27740  0.88710  0.60200  1.0000 0.1319806165
H   H66       1.0  0.87400  0.87050  0.61340  1.0000 0.1319806165
H   H67       1.0  0.59680  0.62930  0.04750  1.0000 0.1319806165
H   H68       1.0  0.27230  0.68380  0.94980  1.0000 0.1213042231
H   H69       1.0  0.32730  0.77750  0.02430  1.0000 0.1407518099
H   H70       1.0  0.39210  0.81330  0.13240  1.0000 0.1628450225
H   H71       1.0  0.80440  0.73830  0.19360  1.0000 0.093011837
H   H72       1.0  0.32040  0.90880  0.18950  1.0000 0.1319806165
H   H73       1.0  0.26020  0.96560  0.29420  1.0000 0.1213042231
H   H74       1.0  0.58220  0.85570  0.33140  1.0000 0.1141246609
H   H75       1.0  0.56460  0.64420  0.84200  1.0000 0.1213042231
H   H76       1.0  0.28340  0.51130  0.79610  1.0000 0.1213042231
H   H77       1.0  0.32350  0.57900  0.69530  1.0000 0.1319806165
H   H78       1.0  0.38820  0.67660  0.63510  1.0000 0.1628450225
H   H79       1.0  0.75830  0.78050  0.71730  1.0000 0.093011837
H   H80       1.0  0.57340  0.86800  0.55290  1.0000 0.1319806165
H   H81       1.0  0.29710  0.78920  0.43580  1.0000 0.1213042231
H   H82       1.0  0.34130  0.70480  0.52270  1.0000 0.1407518099
H   H83       1.0  0.96140  0.93950  0.42950  1.0000 0.1213042231
H   H84       1.0  0.10970  0.12620  0.39190  1.0000 0.1319806165
H   H85       1.0  0.71020  0.09710  0.39880  1.0000 0.1319806165
H   H86       1.0  0.95560  0.55070  0.93160  1.0000 0.1213042231
H   H87       1.0  0.72260  0.38710  0.89800  1.0000 0.1319806165
H   H88       1.0  0.12600  0.37050  0.88660  1.0000 0.1319806165
C   C1        1.0  0.02210  0.84550  0.96760  1.0000 0.1407518099
C   C2        1.0  0.84570  0.81520  0.02040  1.0000 -0.0295346596
C   C3        1.0  0.87490  0.76390  0.98010  1.0000 -0.0982598602
C   C4        1.0  0.04570  0.75070  0.89020  1.0000 0.3488690923
C   C5        1.0  0.97750  0.70260  0.85450  1.0000 -0.3328243524
C   C6        1.0  0.04190  0.67880  0.79810  1.0000 0.3630309324
C   C7        1.0  0.21850  0.74620  0.81900  1.0000 0.238056961
C   C8        1.0  0.86570  0.59490  0.76920  1.0000 -0.0982598602
C   C9        1.0  0.83380  0.56410  0.71180  1.0000 -0.0210167511
C   C10       1.0  0.00910  0.62360  0.69060  1.0000 0.1407518099
C   C11       1.0  0.00000  0.88110  0.18200  1.0000 0.1319806165
C   C12       1.0  0.84630  0.95300  0.20780  1.0000 -0.0210167511
C   C13       1.0  0.86760  0.91630  0.26320  1.0000 -0.0923999702
C   C14       1.0  0.02400  0.81970  0.28800  1.0000 0.3488690923
C   C15       1.0  0.96580  0.80190  0.34800  1.0000 -0.3203041235
C   C16       1.0  0.03100  0.75030  0.38100  1.0000 0.343544058
C   C17       1.0  0.18190  0.74170  0.30010  1.0000 0.238056961
C   C18       1.0  0.00930  0.66190  0.46570  1.0000 0.1407518099
C   C19       1.0  0.85880  0.70560  0.52880  1.0000 -0.0295346596
C   C20       1.0  0.88260  0.75210  0.48190  1.0000 -0.0923999702
C   C21       1.0  0.20120  0.53570  0.57190  1.0000 0.5603877599
C   C22       1.0  0.31740  0.48930  0.58390  1.0000 -0.0081299511
C   C23       1.0  0.44710  0.51390  0.57960  1.0000 -0.1105212164
C   C24       1.0  0.55540  0.47150  0.58840  1.0000 0.0070034647
C   C25       1.0  0.53630  0.40370  0.60260  1.0000 -0.1497587007
C   C26       1.0  0.40650  0.38080  0.60870  1.0000 0.0698514408
C   C27       1.0  0.29760  0.42110  0.59840  1.0000 -0.138829662
C   C28       1.0  0.69310  0.50040  0.58020  1.0000 0.5261996756
C   C29       1.0  0.69400  0.00380  0.07740  1.0000 0.5202096919
C   C30       1.0  0.55980  0.03460  0.08840  1.0000 0.0022616128
C   C31       1.0  0.44690  0.99610  0.07840  1.0000 -0.1105212164
C   C32       1.0  0.32110  0.02450  0.08280  1.0000 0.0022616128
C   C33       1.0  0.30790  0.09210  0.09950  1.0000 -0.138829662
C   C34       1.0  0.42310  0.12890  0.11260  1.0000 0.0698514408
C   C35       1.0  0.54920  0.10240  0.10610  1.0000 -0.1497587007
C   C36       1.0  0.20290  0.97960  0.06920  1.0000 0.5603877599
C   C37       1.0  0.97790  0.34550  0.53240  1.0000 0.1407518099
C   C38       1.0  0.15430  0.31520  0.47960  1.0000 -0.0295346596
C   C39       1.0  0.12510  0.26390  0.51990  1.0000 -0.0982598602
C   C40       1.0  0.95430  0.25070  0.60980  1.0000 0.3488690923
C   C41       1.0  0.02250  0.20260  0.64550  1.0000 -0.3328243524
C   C42       1.0  0.95810  0.17880  0.70190  1.0000 0.3630309324
C   C43       1.0  0.78150  0.24620  0.68100  1.0000 0.238056961
C   C44       1.0  0.13430  0.09490  0.73080  1.0000 -0.0982598602
C   C45       1.0  0.16620  0.06410  0.78820  1.0000 -0.0210167511
C   C46       1.0  0.99090  0.12360  0.80940  1.0000 0.1407518099
C   C47       1.0  0.00000  0.38110  0.31800  1.0000 0.1319806165
C   C48       1.0  0.15370  0.45300  0.29220  1.0000 -0.0210167511
C   C49       1.0  0.13240  0.41630  0.23680  1.0000 -0.0923999702
C   C50       1.0  0.97600  0.31970  0.21200  1.0000 0.3488690923
C   C51       1.0  0.03420  0.30190  0.15200  1.0000 -0.3203041235
C   C52       1.0  0.96900  0.25030  0.11900  1.0000 0.343544058
C   C53       1.0  0.81810  0.24170  0.19990  1.0000 0.238056961
C   C54       1.0  0.99070  0.16190  0.03430  1.0000 0.1407518099
C   C55       1.0  0.14120  0.20560  0.97120  1.0000 -0.0295346596
C   C56       1.0  0.11740  0.25210  0.01810  1.0000 -0.0923999702
C   C57       1.0  0.79880  0.03570  0.92810  1.0000 0.5603877599
C   C58       1.0  0.68260  0.98930  0.91610  1.0000 -0.0081299511
C   C59       1.0  0.55290  0.01390  0.92040  1.0000 -0.1105212164
C   C60       1.0  0.44460  0.97150  0.91160  1.0000 0.0070034647
C   C61       1.0  0.46370  0.90370  0.89740  1.0000 -0.1497587007
C   C62       1.0  0.59350  0.88080  0.89130  1.0000 0.0698514408
C   C63       1.0  0.70240  0.92110  0.90160  1.0000 -0.138829662
C   C64       1.0  0.30690  0.00040  0.91980  1.0000 0.5261996756
C   C65       1.0  0.30600  0.50380  0.42260  1.0000 0.5202096919
C   C66       1.0  0.44020  0.53460  0.41160  1.0000 0.0022616128
C   C67       1.0  0.55310  0.49610  0.42160  1.0000 -0.1105212164
C   C68       1.0  0.67890  0.52450  0.41720  1.0000 0.0022616128
C   C69       1.0  0.69210  0.59210  0.40050  1.0000 -0.138829662
C   C70       1.0  0.57690  0.62890  0.38740  1.0000 0.0698514408
C   C71       1.0  0.45080  0.60240  0.39390  1.0000 -0.1497587007
C   C72       1.0  0.79710  0.47960  0.43080  1.0000 0.5603877599
C   C73       1.0  0.47790  0.15450  0.46760  1.0000 0.1407518099
C   C74       1.0  0.65430  0.18480  0.52040  1.0000 -0.0295346596
C   C75       1.0  0.62510  0.23610  0.48010  1.0000 -0.0982598602
C   C76       1.0  0.45430  0.24930  0.39020  1.0000 0.3488690923
C   C77       1.0  0.52250  0.29740  0.35450  1.0000 -0.3328243524
C   C78       1.0  0.45810  0.32120  0.29810  1.0000 0.3630309324
C   C79       1.0  0.28150  0.25380  0.31900  1.0000 0.238056961
C   C80       1.0  0.63430  0.40510  0.26920  1.0000 -0.0982598602
C   C81       1.0  0.66620  0.43590  0.21180  1.0000 -0.0210167511
C   C82       1.0  0.49090  0.37640  0.19060  1.0000 0.1407518099
C   C83       1.0  0.50000  0.11890  0.68200  1.0000 0.1319806165
C   C84       1.0  0.65370  0.04700  0.70780  1.0000 -0.0210167511
C   C85       1.0  0.63240  0.08370  0.76320  1.0000 -0.0923999702
C   C86       1.0  0.47600  0.18030  0.78800  1.0000 0.3488690923
C   C87       1.0  0.53420  0.19810  0.84800  1.0000 -0.3203041235
C   C88       1.0  0.46900  0.24970  0.88100  1.0000 0.343544058
C   C89       1.0  0.31810  0.25830  0.80010  1.0000 0.238056961
C   C90       1.0  0.49070  0.33810  0.96570  1.0000 0.1407518099
C   C91       1.0  0.64120  0.29440  0.02880  1.0000 -0.0295346596
C   C92       1.0  0.61740  0.24790  0.98190  1.0000 -0.0923999702
C   C93       1.0  0.29880  0.46430  0.07190  1.0000 0.5603877599
C   C94       1.0  0.18260  0.51070  0.08390  1.0000 -0.0081299511
C   C95       1.0  0.05290  0.48610  0.07960  1.0000 -0.1105212164
C   C96       1.0  0.94460  0.52850  0.08840  1.0000 0.0070034647
C   C97       1.0  0.96370  0.59630  0.10260  1.0000 -0.1497587007
C   C98       1.0  0.09350  0.61920  0.10870  1.0000 0.0698514408
C   C99       1.0  0.20240  0.57890  0.09840  1.0000 -0.138829662
C   C100      1.0  0.80690  0.49960  0.08020  1.0000 0.5261996756
C   C101      1.0  0.80600  0.99620  0.57740  1.0000 0.5202096919
C   C102      1.0  0.94020  0.96540  0.58840  1.0000 0.0022616128
C   C103      1.0  0.05310  0.00390  0.57840  1.0000 -0.1105212164
C   C104      1.0  0.17890  0.97550  0.58280  1.0000 0.0022616128
C   C105      1.0  0.19210  0.90790  0.59950  1.0000 -0.138829662
C   C106      1.0  0.07690  0.87110  0.61260  1.0000 0.0698514408
C   C107      1.0  0.95080  0.89760  0.60610  1.0000 -0.1497587007
C   C108      1.0  0.29710  0.02040  0.56920  1.0000 0.5603877599
C   C109      1.0  0.52210  0.65450  0.03240  1.0000 0.1407518099
C   C110      1.0  0.34570  0.68480  0.97960  1.0000 -0.0295346596
C   C111      1.0  0.37490  0.73610  0.01990  1.0000 -0.0982598602
C   C112      1.0  0.54570  0.74930  0.10980  1.0000 0.3488690923
C   C113      1.0  0.47750  0.79740  0.14550  1.0000 -0.3328243524
C   C114      1.0  0.54190  0.82120  0.20190  1.0000 0.3630309324
C   C115      1.0  0.71850  0.75380  0.18100  1.0000 0.238056961
C   C116      1.0  0.36570  0.90510  0.23080  1.0000 -0.0982598602
C   C117      1.0  0.33380  0.93590  0.28820  1.0000 -0.0210167511
C   C118      1.0  0.50910  0.87640  0.30940  1.0000 0.1407518099
C   C119      1.0  0.50000  0.61890  0.81800  1.0000 0.1319806165
C   C120      1.0  0.34630  0.54700  0.79220  1.0000 -0.0210167511
C   C121      1.0  0.36760  0.58370  0.73680  1.0000 -0.0923999702
C   C122      1.0  0.52400  0.68030  0.71200  1.0000 0.3488690923
C   C123      1.0  0.46580  0.69810  0.65200  1.0000 -0.3203041235
C   C124      1.0  0.53100  0.74970  0.61900  1.0000 0.343544058
C   C125      1.0  0.68190  0.75830  0.69990  1.0000 0.238056961
C   C126      1.0  0.50930  0.83810  0.53430  1.0000 0.1407518099
C   C127      1.0  0.35880  0.79440  0.47120  1.0000 -0.0295346596
C   C128      1.0  0.38260  0.74790  0.51810  1.0000 -0.0923999702
C   C129      1.0  0.70120  0.96430  0.42810  1.0000 0.5603877599
C   C130      1.0  0.81740  0.01070  0.41610  1.0000 -0.0081299511
C   C131      1.0  0.94710  0.98610  0.42040  1.0000 -0.1105212164
C   C132      1.0  0.05540  0.02850  0.41160  1.0000 0.0070034647
C   C133      1.0  0.03630  0.09630  0.39740  1.0000 -0.1497587007
C   C134      1.0  0.90650  0.11920  0.39130  1.0000 0.0698514408
C   C135      1.0  0.79760  0.07890  0.40160  1.0000 -0.138829662
C   C136      1.0  0.19310  0.99960  0.41980  1.0000 0.5261996756
C   C137      1.0  0.19400  0.49620  0.92260  1.0000 0.5202096919
C   C138      1.0  0.05980  0.46540  0.91160  1.0000 0.0022616128
C   C139      1.0  0.94690  0.50390  0.92160  1.0000 -0.1105212164
C   C140      1.0  0.82110  0.47550  0.91720  1.0000 0.0022616128
C   C141      1.0  0.80790  0.40790  0.90050  1.0000 -0.138829662
C   C142      1.0  0.92310  0.37110  0.88740  1.0000 0.0698514408
C   C143      1.0  0.04920  0.39760  0.89390  1.0000 -0.1497587007
C   C144      1.0  0.70290  0.52040  0.93080  1.0000 0.5603877599
N   N1        1.0  0.93720  0.86670  0.01280  1.0000 -0.2892057789
N   N2        1.0  0.98840  0.78290  0.94560  1.0000 -0.0210167511
N   N3        1.0  0.16680  0.77340  0.87450  1.0000 -0.3675977915
N   N4        1.0  0.16240  0.69960  0.77970  1.0000 -0.3675977915
N   N5        1.0  0.97830  0.63310  0.75570  1.0000 -0.0210167511
N   N6        1.0  0.92500  0.58210  0.66220  1.0000 -0.2892057789
N   N7        1.0  0.93010  0.93090  0.15720  1.0000 -0.2892057789
N   N8        1.0  0.96730  0.87020  0.24740  1.0000 -0.0210167511
N   N9        1.0  0.13190  0.79030  0.26290  1.0000 -0.3613502165
N   N10       1.0  0.13960  0.71960  0.35900  1.0000 -0.3675977915
N   N11       1.0  0.97940  0.72459  0.44160  1.0000 -0.0210167511
N   N12       1.0  0.93730  0.64870  0.51820  1.0000 -0.2892057789
N   N13       1.0  0.38380  0.30860  0.62620  1.0000 0.5202096919
N   N14       1.0  0.41050  0.19940  0.13590  1.0000 0.5145497243
N   N15       1.0  0.06280  0.36670  0.48720  1.0000 -0.2892057789
N   N16       1.0  0.01160  0.28290  0.55440  1.0000 -0.0210167511
N   N17       1.0  0.83320  0.27340  0.62550  1.0000 -0.3675977915
N   N18       1.0  0.83760  0.19960  0.72030  1.0000 -0.3675977915
N   N19       1.0  0.02170  0.13310  0.74430  1.0000 -0.0210167511
N   N20       1.0  0.07500  0.08210  0.83780  1.0000 -0.2892057789
N   N21       1.0  0.06990  0.43090  0.34280  1.0000 -0.2892057789
N   N22       1.0  0.03270  0.37020  0.25260  1.0000 -0.0210167511
N   N23       1.0  0.86810  0.29030  0.23710  1.0000 -0.3613502165
N   N24       1.0  0.86040  0.21960  0.14100  1.0000 -0.3675977915
N   N25       1.0  0.02060  0.22459  0.05840  1.0000 -0.0210167511
N   N26       1.0  0.06270  0.14870  0.98180  1.0000 -0.2892057789
N   N27       1.0  0.61620  0.80860  0.87380  1.0000 0.5202096919
N   N28       1.0  0.58950  0.69940  0.36410  1.0000 0.5145497243
N   N29       1.0  0.56280  0.13330  0.51280  1.0000 -0.2892057789
N   N30       1.0  0.51160  0.21710  0.44560  1.0000 -0.0210167511
N   N31       1.0  0.33320  0.22660  0.37450  1.0000 -0.3675977915
N   N32       1.0  0.33760  0.30040  0.27970  1.0000 -0.3675977915
N   N33       1.0  0.52170  0.36690  0.25570  1.0000 -0.0210167511
N   N34       1.0  0.57500  0.41790  0.16220  1.0000 -0.2892057789
N   N35       1.0  0.56990  0.06910  0.65720  1.0000 -0.2892057789
N   N36       1.0  0.53270  0.12980  0.74740  1.0000 -0.0210167511
N   N37       1.0  0.36810  0.20970  0.76290  1.0000 -0.3613502165
N   N38       1.0  0.36040  0.28040  0.85900  1.0000 -0.3675977915
N   N39       1.0  0.52060  0.27541  0.94160  1.0000 -0.0210167511
N   N40       1.0  0.56270  0.35130  0.01820  1.0000 -0.2892057789
N   N41       1.0  0.11620  0.69140  0.12620  1.0000 0.5202096919
N   N42       1.0  0.08950  0.80060  0.63590  1.0000 0.5145497243
N   N43       1.0  0.43720  0.63330  0.98720  1.0000 -0.2892057789
N   N44       1.0  0.48840  0.71710  0.05440  1.0000 -0.0210167511
N   N45       1.0  0.66680  0.72660  0.12550  1.0000 -0.3675977915
N   N46       1.0  0.66240  0.80040  0.22030  1.0000 -0.3675977915
N   N47       1.0  0.47830  0.86690  0.24430  1.0000 -0.0210167511
N   N48       1.0  0.42500  0.91790  0.33780  1.0000 -0.2892057789
N   N49       1.0  0.43010  0.56910  0.84280  1.0000 -0.2892057789
N   N50       1.0  0.46730  0.62980  0.75260  1.0000 -0.0210167511
N   N51       1.0  0.63190  0.70970  0.73710  1.0000 -0.3613502165
N   N52       1.0  0.63960  0.78040  0.64100  1.0000 -0.3675977915
N   N53       1.0  0.47940  0.77541  0.55840  1.0000 -0.0210167511
N   N54       1.0  0.43730  0.85130  0.48180  1.0000 -0.2892057789
N   N55       1.0  0.88380  0.19140  0.37380  1.0000 0.5202096919
N   N56       1.0  0.91050  0.30060  0.86410  1.0000 0.5145497243
O   O1        1.0  0.09190  0.50748  0.55217  1.0000 -0.5721874614
O   O2        1.0  0.21640  0.59706  0.58289  1.0000 -0.5410177713
O   O3        1.0  0.70500  0.56202  0.56627  1.0000 -0.5293971181
O   O4        1.0  0.79390  0.46289  0.58830  1.0000 -0.5293971181
O   O5        1.0  0.47600  0.26920  0.62010  1.0000 -0.3203041235
O   O6        1.0  0.27120  0.29340  0.64500  1.0000 -0.3328243524
O   O7        1.0  0.70320  0.94136  0.06629  1.0000 -0.5293971181
O   O8        1.0  0.79630  0.04162  0.07829  1.0000 -0.5241735061
O   O9        1.0  0.21180  0.91866  0.08106  1.0000 -0.5410177713
O   O10       1.0  0.09730  0.00966  0.04656  1.0000 -0.5721874614
O   O11       1.0  0.30460  0.22850  0.12970  1.0000 -0.3203041235
O   O12       1.0  0.50850  0.22500  0.16290  1.0000 -0.3328243524
O   O13       1.0  0.90810  0.00748  0.94783  1.0000 -0.5721874614
O   O14       1.0  0.78360  0.09706  0.91711  1.0000 -0.5410177713
O   O15       1.0  0.29500  0.06202  0.93373  1.0000 -0.5293971181
O   O16       1.0  0.20610  0.96289  0.91170  1.0000 -0.5293971181
O   O17       1.0  0.52400  0.76920  0.87990  1.0000 -0.3203041235
O   O18       1.0  0.72880  0.79340  0.85500  1.0000 -0.3328243524
O   O19       1.0  0.29680  0.44136  0.43371  1.0000 -0.5293971181
O   O20       1.0  0.20370  0.54162  0.42171  1.0000 -0.5241735061
O   O21       1.0  0.78820  0.41866  0.41894  1.0000 -0.5410177713
O   O22       1.0  0.90270  0.50966  0.45344  1.0000 -0.5721874614
O   O23       1.0  0.69540  0.72850  0.37030  1.0000 -0.3203041235
O   O24       1.0  0.49150  0.72500  0.33710  1.0000 -0.3328243524
O   O25       1.0  0.40810  0.49252  0.05217  1.0000 -0.5721874614
O   O26       1.0  0.28360  0.40294  0.08289  1.0000 -0.5410177713
O   O27       1.0  0.79500  0.43798  0.06627  1.0000 -0.5293971181
O   O28       1.0  0.70610  0.53711  0.08830  1.0000 -0.5293971181
O   O29       1.0  0.02400  0.73080  0.12010  1.0000 -0.3203041235
O   O30       1.0  0.22880  0.70660  0.14500  1.0000 -0.3328243524
O   O31       1.0  0.79680  0.05864  0.56629  1.0000 -0.5293971181
O   O32       1.0  0.70370  0.95838  0.57829  1.0000 -0.5241735061
O   O33       1.0  0.28820  0.08134  0.58106  1.0000 -0.5410177713
O   O34       1.0  0.40270  0.99034  0.54656  1.0000 -0.5721874614
O   O35       1.0  0.19540  0.77150  0.62970  1.0000 -0.3203041235
O   O36       1.0  0.99150  0.77500  0.66290  1.0000 -0.3328243524
O   O37       1.0  0.59190  0.99252  0.44783  1.0000 -0.5721874614
O   O38       1.0  0.71640  0.90294  0.41711  1.0000 -0.5410177713
O   O39       1.0  0.20500  0.93798  0.43373  1.0000 -0.5293971181
O   O40       1.0  0.29390  0.03711  0.41170  1.0000 -0.5293971181
O   O41       1.0  0.97600  0.23080  0.37990  1.0000 -0.3203041235
O   O42       1.0  0.77120  0.20660  0.35500  1.0000 -0.3328243524
O   O43       1.0  0.20320  0.55864  0.93371  1.0000 -0.5293971181
O   O44       1.0  0.29630  0.45838  0.92171  1.0000 -0.5241735061
O   O45       1.0  0.71180  0.58134  0.91894  1.0000 -0.5410177713
O   O46       1.0  0.59730  0.49034  0.95344  1.0000 -0.5721874614
O   O47       1.0  0.80460  0.27150  0.87030  1.0000 -0.3203041235
O   O48       1.0  0.00850  0.27500  0.83710  1.0000 -0.3328243524
