# DDEC6 charges by PACMAN v1.1 (https://github.com/mtap-research/PACMAN-charge/)
data_2017[In][pts]3[ASR]2
_chemical_formula_sum              "In4 H128 C216 O32"
_cell_length_a       20.6152
_cell_length_b       20.6152
_cell_length_c       32.1945
_cell_angle_alpha    88.4611
_cell_angle_beta     91.5389
_cell_angle_gamma    136.779

_symmetry_space_group_name_H-M    "P 1"
_symmetry_Int_Tables_number       1

loop_
  _symmetry_equiv_pos_as_xyz
  'x, y, z'

loop_
  _atom_site_type_symbol
  _atom_site_label
  _atom_site_symmetry_multiplicity
  _atom_site_fract_x
  _atom_site_fract_y
  _atom_site_fract_z
  _atom_site_occupancy
  _atom_site_charge
In  In1       1.0  0.74566  0.17386  0.30123  1.0000 1.3532192582
In  In2       1.0  0.82614  0.25434  0.80123  1.0000 1.3532192582
In  In3       1.0  0.17386  0.74566  0.19877  1.0000 1.3532192582
In  In4       1.0  0.25434  0.82614  0.69877  1.0000 1.3532192582
H   H1        1.0  0.62700  0.24620  0.20290  1.0000 0.1314691126
H   H2        1.0  0.75380  0.37300  0.70290  1.0000 0.1314691126
H   H3        1.0  0.63610  0.34650  0.16110  1.0000 0.1130026387
H   H4        1.0  0.65350  0.36390  0.66110  1.0000 0.1130026387
H   H5        1.0  0.91530  0.56130  0.18400  1.0000 0.1314691126
H   H6        1.0  0.43870  0.08470  0.68400  1.0000 0.1314691126
H   H7        1.0  0.90660  0.46340  0.22730  1.0000 0.1390020262
H   H8        1.0  0.53660  0.09340  0.72730  1.0000 0.1390020262
H   H9        1.0  0.67580  0.43360  0.10370  1.0000 0.1205249001
H   H10       1.0  0.56640  0.32420  0.60370  1.0000 0.1205249001
H   H11       1.0  0.68420  0.53420  0.06450  1.0000 0.1205249001
H   H12       1.0  0.46580  0.31580  0.56450  1.0000 0.1205249001
H   H13       1.0  0.89170  0.74850  0.13930  1.0000 0.1205249001
H   H14       1.0  0.25150  0.10830  0.63930  1.0000 0.1205249001
H   H15       1.0  0.88960  0.65060  0.17580  1.0000 0.1314691126
H   H16       1.0  0.34940  0.11040  0.67580  1.0000 0.1314691126
H   H17       1.0  0.66550  0.66270  0.12320  1.0000 0.1314691126
H   H18       1.0  0.33730  0.33450  0.62320  1.0000 0.1314691126
H   H19       1.0  0.65360  0.74260  0.16310  1.0000 0.1205249001
H   H20       1.0  0.25740  0.34640  0.66310  1.0000 0.1205249001
H   H21       1.0  0.90750  0.98410  0.12820  1.0000 0.1205249001
H   H22       1.0  0.01590  0.09250  0.62820  1.0000 0.1205249001
H   H23       1.0  0.91260  0.90620  0.08220  1.0000 0.1205249001
H   H24       1.0  0.09380  0.08740  0.58220  1.0000 0.1205249001
H   H25       1.0  0.62980  0.82080  0.18520  1.0000 0.1205249001
H   H26       1.0  0.17920  0.37020  0.68520  1.0000 0.1205249001
H   H27       1.0  0.61970  0.90310  0.22640  1.0000 0.1390020262
H   H28       1.0  0.09690  0.38030  0.72640  1.0000 0.1390020262
H   H29       1.0  0.89550  0.13470  0.21290  1.0000 0.1390020262
H   H30       1.0  0.86530  0.10450  0.71290  1.0000 0.1390020262
H   H31       1.0  0.90350  0.05350  0.16880  1.0000 0.1130026387
H   H32       1.0  0.94650  0.09650  0.66880  1.0000 0.1130026387
H   H33       1.0  0.70380  0.61340  0.97000  1.0000 0.1314691126
H   H34       1.0  0.38660  0.29620  0.47000  1.0000 0.1314691126
H   H35       1.0  0.71130  0.52530  0.93270  1.0000 0.1205249001
H   H36       1.0  0.47470  0.28870  0.43270  1.0000 0.1205249001
H   H37       1.0  0.95530  0.65530  0.98920  1.0000 0.1205249001
H   H38       1.0  0.34470  0.04470  0.48920  1.0000 0.1205249001
H   H39       1.0  0.94210  0.73450  0.03140  1.0000 0.1205249001
H   H40       1.0  0.26550  0.05790  0.53140  1.0000 0.1205249001
H   H41       1.0  0.70080  0.40560  0.93150  1.0000 0.1130026387
H   H42       1.0  0.59440  0.29920  0.43150  1.0000 0.1130026387
H   H43       1.0  0.70230  0.31390  0.89270  1.0000 0.1390020262
H   H44       1.0  0.68610  0.29770  0.39270  1.0000 0.1390020262
H   H45       1.0  0.98240  0.53840  0.87960  1.0000 0.1390020262
H   H46       1.0  0.46160  0.01760  0.37960  1.0000 0.1390020262
H   H47       1.0  0.98100  0.62720  0.92220  1.0000 0.1205249001
H   H48       1.0  0.37280  0.01900  0.42220  1.0000 0.1205249001
H   H49       1.0  0.68570  0.74050  0.02640  1.0000 0.1205249001
H   H50       1.0  0.25950  0.31430  0.52640  1.0000 0.1205249001
H   H51       1.0  0.68410  0.83130  0.98500  1.0000 0.1205249001
H   H52       1.0  0.16870  0.31590  0.48500  1.0000 0.1205249001
H   H53       1.0  0.93670  0.96790  0.93900  1.0000 0.1130026387
H   H54       1.0  0.03210  0.06330  0.43900  1.0000 0.1130026387
H   H55       1.0  0.93450  0.87190  0.97820  1.0000 0.1205249001
H   H56       1.0  0.12810  0.06550  0.47820  1.0000 0.1205249001
H   H57       1.0  0.67320  0.87720  0.92030  1.0000 0.1130026387
H   H58       1.0  0.12280  0.32680  0.42030  1.0000 0.1130026387
H   H59       1.0  0.67480  0.97320  0.88040  1.0000 0.1314691126
H   H60       1.0  0.02680  0.32520  0.38040  1.0000 0.1390020262
H   H61       1.0  0.95530  0.19150  0.89740  1.0000 0.1205249001
H   H62       1.0  0.80850  0.04470  0.39740  1.0000 0.1205249001
H   H63       1.0  0.95340  0.09320  0.93700  1.0000 0.1044124426
H   H64       1.0  0.90680  0.04660  0.43700  1.0000 0.1044124426
H   H65       1.0  0.24620  0.62700  0.29710  1.0000 0.1314691126
H   H66       1.0  0.37300  0.75380  0.79710  1.0000 0.1314691126
H   H67       1.0  0.34650  0.63610  0.33890  1.0000 0.1130026387
H   H68       1.0  0.36390  0.65350  0.83890  1.0000 0.1130026387
H   H69       1.0  0.56130  0.91530  0.31600  1.0000 0.1314691126
H   H70       1.0  0.08470  0.43870  0.81600  1.0000 0.1314691126
H   H71       1.0  0.46340  0.90660  0.27270  1.0000 0.1390020262
H   H72       1.0  0.09340  0.53660  0.77270  1.0000 0.1390020262
H   H73       1.0  0.43360  0.67580  0.39630  1.0000 0.1205249001
H   H74       1.0  0.32420  0.56640  0.89630  1.0000 0.1205249001
H   H75       1.0  0.53420  0.68420  0.43550  1.0000 0.1205249001
H   H76       1.0  0.31580  0.46580  0.93550  1.0000 0.1205249001
H   H77       1.0  0.74850  0.89170  0.36070  1.0000 0.1205249001
H   H78       1.0  0.10830  0.25150  0.86070  1.0000 0.1205249001
H   H79       1.0  0.65060  0.88960  0.32420  1.0000 0.1314691126
H   H80       1.0  0.11040  0.34940  0.82420  1.0000 0.1314691126
H   H81       1.0  0.66270  0.66550  0.37680  1.0000 0.1314691126
H   H82       1.0  0.33450  0.33730  0.87680  1.0000 0.1314691126
H   H83       1.0  0.74260  0.65360  0.33690  1.0000 0.1205249001
H   H84       1.0  0.34640  0.25740  0.83690  1.0000 0.1205249001
H   H85       1.0  0.98410  0.90750  0.37180  1.0000 0.1205249001
H   H86       1.0  0.09250  0.01590  0.87180  1.0000 0.1205249001
H   H87       1.0  0.90620  0.91260  0.41780  1.0000 0.1205249001
H   H88       1.0  0.08740  0.09380  0.91780  1.0000 0.1205249001
H   H89       1.0  0.82080  0.62980  0.31480  1.0000 0.1205249001
H   H90       1.0  0.37020  0.17920  0.81480  1.0000 0.1205249001
H   H91       1.0  0.90310  0.61970  0.27360  1.0000 0.1390020262
H   H92       1.0  0.38030  0.09690  0.77360  1.0000 0.1390020262
H   H93       1.0  0.13470  0.89550  0.28710  1.0000 0.1390020262
H   H94       1.0  0.10450  0.86530  0.78710  1.0000 0.1390020262
H   H95       1.0  0.05350  0.90350  0.33120  1.0000 0.1130026387
H   H96       1.0  0.09650  0.94650  0.83120  1.0000 0.1130026387
H   H97       1.0  0.61340  0.70380  0.53000  1.0000 0.1314691126
H   H98       1.0  0.29620  0.38660  0.03000  1.0000 0.1314691126
H   H99       1.0  0.52530  0.71130  0.56730  1.0000 0.1205249001
H   H100      1.0  0.28870  0.47470  0.06730  1.0000 0.1205249001
H   H101      1.0  0.65530  0.95530  0.51080  1.0000 0.1205249001
H   H102      1.0  0.04470  0.34470  0.01080  1.0000 0.1205249001
H   H103      1.0  0.73450  0.94210  0.46860  1.0000 0.1205249001
H   H104      1.0  0.05790  0.26550  0.96860  1.0000 0.1205249001
H   H105      1.0  0.40560  0.70080  0.56850  1.0000 0.1130026387
H   H106      1.0  0.29920  0.59440  0.06850  1.0000 0.1130026387
H   H107      1.0  0.31390  0.70230  0.60730  1.0000 0.1390020262
H   H108      1.0  0.29770  0.68610  0.10730  1.0000 0.1390020262
H   H109      1.0  0.53840  0.98240  0.62040  1.0000 0.1390020262
H   H110      1.0  0.01760  0.46160  0.12040  1.0000 0.1390020262
H   H111      1.0  0.62720  0.98100  0.57780  1.0000 0.1205249001
H   H112      1.0  0.01900  0.37280  0.07780  1.0000 0.1205249001
H   H113      1.0  0.74050  0.68570  0.47360  1.0000 0.1205249001
H   H114      1.0  0.31430  0.25950  0.97360  1.0000 0.1205249001
H   H115      1.0  0.83130  0.68410  0.51500  1.0000 0.1205249001
H   H116      1.0  0.31590  0.16870  0.01500  1.0000 0.1205249001
H   H117      1.0  0.96790  0.93670  0.56100  1.0000 0.1130026387
H   H118      1.0  0.06330  0.03210  0.06100  1.0000 0.1130026387
H   H119      1.0  0.87190  0.93450  0.52180  1.0000 0.1205249001
H   H120      1.0  0.06550  0.12810  0.02180  1.0000 0.1205249001
H   H121      1.0  0.87720  0.67320  0.57970  1.0000 0.1130026387
H   H122      1.0  0.32680  0.12280  0.07970  1.0000 0.1130026387
H   H123      1.0  0.97320  0.67480  0.61960  1.0000 0.1314691126
H   H124      1.0  0.32520  0.02680  0.11960  1.0000 0.1390020262
H   H125      1.0  0.19150  0.95530  0.60260  1.0000 0.1205249001
H   H126      1.0  0.04470  0.80850  0.10260  1.0000 0.1205249001
H   H127      1.0  0.09320  0.95340  0.56300  1.0000 0.1044124426
H   H128      1.0  0.04660  0.90680  0.06300  1.0000 0.1044124426
C   C1        1.0  0.75972  0.28208  0.24819  1.0000 0.5427109921
C   C2        1.0  0.71792  0.24028  0.74819  1.0000 0.5427109921
C   C3        1.0  0.76660  0.34560  0.21981  1.0000 -0.0019421945
C   C4        1.0  0.65440  0.23340  0.71981  1.0000 -0.0019421945
C   C5        1.0  0.68448  0.30952  0.19961  1.0000 -0.0883129858
C   C6        1.0  0.69048  0.31552  0.69961  1.0000 -0.0883129858
C   C7        1.0  0.69029  0.37011  0.17450  1.0000 -0.1500864774
C   C8        1.0  0.62989  0.30971  0.67450  1.0000 -0.1500864774
C   C9        1.0  0.77537  0.46443  0.16950  1.0000 0.0573162371
C   C10       1.0  0.53557  0.22463  0.66950  1.0000 0.0573162371
C   C11       1.0  0.85723  0.49877  0.18844  1.0000 -0.1201680735
C   C12       1.0  0.50123  0.14277  0.68844  1.0000 -0.1201680735
C   C13       1.0  0.85220  0.43960  0.21403  1.0000 -0.0802291038
C   C14       1.0  0.56040  0.14780  0.71403  1.0000 -0.0802291038
C   C15       1.0  0.77982  0.52818  0.14419  1.0000 0.0712021023
C   C16       1.0  0.47182  0.22018  0.64419  1.0000 0.0712021023
C   C17       1.0  0.72054  0.49726  0.11070  1.0000 -0.1398722298
C   C18       1.0  0.50274  0.27946  0.61070  1.0000 -0.1398722298
C   C19       1.0  0.72508  0.55752  0.08703  1.0000 -0.1500864774
C   C20       1.0  0.44248  0.27492  0.58703  1.0000 -0.1500864774
C   C21       1.0  0.79130  0.65370  0.09705  1.0000 0.0759285554
C   C22       1.0  0.34630  0.20870  0.59705  1.0000 0.0759285554
C   C23       1.0  0.84980  0.68560  0.13140  1.0000 -0.1398722298
C   C24       1.0  0.31440  0.15020  0.63140  1.0000 -0.1398722298
C   C25       1.0  0.84708  0.62652  0.15385  1.0000 -0.1201680735
C   C26       1.0  0.37348  0.15292  0.65385  1.0000 -0.1201680735
C   C27       1.0  0.79797  0.72123  0.07247  1.0000 -0.0323370131
C   C28       1.0  0.27877  0.20203  0.57247  1.0000 -0.0323370131
C   C29       1.0  0.79099  0.77521  0.09801  1.0000 0.0759285554
C   C30       1.0  0.22479  0.20901  0.59801  1.0000 0.0759285554
C   C31       1.0  0.71400  0.72860  0.12280  1.0000 -0.1500864774
C   C32       1.0  0.27140  0.28600  0.62280  1.0000 -0.1500864774
C   C33       1.0  0.70703  0.77677  0.14680  1.0000 -0.1398722298
C   C34       1.0  0.22323  0.29297  0.64680  1.0000 -0.1398722298
C   C35       1.0  0.77589  0.87371  0.14773  1.0000 0.0712021023
C   C36       1.0  0.12629  0.22411  0.64773  1.0000 0.0712021023
C   C37       1.0  0.85521  0.91899  0.12550  1.0000 -0.1398722298
C   C38       1.0  0.08101  0.14479  0.62550  1.0000 -0.1398722298
C   C39       1.0  0.86047  0.87173  0.09940  1.0000 -0.1500864774
C   C40       1.0  0.12827  0.13953  0.59940  1.0000 -0.1500864774
C   C41       1.0  0.76811  0.92689  0.17355  1.0000 0.0759285554
C   C42       1.0  0.07311  0.23189  0.67355  1.0000 0.0759285554
C   C43       1.0  0.68408  0.88452  0.19040  1.0000 -0.1500864774
C   C44       1.0  0.11548  0.31592  0.69040  1.0000 -0.1500864774
C   C45       1.0  0.67763  0.93417  0.21520  1.0000 -0.0883129858
C   C46       1.0  0.06583  0.32237  0.71520  1.0000 -0.0883129858
C   C47       1.0  0.75563  0.02777  0.22304  1.0000 -0.007359298
C   C48       1.0  0.97223  0.24437  0.72304  1.0000 -0.007359298
C   C49       1.0  0.84090  0.07150  0.20680  1.0000 -0.0802291038
C   C50       1.0  0.92850  0.15910  0.70680  1.0000 -0.0802291038
C   C51       1.0  0.84620  0.02180  0.18110  1.0000 -0.1500864774
C   C52       1.0  0.97820  0.15380  0.68110  1.0000 -0.1500864774
C   C53       1.0  0.74918  0.08142  0.24940  1.0000 0.5427109921
C   C54       1.0  0.91858  0.25082  0.74940  1.0000 0.5427109921
C   C55       1.0  0.81009  0.73291  0.03111  1.0000 -0.0323370131
C   C56       1.0  0.26709  0.18991  0.53111  1.0000 -0.0323370131
C   C57       1.0  0.82086  0.68194  0.00554  1.0000 0.0759285554
C   C58       1.0  0.31806  0.17914  0.50554  1.0000 0.0759285554
C   C59       1.0  0.75328  0.62032  0.97492  1.0000 -0.1500864774
C   C60       1.0  0.37968  0.24672  0.47492  1.0000 -0.1500864774
C   C61       1.0  0.75923  0.56897  0.95171  1.0000 -0.1398722298
C   C62       1.0  0.43103  0.24077  0.45171  1.0000 -0.1398722298
C   C63       1.0  0.83413  0.58087  0.95603  1.0000 0.0712021023
C   C64       1.0  0.41913  0.16587  0.45603  1.0000 0.0712021023
C   C65       1.0  0.90342  0.64498  0.98595  1.0000 -0.1398722298
C   C66       1.0  0.35502  0.09658  0.48595  1.0000 -0.1398722298
C   C67       1.0  0.89644  0.69396  0.01106  1.0000 -0.1500864774
C   C68       1.0  0.30604  0.10356  0.51106  1.0000 -0.1500864774
C   C69       1.0  0.83915  0.52525  0.93090  1.0000 0.0712021023
C   C70       1.0  0.47475  0.16085  0.43090  1.0000 0.0712021023
C   C71       1.0  0.75817  0.43263  0.92140  1.0000 -0.1500864774
C   C72       1.0  0.56737  0.24183  0.42140  1.0000 -0.1500864774
C   C73       1.0  0.75796  0.37724  0.89750  1.0000 -0.0802291038
C   C74       1.0  0.62276  0.24204  0.39750  1.0000 -0.0802291038
C   C75       1.0  0.84383  0.41977  0.88090  1.0000 -0.007359298
C   C76       1.0  0.58023  0.15617  0.38090  1.0000 -0.007359298
C   C77       1.0  0.92529  0.51111  0.89022  1.0000 -0.0802291038
C   C78       1.0  0.48889  0.07471  0.39022  1.0000 -0.0802291038
C   C79       1.0  0.92464  0.56516  0.91565  1.0000 -0.1500864774
C   C80       1.0  0.43484  0.07536  0.41565  1.0000 -0.1500864774
C   C81       1.0  0.84367  0.36333  0.85259  1.0000 0.5427109921
C   C82       1.0  0.63667  0.15633  0.35259  1.0000 0.5427109921
C   C83       1.0  0.80965  0.79475  0.00655  1.0000 0.0712021023
C   C84       1.0  0.20525  0.19035  0.50655  1.0000 0.0712021023
C   C85       1.0  0.73576  0.78524  0.00849  1.0000 -0.1500864774
C   C86       1.0  0.21476  0.26424  0.50849  1.0000 -0.1500864774
C   C87       1.0  0.73581  0.84119  0.98406  1.0000 -0.1398722298
C   C88       1.0  0.15881  0.26419  0.48406  1.0000 -0.1398722298
C   C89       1.0  0.81096  0.91204  0.95810  1.0000 0.0712021023
C   C90       1.0  0.08796  0.18904  0.45810  1.0000 0.0712021023
C   C91       1.0  0.88574  0.92206  0.95630  1.0000 -0.1500864774
C   C92       1.0  0.07794  0.11426  0.45630  1.0000 -0.1500864774
C   C93       1.0  0.88424  0.86416  0.98002  1.0000 -0.1500864774
C   C94       1.0  0.13584  0.11576  0.48002  1.0000 -0.1500864774
C   C95       1.0  0.81337  0.97563  0.93228  1.0000 0.0712021023
C   C96       1.0  0.02437  0.18663  0.43228  1.0000 0.0712021023
C   C97       1.0  0.73014  0.94006  0.91548  1.0000 -0.1500864774
C   C98       1.0  0.05994  0.26986  0.41548  1.0000 -0.1500864774
C   C99       1.0  0.73118  0.99762  0.89147  1.0000 -0.0802291038
C   C100      1.0  0.00238  0.26882  0.39147  1.0000 -0.0802291038
C   C101      1.0  0.81365  0.08935  0.88393  1.0000 0.0034982513
C   C102      1.0  0.91065  0.18635  0.38393  1.0000 0.0034982513
C   C103      1.0  0.89893  0.12807  0.90157  1.0000 -0.1012585661
C   C104      1.0  0.87193  0.10107  0.40157  1.0000 -0.1012585661
C   C105      1.0  0.89736  0.06904  0.92559  1.0000 -0.1662647849
C   C106      1.0  0.93096  0.10264  0.42559  1.0000 -0.1662647849
C   C107      1.0  0.81673  0.15087  0.85553  1.0000 0.5493933731
C   C108      1.0  0.84913  0.18327  0.35553  1.0000 0.5493933731
C   C109      1.0  0.28208  0.75972  0.25181  1.0000 0.5427109921
C   C110      1.0  0.24028  0.71792  0.75181  1.0000 0.5427109921
C   C111      1.0  0.34560  0.76660  0.28019  1.0000 -0.0019421945
C   C112      1.0  0.23340  0.65440  0.78019  1.0000 -0.0019421945
C   C113      1.0  0.30952  0.68448  0.30039  1.0000 -0.0883129858
C   C114      1.0  0.31552  0.69048  0.80039  1.0000 -0.0883129858
C   C115      1.0  0.37011  0.69029  0.32550  1.0000 -0.1500864774
C   C116      1.0  0.30971  0.62989  0.82550  1.0000 -0.1500864774
C   C117      1.0  0.46443  0.77537  0.33050  1.0000 0.0573162371
C   C118      1.0  0.22463  0.53557  0.83050  1.0000 0.0573162371
C   C119      1.0  0.49877  0.85723  0.31156  1.0000 -0.1201680735
C   C120      1.0  0.14277  0.50123  0.81156  1.0000 -0.1201680735
C   C121      1.0  0.43960  0.85220  0.28597  1.0000 -0.0802291038
C   C122      1.0  0.14780  0.56040  0.78597  1.0000 -0.0802291038
C   C123      1.0  0.52818  0.77982  0.35581  1.0000 0.0712021023
C   C124      1.0  0.22018  0.47182  0.85581  1.0000 0.0712021023
C   C125      1.0  0.49726  0.72054  0.38930  1.0000 -0.1398722298
C   C126      1.0  0.27946  0.50274  0.88930  1.0000 -0.1398722298
C   C127      1.0  0.55752  0.72508  0.41297  1.0000 -0.1500864774
C   C128      1.0  0.27492  0.44248  0.91297  1.0000 -0.1500864774
C   C129      1.0  0.65370  0.79130  0.40295  1.0000 0.0759285554
C   C130      1.0  0.20870  0.34630  0.90295  1.0000 0.0759285554
C   C131      1.0  0.68560  0.84980  0.36860  1.0000 -0.1398722298
C   C132      1.0  0.15020  0.31440  0.86860  1.0000 -0.1398722298
C   C133      1.0  0.62652  0.84708  0.34615  1.0000 -0.1201680735
C   C134      1.0  0.15292  0.37348  0.84615  1.0000 -0.1201680735
C   C135      1.0  0.72123  0.79797  0.42753  1.0000 -0.0323370131
C   C136      1.0  0.20203  0.27877  0.92753  1.0000 -0.0323370131
C   C137      1.0  0.77521  0.79099  0.40199  1.0000 0.0759285554
C   C138      1.0  0.20901  0.22479  0.90199  1.0000 0.0759285554
C   C139      1.0  0.72860  0.71400  0.37720  1.0000 -0.1500864774
C   C140      1.0  0.28600  0.27140  0.87720  1.0000 -0.1500864774
C   C141      1.0  0.77677  0.70703  0.35320  1.0000 -0.1398722298
C   C142      1.0  0.29297  0.22323  0.85320  1.0000 -0.1398722298
C   C143      1.0  0.87371  0.77589  0.35227  1.0000 0.0712021023
C   C144      1.0  0.22411  0.12629  0.85227  1.0000 0.0712021023
C   C145      1.0  0.91899  0.85521  0.37450  1.0000 -0.1398722298
C   C146      1.0  0.14479  0.08101  0.87450  1.0000 -0.1398722298
C   C147      1.0  0.87173  0.86047  0.40060  1.0000 -0.1500864774
C   C148      1.0  0.13953  0.12827  0.90060  1.0000 -0.1500864774
C   C149      1.0  0.92689  0.76811  0.32645  1.0000 0.0759285554
C   C150      1.0  0.23189  0.07311  0.82645  1.0000 0.0759285554
C   C151      1.0  0.88452  0.68408  0.30960  1.0000 -0.1500864774
C   C152      1.0  0.31592  0.11548  0.80960  1.0000 -0.1500864774
C   C153      1.0  0.93417  0.67763  0.28480  1.0000 -0.0883129858
C   C154      1.0  0.32237  0.06583  0.78480  1.0000 -0.0883129858
C   C155      1.0  0.02777  0.75563  0.27696  1.0000 -0.007359298
C   C156      1.0  0.24437  0.97223  0.77696  1.0000 -0.007359298
C   C157      1.0  0.07150  0.84090  0.29320  1.0000 -0.0802291038
C   C158      1.0  0.15910  0.92850  0.79320  1.0000 -0.0802291038
C   C159      1.0  0.02180  0.84620  0.31890  1.0000 -0.1500864774
C   C160      1.0  0.15380  0.97820  0.81890  1.0000 -0.1500864774
C   C161      1.0  0.08142  0.74918  0.25060  1.0000 0.5427109921
C   C162      1.0  0.25082  0.91858  0.75060  1.0000 0.5427109921
C   C163      1.0  0.73291  0.81009  0.46889  1.0000 -0.0323370131
C   C164      1.0  0.18991  0.26709  0.96889  1.0000 -0.0323370131
C   C165      1.0  0.68194  0.82086  0.49446  1.0000 0.0759285554
C   C166      1.0  0.17914  0.31806  0.99446  1.0000 0.0759285554
C   C167      1.0  0.62032  0.75328  0.52508  1.0000 -0.1500864774
C   C168      1.0  0.24672  0.37968  0.02508  1.0000 -0.1500864774
C   C169      1.0  0.56897  0.75923  0.54829  1.0000 -0.1398722298
C   C170      1.0  0.24077  0.43103  0.04829  1.0000 -0.1398722298
C   C171      1.0  0.58087  0.83413  0.54397  1.0000 0.0712021023
C   C172      1.0  0.16587  0.41913  0.04397  1.0000 0.0573162371
C   C173      1.0  0.64498  0.90342  0.51405  1.0000 -0.1398722298
C   C174      1.0  0.09658  0.35502  0.01405  1.0000 -0.1398722298
C   C175      1.0  0.69396  0.89644  0.48894  1.0000 -0.1500864774
C   C176      1.0  0.10356  0.30604  0.98894  1.0000 -0.1500864774
C   C177      1.0  0.52525  0.83915  0.56910  1.0000 0.0712021023
C   C178      1.0  0.16085  0.47475  0.06910  1.0000 0.0712021023
C   C179      1.0  0.43263  0.75817  0.57860  1.0000 -0.1500864774
C   C180      1.0  0.24183  0.56737  0.07860  1.0000 -0.1500864774
C   C181      1.0  0.37724  0.75796  0.60250  1.0000 -0.0802291038
C   C182      1.0  0.24204  0.62276  0.10250  1.0000 -0.0802291038
C   C183      1.0  0.41977  0.84383  0.61910  1.0000 -0.007359298
C   C184      1.0  0.15617  0.58023  0.11910  1.0000 -0.007359298
C   C185      1.0  0.51111  0.92529  0.60978  1.0000 -0.0802291038
C   C186      1.0  0.07471  0.48889  0.10978  1.0000 -0.0802291038
C   C187      1.0  0.56516  0.92464  0.58435  1.0000 -0.1500864774
C   C188      1.0  0.07536  0.43484  0.08435  1.0000 -0.1500864774
C   C189      1.0  0.36333  0.84367  0.64741  1.0000 0.5427109921
C   C190      1.0  0.15633  0.63667  0.14741  1.0000 0.5427109921
C   C191      1.0  0.79475  0.80965  0.49345  1.0000 0.0712021023
C   C192      1.0  0.19035  0.20525  0.99345  1.0000 0.0712021023
C   C193      1.0  0.78524  0.73576  0.49151  1.0000 -0.1500864774
C   C194      1.0  0.26424  0.21476  0.99151  1.0000 -0.1500864774
C   C195      1.0  0.84119  0.73581  0.51594  1.0000 -0.1398722298
C   C196      1.0  0.26419  0.15881  0.01594  1.0000 -0.1398722298
C   C197      1.0  0.91204  0.81096  0.54190  1.0000 0.0712021023
C   C198      1.0  0.18904  0.08796  0.04190  1.0000 0.0712021023
C   C199      1.0  0.92206  0.88574  0.54370  1.0000 -0.1500864774
C   C200      1.0  0.11426  0.07794  0.04370  1.0000 -0.1500864774
C   C201      1.0  0.86416  0.88424  0.51998  1.0000 -0.1500864774
C   C202      1.0  0.11576  0.13584  0.01998  1.0000 -0.1500864774
C   C203      1.0  0.97563  0.81337  0.56772  1.0000 0.0712021023
C   C204      1.0  0.18663  0.02437  0.06772  1.0000 0.0712021023
C   C205      1.0  0.94006  0.73014  0.58452  1.0000 -0.1500864774
C   C206      1.0  0.26986  0.05994  0.08452  1.0000 -0.1500864774
C   C207      1.0  0.99762  0.73118  0.60853  1.0000 -0.0802291038
C   C208      1.0  0.26882  0.00238  0.10853  1.0000 -0.0802291038
C   C209      1.0  0.08935  0.81365  0.61607  1.0000 0.0034982513
C   C210      1.0  0.18635  0.91065  0.11607  1.0000 0.0034982513
C   C211      1.0  0.12807  0.89893  0.59843  1.0000 -0.1012585661
C   C212      1.0  0.10107  0.87193  0.09843  1.0000 -0.1012585661
C   C213      1.0  0.06904  0.89736  0.57441  1.0000 -0.1662647849
C   C214      1.0  0.10264  0.93096  0.07441  1.0000 -0.1662647849
C   C215      1.0  0.15087  0.81673  0.64447  1.0000 0.5493933731
C   C216      1.0  0.18327  0.84913  0.14447  1.0000 0.5493933731
O   O1        1.0  0.68160  0.19620  0.25276  1.0000 -0.5327163464
O   O2        1.0  0.80380  0.31840  0.75276  1.0000 -0.5327163464
O   O3        1.0  0.83237  0.31623  0.26800  1.0000 -0.5113754249
O   O4        1.0  0.68377  0.16763  0.76800  1.0000 -0.5113754249
O   O5        1.0  0.67323  0.04337  0.26391  1.0000 -0.4873994714
O   O6        1.0  0.95663  0.32677  0.76391  1.0000 -0.4873994714
O   O7        1.0  0.82488  0.16692  0.25737  1.0000 -0.5027514225
O   O8        1.0  0.83308  0.17512  0.75737  1.0000 -0.5027514225
O   O9        1.0  0.76648  0.27712  0.84705  1.0000 -0.5153690702
O   O10       1.0  0.72288  0.23352  0.34705  1.0000 -0.5153690702
O   O11       1.0  0.91703  0.39937  0.83424  1.0000 -0.5113754249
O   O12       1.0  0.60063  0.08297  0.33424  1.0000 -0.5113754249
O   O13       1.0  0.74141  0.11559  0.83846  1.0000 -0.5027514225
O   O14       1.0  0.88441  0.25859  0.33846  1.0000 -0.5027514225
O   O15       1.0  0.89485  0.23635  0.84840  1.0000 -0.5440872884
O   O16       1.0  0.76365  0.10515  0.34840  1.0000 -0.5440872884
O   O17       1.0  0.19620  0.68160  0.24724  1.0000 -0.5327163464
O   O18       1.0  0.31840  0.80380  0.74724  1.0000 -0.5327163464
O   O19       1.0  0.31623  0.83237  0.23200  1.0000 -0.5113754249
O   O20       1.0  0.16763  0.68377  0.73200  1.0000 -0.5113754249
O   O21       1.0  0.04337  0.67323  0.23609  1.0000 -0.4873994714
O   O22       1.0  0.32677  0.95663  0.73609  1.0000 -0.4873994714
O   O23       1.0  0.16692  0.82488  0.24263  1.0000 -0.5027514225
O   O24       1.0  0.17512  0.83308  0.74263  1.0000 -0.5027514225
O   O25       1.0  0.27712  0.76648  0.65295  1.0000 -0.5153690702
O   O26       1.0  0.23352  0.72288  0.15295  1.0000 -0.5153690702
O   O27       1.0  0.39937  0.91703  0.66576  1.0000 -0.5113754249
O   O28       1.0  0.08297  0.60063  0.16576  1.0000 -0.5113754249
O   O29       1.0  0.11559  0.74141  0.66154  1.0000 -0.5027514225
O   O30       1.0  0.25859  0.88441  0.16154  1.0000 -0.5027514225
O   O31       1.0  0.23635  0.89485  0.65160  1.0000 -0.5440872884
O   O32       1.0  0.10515  0.76365  0.15160  1.0000 -0.5440872884
