# DDEC6 charges by PACMAN v1.1 (https://github.com/mtap-research/PACMAN-charge/)
data_2017[Cu][hcb]2[ASR]5
_chemical_formula_sum              "Cu4 H60 C52 N24 O12"
_cell_length_a       7.807
_cell_length_b       10.452
_cell_length_c       18.71
_cell_angle_alpha    90
_cell_angle_beta     90
_cell_angle_gamma    90

_symmetry_space_group_name_H-M    "P 1"
_symmetry_Int_Tables_number       1

loop_
  _symmetry_equiv_pos_as_xyz
  'x, y, z'

loop_
  _atom_site_type_symbol
  _atom_site_label
  _atom_site_symmetry_multiplicity
  _atom_site_fract_x
  _atom_site_fract_y
  _atom_site_fract_z
  _atom_site_occupancy
  _atom_site_charge
Cu  Cu1       1.0  0.06605  0.71761  0.23575  1.0000 0.607701522
Cu  Cu2       1.0  0.93395  0.71761  0.76425  1.0000 0.607701522
Cu  Cu3       1.0  0.56605  0.28239  0.26425  1.0000 0.607701522
Cu  Cu4       1.0  0.43395  0.28239  0.73575  1.0000 0.607701522
H   H1        1.0  0.43160  0.78050  0.20220  1.0000 0.1096362639
H   H2        1.0  0.05470  0.67410  0.07990  1.0000 0.1096362639
H   H3        1.0  0.70550  0.69690  0.29140  1.0000 0.1173467493
H   H4        1.0  0.76920  0.62880  0.36170  1.0000 0.1173467493
H   H5        1.0  0.98620  0.96040  0.33100  1.0000 0.1096362639
H   H6        1.0  0.14550  0.80760  0.38670  1.0000 0.1096362639
H   H7        1.0  0.98050  0.79020  0.43330  1.0000 0.0989152758
H   H8        1.0  0.61630  0.78860  0.10650  1.0000 0.1458833038
H   H9        1.0  0.22690  0.67500  0.98070  1.0000 0.1365093334
H   H10       1.0  0.53640  0.80290  0.36860  1.0000 0.0834029043
H   H11       1.0  0.65240  0.98850  0.33950  1.0000 0.1312002769
H   H12       1.0  0.77150  0.97900  0.40730  1.0000 0.1096362639
H   H13       1.0  0.99370  0.56640  0.41150  1.0000 0.1312002769
H   H14       1.0  0.14960  0.61690  0.45600  1.0000 0.1365093334
H   H15       1.0  0.66910  0.84320  0.48130  1.0000 0.3264787017
H   H16       1.0  0.56840  0.78050  0.79780  1.0000 0.1096362639
H   H17       1.0  0.94530  0.67410  0.92010  1.0000 0.1096362639
H   H18       1.0  0.29450  0.69690  0.70860  1.0000 0.1173467493
H   H19       1.0  0.23080  0.62880  0.63830  1.0000 0.1173467493
H   H20       1.0  0.01380  0.96040  0.66900  1.0000 0.1096362639
H   H21       1.0  0.85450  0.80760  0.61330  1.0000 0.1096362639
H   H22       1.0  0.01950  0.79020  0.56670  1.0000 0.0989152758
H   H23       1.0  0.38370  0.78860  0.89350  1.0000 0.1458833038
H   H24       1.0  0.77310  0.67500  0.01930  1.0000 0.1365093334
H   H25       1.0  0.46360  0.80290  0.63140  1.0000 0.0834029043
H   H26       1.0  0.34760  0.98850  0.66050  1.0000 0.1312002769
H   H27       1.0  0.22850  0.97900  0.59270  1.0000 0.1096362639
H   H28       1.0  0.00630  0.56640  0.58850  1.0000 0.1312002769
H   H29       1.0  0.85040  0.61690  0.54400  1.0000 0.1365093334
H   H30       1.0  0.33090  0.84320  0.51870  1.0000 0.3264787017
H   H31       1.0  0.93160  0.21950  0.29780  1.0000 0.1096362639
H   H32       1.0  0.55470  0.32590  0.42010  1.0000 0.1096362639
H   H33       1.0  0.20550  0.30310  0.20860  1.0000 0.1173467493
H   H34       1.0  0.26920  0.37120  0.13830  1.0000 0.1173467493
H   H35       1.0  0.48620  0.03960  0.16900  1.0000 0.1096362639
H   H36       1.0  0.64550  0.19240  0.11330  1.0000 0.1096362639
H   H37       1.0  0.48050  0.20980  0.06670  1.0000 0.0989152758
H   H38       1.0  0.11630  0.21140  0.39350  1.0000 0.1458833038
H   H39       1.0  0.72690  0.32500  0.51930  1.0000 0.1365093334
H   H40       1.0  0.03640  0.19710  0.13140  1.0000 0.0834029043
H   H41       1.0  0.15240  0.01150  0.16050  1.0000 0.1312002769
H   H42       1.0  0.27150  0.02100  0.09270  1.0000 0.1096362639
H   H43       1.0  0.49370  0.43360  0.08850  1.0000 0.1312002769
H   H44       1.0  0.64960  0.38310  0.04400  1.0000 0.1365093334
H   H45       1.0  0.16910  0.15680  0.01870  1.0000 0.3264787017
H   H46       1.0  0.06840  0.21950  0.70220  1.0000 0.1096362639
H   H47       1.0  0.44530  0.32590  0.57990  1.0000 0.1096362639
H   H48       1.0  0.79450  0.30310  0.79140  1.0000 0.1173467493
H   H49       1.0  0.73080  0.37120  0.86170  1.0000 0.1173467493
H   H50       1.0  0.51380  0.03960  0.83100  1.0000 0.1096362639
H   H51       1.0  0.35450  0.19240  0.88670  1.0000 0.1096362639
H   H52       1.0  0.51950  0.20980  0.93330  1.0000 0.0989152758
H   H53       1.0  0.88370  0.21140  0.60650  1.0000 0.1458833038
H   H54       1.0  0.27310  0.32500  0.48070  1.0000 0.1365093334
H   H55       1.0  0.96360  0.19710  0.86860  1.0000 0.0834029043
H   H56       1.0  0.84760  0.01150  0.83950  1.0000 0.1312002769
H   H57       1.0  0.72850  0.02100  0.90730  1.0000 0.1096362639
H   H58       1.0  0.50630  0.43360  0.91150  1.0000 0.1312002769
H   H59       1.0  0.35040  0.38310  0.95600  1.0000 0.1365093334
H   H60       1.0  0.83090  0.15680  0.98130  1.0000 0.3264787017
C   C1        1.0  0.39060  0.75990  0.15690  1.0000 0.0891225745
C   C2        1.0  0.16920  0.69680  0.08500  1.0000 0.0891225745
C   C3        1.0  0.76040  0.71040  0.33730  1.0000 -0.2007158355
C   C4        1.0  0.88960  0.90720  0.31580  1.0000 -0.0477540263
C   C5        1.0  0.04310  0.75610  0.39280  1.0000 -0.0891453059
C   C6        1.0  0.21540  0.56370  0.35590  1.0000 0.3109587176
C   C7        1.0  0.85630  0.93030  0.23580  1.0000 0.552473229
C   C8        1.0  0.50280  0.76450  0.09970  1.0000 -0.1714526297
C   C9        1.0  0.27170  0.69760  0.02500  1.0000 -0.1869360091
C   C10       1.0  0.65750  0.80520  0.38230  1.0000 0.1985304473
C   C11       1.0  0.73520  0.93530  0.36420  1.0000 -0.2968464674
C   C12       1.0  0.09570  0.61920  0.40930  1.0000 -0.2968464674
C   C13       1.0  0.44310  0.73250  0.03155  1.0000 0.1096362639
C   C14       1.0  0.60940  0.75990  0.84310  1.0000 0.0891225745
C   C15       1.0  0.83080  0.69680  0.91500  1.0000 0.0891225745
C   C16       1.0  0.23960  0.71040  0.66270  1.0000 -0.2007158355
C   C17       1.0  0.11040  0.90720  0.68420  1.0000 -0.0477540263
C   C18       1.0  0.95690  0.75610  0.60720  1.0000 -0.0891453059
C   C19       1.0  0.78460  0.56370  0.64410  1.0000 0.3109587176
C   C20       1.0  0.14370  0.93030  0.76420  1.0000 0.552473229
C   C21       1.0  0.49720  0.76450  0.90030  1.0000 -0.1714526297
C   C22       1.0  0.72830  0.69760  0.97500  1.0000 -0.1869360091
C   C23       1.0  0.34250  0.80520  0.61770  1.0000 0.1985304473
C   C24       1.0  0.26480  0.93530  0.63580  1.0000 -0.2968464674
C   C25       1.0  0.90430  0.61920  0.59070  1.0000 -0.2968464674
C   C26       1.0  0.55690  0.73250  0.96845  1.0000 0.1096362639
C   C27       1.0  0.89060  0.24010  0.34310  1.0000 0.0891225745
C   C28       1.0  0.66920  0.30320  0.41500  1.0000 0.0891225745
C   C29       1.0  0.26040  0.28960  0.16270  1.0000 -0.2007158355
C   C30       1.0  0.38960  0.09280  0.18420  1.0000 -0.0477540263
C   C31       1.0  0.54310  0.24390  0.10720  1.0000 -0.0891453059
C   C32       1.0  0.71540  0.43630  0.14410  1.0000 0.3109587176
C   C33       1.0  0.35630  0.06970  0.26420  1.0000 0.552473229
C   C34       1.0  0.00280  0.23550  0.40030  1.0000 -0.1714526297
C   C35       1.0  0.77170  0.30240  0.47500  1.0000 -0.1869360091
C   C36       1.0  0.15750  0.19480  0.11770  1.0000 0.1985304473
C   C37       1.0  0.23520  0.06470  0.13580  1.0000 -0.2968464674
C   C38       1.0  0.59570  0.38080  0.09070  1.0000 -0.2968464674
C   C39       1.0  0.94310  0.26750  0.46845  1.0000 0.1096362639
C   C40       1.0  0.10940  0.24010  0.65690  1.0000 0.0891225745
C   C41       1.0  0.33080  0.30320  0.58500  1.0000 0.0891225745
C   C42       1.0  0.73960  0.28960  0.83730  1.0000 -0.2007158355
C   C43       1.0  0.61040  0.09280  0.81580  1.0000 -0.0477540263
C   C44       1.0  0.45690  0.24390  0.89280  1.0000 -0.0891453059
C   C45       1.0  0.28460  0.43630  0.85590  1.0000 0.3109587176
C   C46       1.0  0.64370  0.06970  0.73580  1.0000 0.552473229
C   C47       1.0  0.99720  0.23550  0.59970  1.0000 -0.1714526297
C   C48       1.0  0.22830  0.30240  0.52500  1.0000 -0.1869360091
C   C49       1.0  0.84250  0.19480  0.88230  1.0000 0.1985304473
C   C50       1.0  0.76480  0.06470  0.86420  1.0000 -0.2968464674
C   C51       1.0  0.40430  0.38080  0.90930  1.0000 -0.2968464674
C   C52       1.0  0.05690  0.26750  0.53155  1.0000 0.1096362639
N   N1        1.0  0.22640  0.72720  0.15005  1.0000 -0.2007158355
N   N2        1.0  0.90450  0.54820  0.19589  1.0000 -0.0891453059
N   N3        1.0  0.93460  0.76840  0.32736  1.0000 -0.0891453059
N   N4        1.0  0.22680  0.60540  0.28838  1.0000 -0.2661583902
N   N5        1.0  0.34860  0.53350  0.25673  1.0000 -0.1018373625
N   N6        1.0  0.32310  0.46820  0.36752  1.0000 -0.3188297631
N   N7        1.0  0.77360  0.72720  0.84995  1.0000 -0.2007158355
N   N8        1.0  0.09550  0.54820  0.80411  1.0000 -0.0891453059
N   N9        1.0  0.06540  0.76840  0.67264  1.0000 -0.0891453059
N   N10       1.0  0.77320  0.60540  0.71162  1.0000 -0.2661583902
N   N11       1.0  0.65140  0.53350  0.74327  1.0000 -0.1018373625
N   N12       1.0  0.67690  0.46820  0.63248  1.0000 -0.3188297631
N   N13       1.0  0.72640  0.27280  0.34995  1.0000 -0.2007158355
N   N14       1.0  0.40450  0.45180  0.30411  1.0000 -0.0891453059
N   N15       1.0  0.43460  0.23160  0.17264  1.0000 -0.0891453059
N   N16       1.0  0.72680  0.39460  0.21162  1.0000 -0.2661583902
N   N17       1.0  0.84860  0.46650  0.24327  1.0000 -0.1018373625
N   N18       1.0  0.82310  0.53180  0.13248  1.0000 -0.3188297631
N   N19       1.0  0.27360  0.27280  0.65005  1.0000 -0.2007158355
N   N20       1.0  0.59550  0.45180  0.69589  1.0000 -0.0891453059
N   N21       1.0  0.56540  0.23160  0.82736  1.0000 -0.0891453059
N   N22       1.0  0.27320  0.39460  0.78838  1.0000 -0.2661583902
N   N23       1.0  0.15140  0.46650  0.75673  1.0000 -0.1018373625
N   N24       1.0  0.17690  0.53180  0.86752  1.0000 -0.3188297631
O   O1        1.0  0.91650  0.84650  0.19247  1.0000 -0.5255626472
O   O2        1.0  0.78170  0.02860  0.21688  1.0000 -0.5509596349
O   O3        1.0  0.67640  0.77680  0.45820  1.0000 -0.4984685661
O   O4        1.0  0.08350  0.84650  0.80753  1.0000 -0.5255626472
O   O5        1.0  0.21830  0.02860  0.78312  1.0000 -0.5509596349
O   O6        1.0  0.32360  0.77680  0.54180  1.0000 -0.4984685661
O   O7        1.0  0.41650  0.15350  0.30753  1.0000 -0.5255626472
O   O8        1.0  0.28170  0.97140  0.28312  1.0000 -0.5509596349
O   O9        1.0  0.17640  0.22320  0.04180  1.0000 -0.4984685661
O   O10       1.0  0.58350  0.15350  0.69247  1.0000 -0.5255626472
O   O11       1.0  0.71830  0.97140  0.71688  1.0000 -0.5509596349
O   O12       1.0  0.82360  0.22320  0.95820  1.0000 -0.4984685661
