# DDEC6 charges by PACMAN v1.1 (https://github.com/mtap-research/PACMAN-charge/)
data_2017[Tb][nan]3[ASR]9
_chemical_formula_sum              "Tb4 H60 C96 N4 O32"
_cell_length_a       15.175
_cell_length_b       10.927
_cell_length_c       20.718
_cell_angle_alpha    90
_cell_angle_beta     108.441
_cell_angle_gamma    90

_symmetry_space_group_name_H-M    "P 1"
_symmetry_Int_Tables_number       1

loop_
  _symmetry_equiv_pos_as_xyz
  'x, y, z'

loop_
  _atom_site_type_symbol
  _atom_site_label
  _atom_site_symmetry_multiplicity
  _atom_site_fract_x
  _atom_site_fract_y
  _atom_site_fract_z
  _atom_site_occupancy
  _atom_site_charge
Tb  Tb1       1.0  0.38631  0.96439  0.03292  1.0000 2.0590242305
Tb  Tb2       1.0  0.61369  0.96439  0.46708  1.0000 2.0590242305
Tb  Tb3       1.0  0.61369  0.03561  0.96708  1.0000 2.0590242305
Tb  Tb4       1.0  0.38631  0.03561  0.53292  1.0000 2.0590242305
H   H1        1.0  0.08270  0.89890  0.85880  1.0000 0.1294031328
H   H2        1.0  0.91730  0.89890  0.64120  1.0000 0.1294031328
H   H3        1.0  0.91730  0.10110  0.14120  1.0000 0.1294031328
H   H4        1.0  0.08270  0.10110  0.35880  1.0000 0.1294031328
H   H5        1.0  0.15040  0.63790  0.00390  1.0000 0.1294031328
H   H6        1.0  0.84960  0.63790  0.49610  1.0000 0.1294031328
H   H7        1.0  0.84960  0.36210  0.99610  1.0000 0.1294031328
H   H8        1.0  0.15040  0.36210  0.50390  1.0000 0.1294031328
H   H9        1.0  0.01810  0.52690  0.94470  1.0000 0.1232054714
H   H10       1.0  0.98190  0.52690  0.55530  1.0000 0.1232054714
H   H11       1.0  0.98190  0.47310  0.05530  1.0000 0.1232054714
H   H12       1.0  0.01810  0.47310  0.44470  1.0000 0.1232054714
H   H13       1.0  0.95120  0.78930  0.79990  1.0000 0.1294031328
H   H14       1.0  0.04880  0.78930  0.70010  1.0000 0.1294031328
H   H15       1.0  0.04880  0.21070  0.20010  1.0000 0.1294031328
H   H16       1.0  0.95120  0.21070  0.29990  1.0000 0.1294031328
H   H17       1.0  0.84330  0.57280  0.85880  1.0000 0.1294031328
H   H18       1.0  0.15670  0.57280  0.64120  1.0000 0.1294031328
H   H19       1.0  0.15670  0.42720  0.14120  1.0000 0.1294031328
H   H20       1.0  0.84330  0.42720  0.35880  1.0000 0.1294031328
H   H21       1.0  0.90420  0.49020  0.82570  1.0000 0.1294031328
H   H22       1.0  0.09580  0.49020  0.67430  1.0000 0.1294031328
H   H23       1.0  0.09580  0.50980  0.17430  1.0000 0.1294031328
H   H24       1.0  0.90420  0.50980  0.32570  1.0000 0.1294031328
H   H25       1.0  0.78740  0.74710  0.85620  1.0000 0.1294031328
H   H26       1.0  0.21260  0.74710  0.64380  1.0000 0.1294031328
H   H27       1.0  0.21260  0.25290  0.14380  1.0000 0.1294031328
H   H28       1.0  0.78740  0.25290  0.35620  1.0000 0.1294031328
H   H29       1.0  0.72000  0.71450  0.65020  1.0000 0.1294031328
H   H30       1.0  0.28000  0.71450  0.84980  1.0000 0.1294031328
H   H31       1.0  0.28000  0.28550  0.34980  1.0000 0.1294031328
H   H32       1.0  0.72000  0.28550  0.15020  1.0000 0.1294031328
H   H33       1.0  0.58000  0.95270  0.73120  1.0000 0.1489104879
H   H34       1.0  0.42000  0.95270  0.76880  1.0000 0.1489104879
H   H35       1.0  0.42000  0.04730  0.26880  1.0000 0.1489104879
H   H36       1.0  0.58000  0.04730  0.23120  1.0000 0.1489104879
H   H37       1.0  0.84350  0.61820  0.66960  1.0000 0.1232054714
H   H38       1.0  0.15650  0.61820  0.83040  1.0000 0.1232054714
H   H39       1.0  0.15650  0.38180  0.33040  1.0000 0.1232054714
H   H40       1.0  0.84350  0.38180  0.16960  1.0000 0.1232054714
H   H41       1.0  0.90610  0.51710  0.71900  1.0000 0.1232054714
H   H42       1.0  0.09390  0.51710  0.78100  1.0000 0.1232054714
H   H43       1.0  0.09390  0.48290  0.28100  1.0000 0.1232054714
H   H44       1.0  0.90610  0.48290  0.21900  1.0000 0.1232054714
H   H45       1.0  0.83670  0.39500  0.60910  1.0000 0.1294031328
H   H46       1.0  0.16330  0.39500  0.89090  1.0000 0.1294031328
H   H47       1.0  0.16330  0.60500  0.39090  1.0000 0.1294031328
H   H48       1.0  0.83670  0.60500  0.10910  1.0000 0.1294031328
H   H49       1.0  0.68190  0.49570  0.72470  1.0000 0.1294031328
H   H50       1.0  0.31810  0.49570  0.77530  1.0000 0.1294031328
H   H51       1.0  0.31810  0.50430  0.27530  1.0000 0.1294031328
H   H52       1.0  0.68190  0.50430  0.22470  1.0000 0.1294031328
H   H53       1.0  0.73000  0.24350  0.55940  1.0000 0.1489104879
H   H54       1.0  0.27000  0.24350  0.94060  1.0000 0.1489104879
H   H55       1.0  0.27000  0.75650  0.44060  1.0000 0.1489104879
H   H56       1.0  0.73000  0.75650  0.05940  1.0000 0.1489104879
H   H57       1.0  0.57420  0.34620  0.67480  1.0000 0.139160701
H   H58       1.0  0.42580  0.34620  0.82520  1.0000 0.139160701
H   H59       1.0  0.42580  0.65380  0.32520  1.0000 0.139160701
H   H60       1.0  0.57420  0.65380  0.17480  1.0000 0.139160701
C   C1        1.0  0.21400  0.85110  0.97560  1.0000 0.5713569605
C   C2        1.0  0.78600  0.85110  0.52440  1.0000 0.5713569605
C   C3        1.0  0.78600  0.14890  0.02440  1.0000 0.5713569605
C   C4        1.0  0.21400  0.14890  0.47560  1.0000 0.5713569605
C   C5        1.0  0.12890  0.78080  0.93750  1.0000 -0.0171389175
C   C6        1.0  0.87110  0.78080  0.56250  1.0000 -0.0171389175
C   C7        1.0  0.87110  0.21920  0.06250  1.0000 -0.0171389175
C   C8        1.0  0.12890  0.21920  0.43750  1.0000 -0.0171389175
C   C9        1.0  0.06950  0.82360  0.87680  1.0000 -0.0890691272
C   C10       1.0  0.93050  0.82360  0.62320  1.0000 -0.0890691272
C   C11       1.0  0.93050  0.17640  0.12320  1.0000 -0.0890691272
C   C12       1.0  0.06950  0.17640  0.37680  1.0000 -0.0890691272
C   C13       1.0  0.10940  0.66920  0.96250  1.0000 -0.0890691272
C   C14       1.0  0.89060  0.66920  0.53750  1.0000 -0.0890691272
C   C15       1.0  0.89060  0.33080  0.03750  1.0000 -0.0890691272
C   C16       1.0  0.10940  0.33080  0.46250  1.0000 -0.0890691272
C   C17       1.0  0.03050  0.60320  0.92740  1.0000 -0.178775766
C   C18       1.0  0.96950  0.60320  0.57260  1.0000 -0.178775766
C   C19       1.0  0.96950  0.39680  0.07260  1.0000 -0.178775766
C   C20       1.0  0.03050  0.39680  0.42740  1.0000 -0.178775766
C   C21       1.0  0.96950  0.64950  0.86670  1.0000 0.1122508262
C   C22       1.0  0.03050  0.64950  0.63330  1.0000 0.1122508262
C   C23       1.0  0.03050  0.35050  0.13330  1.0000 0.1122508262
C   C24       1.0  0.96950  0.35050  0.36670  1.0000 0.1122508262
C   C25       1.0  0.99110  0.75840  0.84190  1.0000 -0.15804894
C   C26       1.0  0.00890  0.75840  0.65810  1.0000 -0.15804894
C   C27       1.0  0.00890  0.24160  0.15810  1.0000 -0.15804894
C   C28       1.0  0.99110  0.24160  0.34190  1.0000 -0.15804894
C   C29       1.0  0.88450  0.57520  0.83020  1.0000 -0.178775766
C   C30       1.0  0.11550  0.57520  0.66980  1.0000 -0.178775766
C   C31       1.0  0.11550  0.42480  0.16980  1.0000 -0.178775766
C   C32       1.0  0.88450  0.42480  0.33020  1.0000 -0.178775766
C   C33       1.0  0.76580  0.71100  0.75520  1.0000 0.1832473622
C   C34       1.0  0.23420  0.71100  0.74480  1.0000 0.1832473622
C   C35       1.0  0.23420  0.28900  0.24480  1.0000 0.1832473622
C   C36       1.0  0.76580  0.28900  0.25520  1.0000 0.1832473622
C   C37       1.0  0.75120  0.77020  0.81140  1.0000 -0.2122547245
C   C38       1.0  0.24880  0.77020  0.68860  1.0000 -0.2122547245
C   C39       1.0  0.24880  0.22980  0.18860  1.0000 -0.2122547245
C   C40       1.0  0.75120  0.22980  0.31140  1.0000 -0.2122547245
C   C41       1.0  0.71000  0.74930  0.68930  1.0000 -0.2003514907
C   C42       1.0  0.29000  0.74930  0.81070  1.0000 -0.2003514907
C   C43       1.0  0.29000  0.25070  0.31070  1.0000 -0.2003514907
C   C44       1.0  0.71000  0.25070  0.18930  1.0000 -0.2003514907
C   C45       1.0  0.64170  0.83620  0.68150  1.0000 0.0084145934
C   C46       1.0  0.35830  0.83620  0.81850  1.0000 0.0084145934
C   C47       1.0  0.35830  0.16380  0.31850  1.0000 0.0084145934
C   C48       1.0  0.64170  0.16380  0.18150  1.0000 0.0084145934
C   C49       1.0  0.58170  0.87280  0.61090  1.0000 0.6441134074
C   C50       1.0  0.41830  0.87280  0.88910  1.0000 0.6441134074
C   C51       1.0  0.41830  0.12720  0.38910  1.0000 0.6441134074
C   C52       1.0  0.58170  0.12720  0.11090  1.0000 0.6441134074
C   C53       1.0  0.62760  0.89320  0.73720  1.0000 -0.1083697743
C   C54       1.0  0.37240  0.89320  0.76280  1.0000 -0.1083697743
C   C55       1.0  0.37240  0.10680  0.26280  1.0000 -0.1083697743
C   C56       1.0  0.62760  0.10680  0.23720  1.0000 -0.1083697743
C   C57       1.0  0.68500  0.86140  0.80260  1.0000 0.0281075006
C   C58       1.0  0.31500  0.86140  0.69740  1.0000 0.0281075006
C   C59       1.0  0.31500  0.13860  0.19740  1.0000 0.0281075006
C   C60       1.0  0.68500  0.13860  0.30260  1.0000 0.0281075006
C   C61       1.0  0.67180  0.92470  0.86350  1.0000 0.5713569605
C   C62       1.0  0.32820  0.92470  0.63650  1.0000 0.5713569605
C   C63       1.0  0.32820  0.07530  0.13650  1.0000 0.5713569605
C   C64       1.0  0.67180  0.07530  0.36350  1.0000 0.5713569605
C   C65       1.0  0.84410  0.55650  0.70470  1.0000 -0.1737216032
C   C66       1.0  0.15590  0.55650  0.79530  1.0000 -0.1737216032
C   C67       1.0  0.15590  0.44350  0.29530  1.0000 -0.1737216032
C   C68       1.0  0.84410  0.44350  0.20470  1.0000 -0.1737216032
C   C69       1.0  0.77150  0.46040  0.67330  1.0000 0.1122508262
C   C70       1.0  0.22850  0.46040  0.82670  1.0000 0.1122508262
C   C71       1.0  0.22850  0.53960  0.32670  1.0000 0.1122508262
C   C72       1.0  0.77150  0.53960  0.17330  1.0000 0.1122508262
C   C73       1.0  0.78330  0.38510  0.62310  1.0000 -0.15804894
C   C74       1.0  0.21670  0.38510  0.87690  1.0000 -0.15804894
C   C75       1.0  0.21670  0.61490  0.37690  1.0000 -0.15804894
C   C76       1.0  0.78330  0.61490  0.12310  1.0000 -0.15804894
C   C77       1.0  0.69240  0.44430  0.69090  1.0000 -0.1471302054
C   C78       1.0  0.30760  0.44430  0.80910  1.0000 -0.1471302054
C   C79       1.0  0.30760  0.55570  0.30910  1.0000 -0.1471302054
C   C80       1.0  0.69240  0.55570  0.19090  1.0000 -0.1471302054
C   C81       1.0  0.71910  0.29540  0.59290  1.0000 -0.0692708121
C   C82       1.0  0.28090  0.29540  0.90710  1.0000 -0.0692708121
C   C83       1.0  0.28090  0.70460  0.40710  1.0000 -0.0692708121
C   C84       1.0  0.71910  0.70460  0.09290  1.0000 -0.0692708121
C   C85       1.0  0.62770  0.35550  0.66070  1.0000 -0.0763134724
C   C86       1.0  0.37230  0.35550  0.83930  1.0000 -0.0763134724
C   C87       1.0  0.37230  0.64450  0.33930  1.0000 -0.0763134724
C   C88       1.0  0.62770  0.64450  0.16070  1.0000 -0.0763134724
C   C89       1.0  0.63920  0.28040  0.61070  1.0000 -0.0171389175
C   C90       1.0  0.36080  0.28040  0.88930  1.0000 -0.0171389175
C   C91       1.0  0.36080  0.71960  0.38930  1.0000 -0.0171389175
C   C92       1.0  0.63920  0.71960  0.11070  1.0000 -0.0171389175
C   C93       1.0  0.56780  0.18690  0.57700  1.0000 0.6441134074
C   C94       1.0  0.43220  0.18690  0.92300  1.0000 0.6441134074
C   C95       1.0  0.43220  0.81310  0.42300  1.0000 0.6441134074
C   C96       1.0  0.56780  0.81310  0.07700  1.0000 0.6441134074
N   N1        1.0  0.83120  0.61910  0.76340  1.0000 -0.0692708121
N   N2        1.0  0.16880  0.61910  0.73660  1.0000 -0.0692708121
N   N3        1.0  0.16880  0.38090  0.23660  1.0000 -0.0692708121
N   N4        1.0  0.83120  0.38090  0.26340  1.0000 -0.0692708121
O   O1        1.0  0.27460  0.80180  0.02580  1.0000 -0.6004725785
O   O2        1.0  0.72540  0.80180  0.47420  1.0000 -0.6004725785
O   O3        1.0  0.72540  0.19820  0.97420  1.0000 -0.6004725785
O   O4        1.0  0.27460  0.19820  0.52580  1.0000 -0.6004725785
O   O5        1.0  0.22540  0.95750  0.95700  1.0000 -0.6004725785
O   O6        1.0  0.77460  0.95750  0.54300  1.0000 -0.6004725785
O   O7        1.0  0.77460  0.04250  0.04300  1.0000 -0.6004725785
O   O8        1.0  0.22540  0.04250  0.45700  1.0000 -0.6004725785
O   O9        1.0  0.69280  0.87230  0.92010  1.0000 -0.6073877058
O   O10       1.0  0.30720  0.87230  0.57990  1.0000 -0.6073877058
O   O11       1.0  0.30720  0.12770  0.07990  1.0000 -0.6073877058
O   O12       1.0  0.69280  0.12770  0.42010  1.0000 -0.6073877058
O   O13       1.0  0.63890  0.03180  0.85630  1.0000 -0.5934339008
O   O14       1.0  0.36110  0.03180  0.64370  1.0000 -0.5934339008
O   O15       1.0  0.36110  0.96820  0.14370  1.0000 -0.5934339008
O   O16       1.0  0.63890  0.96820  0.35630  1.0000 -0.5934339008
O   O17       1.0  0.50720  0.92400  0.60710  1.0000 -0.6274570814
O   O18       1.0  0.49280  0.92400  0.89290  1.0000 -0.6274570814
O   O19       1.0  0.49280  0.07600  0.39290  1.0000 -0.6274570814
O   O20       1.0  0.50720  0.07600  0.10710  1.0000 -0.6274570814
O   O21       1.0  0.61050  0.84740  0.56220  1.0000 -0.6366853407
O   O22       1.0  0.38950  0.84740  0.93780  1.0000 -0.6366853407
O   O23       1.0  0.38950  0.15260  0.43780  1.0000 -0.6366853407
O   O24       1.0  0.61050  0.15260  0.06220  1.0000 -0.6366853407
O   O25       1.0  0.49160  0.18960  0.58810  1.0000 -0.6004725785
O   O26       1.0  0.50840  0.18960  0.91190  1.0000 -0.6004725785
O   O27       1.0  0.50840  0.81040  0.41190  1.0000 -0.6004725785
O   O28       1.0  0.49160  0.81040  0.08810  1.0000 -0.6004725785
O   O29       1.0  0.58710  0.11100  0.53780  1.0000 -0.6963322005
O   O30       1.0  0.41290  0.11100  0.96220  1.0000 -0.6963322005
O   O31       1.0  0.41290  0.88900  0.46220  1.0000 -0.6963322005
O   O32       1.0  0.58710  0.88900  0.03780  1.0000 -0.6963322005
