# DDEC6 charges by PACMAN v1.1 (https://github.com/mtap-research/PACMAN-charge/)
data_2017[Zn][hcb]2[ASR]2
_chemical_formula_sum              "Zn4 H32 C56 N12 O24"
_cell_length_a       11.228
_cell_length_b       12.302
_cell_length_c       21.501
_cell_angle_alpha    99.524
_cell_angle_beta     98.357
_cell_angle_gamma    108.353

_symmetry_space_group_name_H-M    "P 1"
_symmetry_Int_Tables_number       1

loop_
  _symmetry_equiv_pos_as_xyz
  'x, y, z'

loop_
  _atom_site_type_symbol
  _atom_site_label
  _atom_site_symmetry_multiplicity
  _atom_site_fract_x
  _atom_site_fract_y
  _atom_site_fract_z
  _atom_site_occupancy
  _atom_site_charge
Zn  Zn1       1.0  0.19400  0.43530  0.41605  1.0000 0.8508079547
Zn  Zn2       1.0  0.56580  0.81330  0.14403  1.0000 0.8339261014
Zn  Zn3       1.0  0.80600  0.56470  0.58395  1.0000 0.8508079547
Zn  Zn4       1.0  0.43420  0.18670  0.85597  1.0000 0.8339261014
H   H1        1.0  0.46730  0.19890  0.43740  1.0000 0.3508160535
H   H2        1.0  0.52740  0.03500  0.31680  1.0000 0.1479714803
H   H3        1.0  0.32470  0.06610  0.13320  1.0000 0.3508160535
H   H4        1.0  0.26450  0.23220  0.25310  1.0000 0.1423985448
H   H5        1.0  0.94930  0.69020  0.42470  1.0000 0.3508160535
H   H6        1.0  0.79370  0.75280  0.31000  1.0000 0.1479714803
H   H7        1.0  0.75520  0.50260  0.12910  1.0000 0.3508160535
H   H8        1.0  0.96000  0.47610  0.24410  1.0000 0.1479714803
H   H9        1.0  0.11640  0.56640  0.52860  1.0000 0.1092337437
H   H10       1.0  0.19830  0.65220  0.63560  1.0000 0.1479714803
H   H11       1.0  0.46640  0.51000  0.63570  1.0000 0.1423985448
H   H12       1.0  0.40090  0.44430  0.52610  1.0000 0.119570912
H   H13       1.0  0.41490  0.86270  0.92160  1.0000 0.1423985448
H   H14       1.0  0.45880  0.90640  0.03350  1.0000 0.1092337437
H   H15       1.0  0.57960  0.63170  0.03310  1.0000 0.119570912
H   H16       1.0  0.53570  0.58790  0.92120  1.0000 0.1423985448
H   H17       1.0  0.53270  0.80110  0.56260  1.0000 0.3508160535
H   H18       1.0  0.47260  0.96500  0.68320  1.0000 0.1479714803
H   H19       1.0  0.67530  0.93390  0.86680  1.0000 0.3508160535
H   H20       1.0  0.73550  0.76780  0.74690  1.0000 0.1423985448
H   H21       1.0  0.05070  0.30980  0.57530  1.0000 0.3508160535
H   H22       1.0  0.20630  0.24720  0.69000  1.0000 0.1479714803
H   H23       1.0  0.24480  0.49740  0.87090  1.0000 0.3508160535
H   H24       1.0  0.04000  0.52390  0.75590  1.0000 0.1479714803
H   H25       1.0  0.88360  0.43360  0.47140  1.0000 0.1092337437
H   H26       1.0  0.80170  0.34780  0.36440  1.0000 0.1479714803
H   H27       1.0  0.53360  0.49000  0.36430  1.0000 0.1423985448
H   H28       1.0  0.59910  0.55570  0.47390  1.0000 0.119570912
H   H29       1.0  0.58510  0.13730  0.07840  1.0000 0.1423985448
H   H30       1.0  0.54120  0.09360  0.96650  1.0000 0.1092337437
H   H31       1.0  0.42040  0.36830  0.96690  1.0000 0.119570912
H   H32       1.0  0.46430  0.41210  0.07880  1.0000 0.1423985448
C   C1        1.0  0.35800  0.20000  0.33260  1.0000 -0.1783283379
C   C2        1.0  0.44100  0.14100  0.34739  1.0000 0.2192279297
C   C3        1.0  0.47200  0.07300  0.30341  1.0000 -0.1507534977
C   C4        1.0  0.42697  0.05641  0.24020  1.0000 -0.1322494846
C   C5        1.0  0.34800  0.11400  0.21860  1.0000 0.2756962079
C   C6        1.0  0.31500  0.18961  0.26621  1.0000 -0.1700329807
C   C7        1.0  0.32300  0.27100  0.38101  1.0000 0.5802551961
C   C8        1.0  0.46000  0.97400  0.19030  1.0000 0.5802551961
C   C9        1.0  0.95900  0.59000  0.31880  1.0000 -0.1322494846
C   C10       1.0  0.91000  0.67700  0.34040  1.0000 0.2487446937
C   C11       1.0  0.83200  0.69900  0.29600  1.0000 -0.2275838059
C   C12       1.0  0.80100  0.64800  0.22860  1.0000 -0.1167995248
C   C13       1.0  0.85600  0.56500  0.21301  1.0000 0.2192279297
C   C14       1.0  0.92900  0.53600  0.25700  1.0000 -0.1507534977
C   C15       1.0  0.04700  0.56000  0.36840  1.0000 0.5802551961
C   C16       1.0  0.71400  0.68400  0.18231  1.0000 0.5802551961
C   C17       1.0  0.19100  0.55800  0.54890  1.0000 0.0887554075
C   C18       1.0  0.23600  0.60400  0.61430  1.0000 -0.1588030223
C   C19       1.0  0.33100  0.58201  0.64780  1.0000 0.0720313791
C   C20       1.0  0.39600  0.52320  0.61411  1.0000 -0.1700329807
C   C21       1.0  0.35600  0.48400  0.54819  1.0000 0.0775023499
C   C22       1.0  0.37000  0.62098  0.71929  1.0000 0.2572551716
C   C23       1.0  0.43300  0.68700  0.84040  1.0000 0.2371866304
C   C24       1.0  0.47100  0.72100  0.91030  1.0000 0.0583758961
C   C25       1.0  0.44790  0.81640  0.94393  1.0000 -0.1507534977
C   C26       1.0  0.47430  0.84260  0.01098  1.0000 0.0720313791
C   C27       1.0  0.54660  0.67800  0.01077  1.0000 0.0720313791
C   C28       1.0  0.52030  0.65180  0.94372  1.0000 -0.1507534977
C   C29       1.0  0.64200  0.80000  0.66740  1.0000 -0.1783283379
C   C30       1.0  0.55900  0.85900  0.65261  1.0000 0.2192279297
C   C31       1.0  0.52800  0.92700  0.69659  1.0000 -0.1507534977
C   C32       1.0  0.57303  0.94359  0.75980  1.0000 -0.1322494846
C   C33       1.0  0.65200  0.88600  0.78140  1.0000 0.2756962079
C   C34       1.0  0.68500  0.81039  0.73379  1.0000 -0.1700329807
C   C35       1.0  0.67700  0.72900  0.61899  1.0000 0.5802551961
C   C36       1.0  0.54000  0.02600  0.80970  1.0000 0.5861422021
C   C37       1.0  0.04100  0.41000  0.68120  1.0000 -0.1322494846
C   C38       1.0  0.09000  0.32300  0.65960  1.0000 0.2487446937
C   C39       1.0  0.16800  0.30100  0.70400  1.0000 -0.2275838059
C   C40       1.0  0.19900  0.35200  0.77140  1.0000 -0.1167995248
C   C41       1.0  0.14400  0.43500  0.78699  1.0000 0.2192279297
C   C42       1.0  0.07100  0.46400  0.74300  1.0000 -0.1507534977
C   C43       1.0  0.95300  0.44000  0.63160  1.0000 0.5802551961
C   C44       1.0  0.28600  0.31600  0.81769  1.0000 0.5802551961
C   C45       1.0  0.80900  0.44200  0.45110  1.0000 0.0887554075
C   C46       1.0  0.76400  0.39600  0.38570  1.0000 -0.1588030223
C   C47       1.0  0.66900  0.41799  0.35220  1.0000 0.0775023499
C   C48       1.0  0.60400  0.47680  0.38589  1.0000 -0.1700329807
C   C49       1.0  0.64400  0.51600  0.45181  1.0000 0.0775023499
C   C50       1.0  0.63000  0.37902  0.28071  1.0000 0.2572551716
C   C51       1.0  0.56700  0.31300  0.15960  1.0000 0.2371866304
C   C52       1.0  0.52900  0.27900  0.08970  1.0000 0.0583758961
C   C53       1.0  0.55210  0.18360  0.05607  1.0000 -0.1507534977
C   C54       1.0  0.52570  0.15740  0.98902  1.0000 0.0720313791
C   C55       1.0  0.45340  0.32200  0.98923  1.0000 0.0720313791
C   C56       1.0  0.47970  0.34820  0.05628  1.0000 -0.1507534977
N   N1        1.0  0.25300  0.50080  0.51351  1.0000 -0.2662181806
N   N2        1.0  0.32580  0.70249  0.74740  1.0000 -0.1409676921
N   N3        1.0  0.35400  0.73420  0.81071  1.0000 -0.1322494846
N   N4        1.0  0.48300  0.61410  0.81330  1.0000 -0.1507534977
N   N5        1.0  0.45100  0.58059  0.74869  1.0000 -0.1588030223
N   N6        1.0  0.52360  0.77340  0.04440  1.0000 -0.2662181806
N   N7        1.0  0.74700  0.49920  0.48649  1.0000 -0.2662181806
N   N8        1.0  0.67420  0.29751  0.25260  1.0000 -0.1409676921
N   N9        1.0  0.64600  0.26580  0.18929  1.0000 -0.1322494846
N   N10       1.0  0.51700  0.38590  0.18670  1.0000 -0.1507534977
N   N11       1.0  0.54900  0.41941  0.25131  1.0000 -0.1588030223
N   N12       1.0  0.47640  0.22660  0.95560  1.0000 -0.2662181806
O   O1        1.0  0.49790  0.15830  0.41519  1.0000 -0.4517233473
O   O2        1.0  0.30230  0.11160  0.15720  1.0000 -0.3883086246
O   O3        1.0  0.24560  0.32260  0.36110  1.0000 -0.5467671108
O   O4        1.0  0.36360  0.27900  0.43980  1.0000 -0.5467671108
O   O5        1.0  0.41500  0.96270  0.13150  1.0000 -0.5731221836
O   O6        1.0  0.52450  0.91650  0.21111  1.0000 -0.4985290569
O   O7        1.0  0.93000  0.73100  0.40130  1.0000 -0.3533389669
O   O8        1.0  0.82760  0.50750  0.14591  1.0000 -0.4404747289
O   O9        1.0  0.08300  0.47371  0.34820  1.0000 -0.5184656085
O   O10       1.0  0.08570  0.61730  0.42311  1.0000 -0.5184656085
O   O11       1.0  0.69140  0.63090  0.12409  1.0000 -0.5731221836
O   O12       1.0  0.66200  0.75220  0.20559  1.0000 -0.5184656085
O   O13       1.0  0.50210  0.84170  0.58481  1.0000 -0.4517233473
O   O14       1.0  0.69770  0.88840  0.84280  1.0000 -0.3883086246
O   O15       1.0  0.75440  0.67740  0.63890  1.0000 -0.5467671108
O   O16       1.0  0.63640  0.72100  0.56020  1.0000 -0.5467671108
O   O17       1.0  0.58500  0.03730  0.86850  1.0000 -0.5731221836
O   O18       1.0  0.47550  0.08350  0.78889  1.0000 -0.4985290569
O   O19       1.0  0.07000  0.26900  0.59870  1.0000 -0.3533389669
O   O20       1.0  0.17240  0.49250  0.85409  1.0000 -0.4404747289
O   O21       1.0  0.91700  0.52629  0.65180  1.0000 -0.5184656085
O   O22       1.0  0.91430  0.38270  0.57689  1.0000 -0.5184656085
O   O23       1.0  0.30860  0.36910  0.87591  1.0000 -0.5731221836
O   O24       1.0  0.33800  0.24780  0.79441  1.0000 -0.5184656085
