# DDEC6 charges by PACMAN v1.1 (https://github.com/mtap-research/PACMAN-charge/)
data_2017[Ag][hcb]2[ASR]5
_chemical_formula_sum              "Ag4 H84 C108 N12 O24"
_cell_length_a       14.012
_cell_length_b       16.9544
_cell_length_c       17.6599
_cell_angle_alpha    61.568
_cell_angle_beta     69.311
_cell_angle_gamma    76.41

_symmetry_space_group_name_H-M    "P 1"
_symmetry_Int_Tables_number       1

loop_
  _symmetry_equiv_pos_as_xyz
  'x, y, z'

loop_
  _atom_site_type_symbol
  _atom_site_label
  _atom_site_symmetry_multiplicity
  _atom_site_fract_x
  _atom_site_fract_y
  _atom_site_fract_z
  _atom_site_occupancy
  _atom_site_charge
Ag  Ag1       1.0  0.95203  0.78279  0.69930  1.0000 0.2311425292
Ag  Ag2       1.0  0.58597  0.18656  0.81056  1.0000 0.2311425292
Ag  Ag3       1.0  0.04797  0.21721  0.30070  1.0000 0.2311425292
Ag  Ag4       1.0  0.41403  0.81344  0.18944  1.0000 0.2311425292
H   H1        1.0  0.09810  0.60360  0.77120  1.0000 0.0997904081
H   H2        1.0  0.09540  0.45890  0.88500  1.0000 0.1396181666
H   H3        1.0  0.79190  0.50540  0.98150  1.0000 0.1329811015
H   H4        1.0  0.80330  0.65000  0.86480  1.0000 0.0997904081
H   H5        1.0  0.76300  0.25570  0.17810  1.0000 0.1107692379
H   H6        1.0  0.88250  0.24290  0.17020  1.0000 0.0997904081
H   H7        1.0  0.85180  0.08460  0.21510  1.0000 0.1107692379
H   H8        1.0  0.97780  0.68000  0.58380  1.0000 0.0997904081
H   H9        1.0  0.95710  0.69520  0.45340  1.0000 0.1396181666
H   H10       1.0  0.85610  0.95450  0.39520  1.0000 0.1209376867
H   H11       1.0  0.87570  0.93430  0.52700  1.0000 0.0907505321
H   H12       1.0  0.93050  0.90910  0.15340  1.0000 0.0997904081
H   H13       1.0  0.80840  0.91560  0.19260  1.0000 0.1107692379
H   H14       1.0  0.88660  0.02290  0.01160  1.0000 0.1107692379
H   H15       1.0  0.92060  0.83310  0.86070  1.0000 0.1107692379
H   H16       1.0  0.89360  0.95300  0.89310  1.0000 0.1329811015
H   H17       1.0  0.85900  0.11410  0.64600  1.0000 0.1209376867
H   H18       1.0  0.89200  0.99050  0.61850  1.0000 0.0907505321
H   H19       1.0  0.92850  0.22490  0.84000  1.0000 0.1209376867
H   H20       1.0  0.80580  0.22930  0.86810  1.0000 0.1107692379
H   H21       1.0  0.85180  0.28290  0.96830  1.0000 0.1107692379
H   H22       1.0  0.59220  0.12710  0.66330  1.0000 0.0997904081
H   H23       1.0  0.61600  0.00730  0.63000  1.0000 0.1329811015
H   H24       1.0  0.66350  0.84450  0.87260  1.0000 0.1329811015
H   H25       1.0  0.63720  0.97040  0.89910  1.0000 0.0907505321
H   H26       1.0  0.70740  0.73930  0.64230  1.0000 0.0997904081
H   H27       1.0  0.58470  0.74270  0.67790  1.0000 0.1209376867
H   H28       1.0  0.64930  0.68850  0.54730  1.0000 0.1209376867
H   H29       1.0  0.56220  0.30150  0.91960  1.0000 0.0997904081
H   H30       1.0  0.56980  0.28500  0.05530  1.0000 0.1396181666
H   H31       1.0  0.63590  0.01710  0.12730  1.0000 0.1209376867
H   H32       1.0  0.63130  0.04170  0.98930  1.0000 0.0907505321
H   H33       1.0  0.67330  0.06210  0.33650  1.0000 0.1107692379
H   H34       1.0  0.55090  0.06170  0.36890  1.0000 0.1107692379
H   H35       1.0  0.62090  0.89260  0.30900  1.0000 0.1107692379
H   H36       1.0  0.73050  0.26310  0.60270  1.0000 0.0997904081
H   H37       1.0  0.75870  0.39500  0.47120  1.0000 0.1329811015
H   H38       1.0  0.51680  0.51720  0.59220  1.0000 0.1396181666
H   H39       1.0  0.48670  0.37890  0.71360  1.0000 0.0997904081
H   H40       1.0  0.71930  0.71410  0.34460  1.0000 0.1209376867
H   H41       1.0  0.60120  0.73720  0.34550  1.0000 0.0997904081
H   H42       1.0  0.62450  0.94860  0.50660  1.0000 0.1107692379
H   H43       1.0  0.90190  0.39640  0.22880  1.0000 0.0997904081
H   H44       1.0  0.90460  0.54110  0.11500  1.0000 0.1396181666
H   H45       1.0  0.20810  0.49460  0.01850  1.0000 0.1329811015
H   H46       1.0  0.19670  0.35000  0.13520  1.0000 0.0997904081
H   H47       1.0  0.23700  0.74430  0.82190  1.0000 0.1107692379
H   H48       1.0  0.11750  0.75710  0.82980  1.0000 0.0997904081
H   H49       1.0  0.14820  0.91540  0.78490  1.0000 0.1107692379
H   H50       1.0  0.02220  0.32000  0.41620  1.0000 0.0997904081
H   H51       1.0  0.04290  0.30480  0.54660  1.0000 0.1396181666
H   H52       1.0  0.14390  0.04550  0.60480  1.0000 0.1209376867
H   H53       1.0  0.12430  0.06570  0.47300  1.0000 0.0907505321
H   H54       1.0  0.06950  0.09090  0.84660  1.0000 0.0997904081
H   H55       1.0  0.19160  0.08440  0.80740  1.0000 0.1107692379
H   H56       1.0  0.11340  0.97710  0.98840  1.0000 0.1107692379
H   H57       1.0  0.07940  0.16690  0.13930  1.0000 0.1107692379
H   H58       1.0  0.10640  0.04700  0.10690  1.0000 0.1329811015
H   H59       1.0  0.14100  0.88590  0.35400  1.0000 0.1209376867
H   H60       1.0  0.10800  0.00950  0.38150  1.0000 0.0907505321
H   H61       1.0  0.07150  0.77510  0.16000  1.0000 0.1209376867
H   H62       1.0  0.19420  0.77070  0.13190  1.0000 0.1107692379
H   H63       1.0  0.14820  0.71710  0.03170  1.0000 0.1107692379
H   H64       1.0  0.40780  0.87290  0.33670  1.0000 0.0997904081
H   H65       1.0  0.38400  0.99270  0.37000  1.0000 0.1329811015
H   H66       1.0  0.33650  0.15550  0.12740  1.0000 0.1329811015
H   H67       1.0  0.36280  0.02960  0.10090  1.0000 0.0907505321
H   H68       1.0  0.29260  0.26070  0.35770  1.0000 0.0997904081
H   H69       1.0  0.41530  0.25730  0.32210  1.0000 0.1209376867
H   H70       1.0  0.35070  0.31150  0.45270  1.0000 0.1209376867
H   H71       1.0  0.43780  0.69850  0.08040  1.0000 0.0997904081
H   H72       1.0  0.43020  0.71500  0.94470  1.0000 0.1396181666
H   H73       1.0  0.36410  0.98290  0.87270  1.0000 0.1209376867
H   H74       1.0  0.36870  0.95830  0.01070  1.0000 0.0907505321
H   H75       1.0  0.32670  0.93790  0.66350  1.0000 0.1107692379
H   H76       1.0  0.44910  0.93830  0.63110  1.0000 0.0997904081
H   H77       1.0  0.37910  0.10740  0.69100  1.0000 0.1107692379
H   H78       1.0  0.26950  0.73690  0.39730  1.0000 0.0997904081
H   H79       1.0  0.24130  0.60500  0.52880  1.0000 0.1329811015
H   H80       1.0  0.48320  0.48280  0.40780  1.0000 0.1396181666
H   H81       1.0  0.51330  0.62110  0.28640  1.0000 0.0997904081
H   H82       1.0  0.28070  0.28590  0.65540  1.0000 0.1209376867
H   H83       1.0  0.39880  0.26280  0.65450  1.0000 0.0997904081
H   H84       1.0  0.37550  0.05140  0.49340  1.0000 0.1107692379
C   C1        1.0  0.03480  0.58310  0.81440  1.0000 0.0395485271
C   C2        1.0  0.03390  0.49720  0.88240  1.0000 -0.160414781
C   C3        1.0  0.94340  0.46760  0.94620  1.0000 -0.0063467522
C   C4        1.0  0.85610  0.52430  0.93910  1.0000 -0.1694137661
C   C5        1.0  0.86360  0.61010  0.86860  1.0000 0.0773589172
C   C6        1.0  0.93960  0.37500  0.02080  1.0000 0.4897448329
C   C7        1.0  0.83260  0.25920  0.13600  1.0000 -0.1037137426
C   C8        1.0  0.84870  0.19470  0.09800  1.0000 0.0997904081
C   C9        1.0  0.85540  0.10340  0.15420  1.0000 -0.2237642598
C   C10       1.0  0.95140  0.73630  0.54540  1.0000 0.0285965753
C   C11       1.0  0.94060  0.74550  0.46720  1.0000 -0.160414781
C   C12       1.0  0.90640  0.82620  0.40920  1.0000 0.0076353763
C   C13       1.0  0.88110  0.89730  0.43350  1.0000 -0.1772712809
C   C14       1.0  0.89220  0.88470  0.51220  1.0000 0.0466539719
C   C15       1.0  0.89830  0.83620  0.32220  1.0000 0.4897448329
C   C16       1.0  0.87160  0.94010  0.18280  1.0000 -0.0840085066
C   C17       1.0  0.86740  0.03790  0.12340  1.0000 0.0997904081
C   C18       1.0  0.87450  0.06660  0.03390  1.0000 -0.2237642598
C   C19       1.0  0.90960  0.89160  0.81570  1.0000 0.0395485271
C   C20       1.0  0.89240  0.96230  0.83590  1.0000 -0.1694137661
C   C21       1.0  0.87300  0.04760  0.77340  1.0000 0.0028046674
C   C22       1.0  0.87280  0.05660  0.69100  1.0000 -0.1772712809
C   C23       1.0  0.89230  0.98280  0.67530  1.0000 0.0285965753
C   C24       1.0  0.85430  0.13130  0.78650  1.0000 0.4729434111
C   C25       1.0  0.86830  0.18980  0.88010  1.0000 -0.0880544066
C   C26       1.0  0.86470  0.15680  0.97580  1.0000 0.0997904081
C   C27       1.0  0.85460  0.22070  0.00810  1.0000 -0.2275642826
C   C28       1.0  0.60570  0.06860  0.70710  1.0000 0.0395485271
C   C29       1.0  0.62110  0.99780  0.68600  1.0000 -0.1772712809
C   C30       1.0  0.64390  0.91310  0.74660  1.0000 -0.002057399
C   C31       1.0  0.64880  0.90240  0.82840  1.0000 -0.1772712809
C   C32       1.0  0.63190  0.97800  0.84380  1.0000 0.0395485271
C   C33       1.0  0.65860  0.83150  0.73120  1.0000 0.4829836795
C   C34       1.0  0.64360  0.77870  0.63500  1.0000 -0.0840085066
C   C35       1.0  0.63840  0.81400  0.54120  1.0000 0.0997904081
C   C36       1.0  0.64260  0.75110  0.50950  1.0000 -0.2237642598
C   C37       1.0  0.57850  0.24330  0.96230  1.0000 0.0395485271
C   C38       1.0  0.58100  0.23410  0.04330  1.0000 -0.1694137661
C   C39       1.0  0.60040  0.14810  0.10730  1.0000 0.0028046674
C   C40       1.0  0.62060  0.07620  0.08540  1.0000 -0.160414781
C   C41       1.0  0.61810  0.09170  0.00310  1.0000 0.0395485271
C   C42       1.0  0.59970  0.13840  0.19720  1.0000 0.4897448329
C   C43       1.0  0.61550  0.03450  0.34080  1.0000 -0.0840085066
C   C44       1.0  0.62470  0.93520  0.39700  1.0000 0.0997904081
C   C45       1.0  0.62670  0.87250  0.36760  1.0000 -0.2275642826
C   C46       1.0  0.68540  0.31520  0.60030  1.0000 0.0395485271
C   C47       1.0  0.70480  0.39400  0.52260  1.0000 -0.160414781
C   C48       1.0  0.64400  0.47170  0.52130  1.0000 -0.002057399
C   C49       1.0  0.56210  0.46580  0.59230  1.0000 -0.160414781
C   C50       1.0  0.54610  0.38290  0.66490  1.0000 0.0395485271
C   C51       1.0  0.66910  0.55770  0.44060  1.0000 0.5011431285
C   C52       1.0  0.64840  0.71650  0.38300  1.0000 -0.0880544066
C   C53       1.0  0.63700  0.78050  0.42160  1.0000 0.0997904081
C   C54       1.0  0.62860  0.90570  0.48510  1.0000 -0.2410874545
C   C55       1.0  0.96520  0.41690  0.18560  1.0000 0.0395485271
C   C56       1.0  0.96610  0.50280  0.11760  1.0000 -0.160414781
C   C57       1.0  0.05660  0.53240  0.05380  1.0000 -0.0063467522
C   C58       1.0  0.14390  0.47570  0.06090  1.0000 -0.1694137661
C   C59       1.0  0.13640  0.38990  0.13140  1.0000 0.0773589172
C   C60       1.0  0.06040  0.62500  0.97920  1.0000 0.4897448329
C   C61       1.0  0.16740  0.74080  0.86400  1.0000 -0.1037137426
C   C62       1.0  0.15130  0.80530  0.90200  1.0000 0.0997904081
C   C63       1.0  0.14460  0.89660  0.84580  1.0000 -0.2237642598
C   C64       1.0  0.04860  0.26370  0.45460  1.0000 0.0285965753
C   C65       1.0  0.05940  0.25450  0.53280  1.0000 -0.160414781
C   C66       1.0  0.09360  0.17380  0.59080  1.0000 0.0076353763
C   C67       1.0  0.11890  0.10270  0.56650  1.0000 -0.1772712809
C   C68       1.0  0.10780  0.11530  0.48780  1.0000 0.0466539719
C   C69       1.0  0.10170  0.16380  0.67780  1.0000 0.4897448329
C   C70       1.0  0.12840  0.05990  0.81720  1.0000 -0.0840085066
C   C71       1.0  0.13260  0.96210  0.87660  1.0000 0.0997904081
C   C72       1.0  0.12550  0.93340  0.96610  1.0000 -0.2237642598
C   C73       1.0  0.09040  0.10840  0.18430  1.0000 0.0395485271
C   C74       1.0  0.10760  0.03770  0.16410  1.0000 -0.1694137661
C   C75       1.0  0.12700  0.95240  0.22660  1.0000 0.0028046674
C   C76       1.0  0.12720  0.94340  0.30900  1.0000 -0.1772712809
C   C77       1.0  0.10770  0.01720  0.32470  1.0000 0.0285965753
C   C78       1.0  0.14570  0.86870  0.21350  1.0000 0.4729434111
C   C79       1.0  0.13170  0.81020  0.11990  1.0000 -0.0880544066
C   C80       1.0  0.13530  0.84320  0.02420  1.0000 0.0997904081
C   C81       1.0  0.14540  0.77930  0.99190  1.0000 -0.2275642826
C   C82       1.0  0.39430  0.93140  0.29290  1.0000 0.0395485271
C   C83       1.0  0.37890  0.00220  0.31400  1.0000 -0.1694137661
C   C84       1.0  0.35610  0.08690  0.25340  1.0000 -0.002057399
C   C85       1.0  0.35120  0.09760  0.17160  1.0000 -0.1694137661
C   C86       1.0  0.36810  0.02200  0.15620  1.0000 0.0395485271
C   C87       1.0  0.34140  0.16850  0.26880  1.0000 0.4829836795
C   C88       1.0  0.35640  0.22130  0.36500  1.0000 -0.0840085066
C   C89       1.0  0.36160  0.18600  0.45880  1.0000 0.0997904081
C   C90       1.0  0.35740  0.24890  0.49050  1.0000 -0.2275642826
C   C91       1.0  0.42150  0.75670  0.03770  1.0000 0.0395485271
C   C92       1.0  0.41900  0.76590  0.95670  1.0000 -0.1694137661
C   C93       1.0  0.39960  0.85190  0.89270  1.0000 0.0028046674
C   C94       1.0  0.37940  0.92380  0.91460  1.0000 -0.1694137661
C   C95       1.0  0.38190  0.90830  0.99690  1.0000 0.0395485271
C   C96       1.0  0.40030  0.86160  0.80280  1.0000 0.4897448329
C   C97       1.0  0.38450  0.96550  0.65920  1.0000 -0.0840085066
C   C98       1.0  0.37530  0.06480  0.60300  1.0000 0.0997904081
C   C99       1.0  0.37330  0.12750  0.63240  1.0000 -0.2275642826
C   C100      1.0  0.31460  0.68480  0.39970  1.0000 0.0395485271
C   C101      1.0  0.29520  0.60600  0.47740  1.0000 -0.160414781
C   C102      1.0  0.35600  0.52830  0.47870  1.0000 -0.002057399
C   C103      1.0  0.43790  0.53420  0.40770  1.0000 -0.160414781
C   C104      1.0  0.45390  0.61710  0.33510  1.0000 0.0395485271
C   C105      1.0  0.33090  0.44230  0.55940  1.0000 0.5011431285
C   C106      1.0  0.35160  0.28350  0.61700  1.0000 -0.0880544066
C   C107      1.0  0.36300  0.21950  0.57840  1.0000 0.0997904081
C   C108      1.0  0.37140  0.09430  0.51490  1.0000 -0.2410874545
N   N1        1.0  0.94980  0.63890  0.80690  1.0000 -0.1990182168
N   N2        1.0  0.92530  0.80580  0.56950  1.0000 -0.1918311508
N   N3        1.0  0.91220  0.89910  0.73570  1.0000 -0.1918311508
N   N4        1.0  0.60860  0.06090  0.78550  1.0000 -0.2067773781
N   N5        1.0  0.59830  0.17320  0.94040  1.0000 -0.1918311508
N   N6        1.0  0.60660  0.30850  0.67210  1.0000 -0.1990182168
N   N7        1.0  0.05020  0.36110  0.19310  1.0000 -0.1990182168
N   N8        1.0  0.07470  0.19420  0.43050  1.0000 -0.1918311508
N   N9        1.0  0.08780  0.10090  0.26430  1.0000 -0.1918311508
N   N10       1.0  0.39140  0.93910  0.21450  1.0000 -0.2067773781
N   N11       1.0  0.40170  0.82680  0.05960  1.0000 -0.1918311508
N   N12       1.0  0.39340  0.69150  0.32790  1.0000 -0.1990182168
O   O1        1.0  0.01480  0.32850  0.03850  1.0000 -0.4592039338
O   O2        1.0  0.84460  0.35230  0.06480  1.0000 -0.2275642826
O   O3        1.0  0.90630  0.77470  0.30490  1.0000 -0.4376341692
O   O4        1.0  0.88150  0.92290  0.26720  1.0000 -0.2237642598
O   O5        1.0  0.82950  0.20460  0.73650  1.0000 -0.4592039338
O   O6        1.0  0.87500  0.11350  0.86370  1.0000 -0.2275642826
O   O7        1.0  0.68000  0.75770  0.78090  1.0000 -0.4690743676
O   O8        1.0  0.64150  0.85320  0.65270  1.0000 -0.2237642598
O   O9        1.0  0.58420  0.20000  0.21600  1.0000 -0.4548881344
O   O10       1.0  0.61620  0.05170  0.25270  1.0000 -0.2275642826
O   O11       1.0  0.72700  0.56140  0.36960  1.0000 -0.4802427283
O   O12       1.0  0.62540  0.62770  0.45530  1.0000 -0.2410874545
O   O13       1.0  0.98520  0.67150  0.96150  1.0000 -0.4592039338
O   O14       1.0  0.15540  0.64770  0.93520  1.0000 -0.2275642826
O   O15       1.0  0.09370  0.22530  0.69510  1.0000 -0.4376341692
O   O16       1.0  0.11850  0.07710  0.73280  1.0000 -0.2237642598
O   O17       1.0  0.17050  0.79540  0.26350  1.0000 -0.4592039338
O   O18       1.0  0.12500  0.88650  0.13630  1.0000 -0.2275642826
O   O19       1.0  0.32000  0.24230  0.21910  1.0000 -0.4690743676
O   O20       1.0  0.35850  0.14680  0.34730  1.0000 -0.2237642598
O   O21       1.0  0.41580  0.80000  0.78400  1.0000 -0.4592039338
O   O22       1.0  0.38380  0.94830  0.74730  1.0000 -0.2275642826
O   O23       1.0  0.27300  0.43860  0.63040  1.0000 -0.4802427283
O   O24       1.0  0.37460  0.37230  0.54470  1.0000 -0.2410874545
