# DDEC6 charges by PACMAN v1.1 (https://github.com/mtap-research/PACMAN-charge/)
data_2017[Zn][sql]2[ASR]9
_chemical_formula_sum              "Zn2 H28 C24 S2 N4 O8"
_cell_length_a       12.5381
_cell_length_b       12.5381
_cell_length_c       6.0284
_cell_angle_alpha    90
_cell_angle_beta     90
_cell_angle_gamma    112.07

_symmetry_space_group_name_H-M    "P 1"
_symmetry_Int_Tables_number       1

loop_
  _symmetry_equiv_pos_as_xyz
  'x, y, z'

loop_
  _atom_site_type_symbol
  _atom_site_label
  _atom_site_symmetry_multiplicity
  _atom_site_fract_x
  _atom_site_fract_y
  _atom_site_fract_z
  _atom_site_occupancy
  _atom_site_charge
Zn  Zn1       1.0  0.25974  0.74026  0.43227  1.0000 0.7547267779
Zn  Zn2       1.0  0.74026  0.25974  0.43227  1.0000 0.7547267779
H   H1        1.0  0.16230  0.46230  0.42490  1.0000 0.1111763649
H   H2        1.0  0.14610  0.50910  0.18500  1.0000 0.1111763649
H   H3        1.0  0.03280  0.61860  0.73180  1.0000 0.1111763649
H   H4        1.0  0.11420  0.54680  0.75890  1.0000 0.1111763649
H   H5        1.0  0.02910  0.62310  0.15080  1.0000 0.1111763649
H   H6        1.0  0.00080  0.68460  0.36350  1.0000 0.11891003
H   H7        1.0  0.83770  0.53770  0.42490  1.0000 0.1111763649
H   H8        1.0  0.85390  0.49090  0.18500  1.0000 0.1111763649
H   H9        1.0  0.96720  0.38140  0.73180  1.0000 0.1111763649
H   H10       1.0  0.88580  0.45320  0.75890  1.0000 0.1111763649
H   H11       1.0  0.97090  0.37690  0.15080  1.0000 0.1111763649
H   H12       1.0  0.99920  0.31540  0.36350  1.0000 0.11891003
H   H13       1.0  0.53770  0.83770  0.42490  1.0000 0.1111763649
H   H14       1.0  0.49090  0.85390  0.18500  1.0000 0.1111763649
H   H15       1.0  0.38140  0.96720  0.73180  1.0000 0.1111763649
H   H16       1.0  0.45320  0.88580  0.75890  1.0000 0.1111763649
H   H17       1.0  0.37690  0.97090  0.15080  1.0000 0.1111763649
H   H18       1.0  0.31540  0.99920  0.36350  1.0000 0.11891003
H   H19       1.0  0.46230  0.16230  0.42490  1.0000 0.1111763649
H   H20       1.0  0.50910  0.14610  0.18500  1.0000 0.1111763649
H   H21       1.0  0.61860  0.03280  0.73180  1.0000 0.1111763649
H   H22       1.0  0.54680  0.11420  0.75890  1.0000 0.1111763649
H   H23       1.0  0.62310  0.02910  0.15080  1.0000 0.1111763649
H   H24       1.0  0.68460  0.00080  0.36350  1.0000 0.11891003
H   H25       1.0  0.44040  0.55960  0.01660  1.0000 0.1257159218
H   H26       1.0  0.05930  0.94070  0.29080  1.0000 0.11891003
H   H27       1.0  0.55960  0.44040  0.01660  1.0000 0.1257159218
H   H28       1.0  0.94070  0.05930  0.29080  1.0000 0.11891003
C   C1        1.0  0.11052  0.48748  0.33320  1.0000 -0.1123777251
C   C2        1.0  0.05324  0.55636  0.66620  1.0000 -0.1123777251
C   C3        1.0  0.00690  0.61250  0.30930  1.0000 -0.1123777251
C   C4        1.0  0.88948  0.51252  0.33320  1.0000 -0.1123777251
C   C5        1.0  0.94676  0.44364  0.66620  1.0000 -0.1123777251
C   C6        1.0  0.99310  0.38750  0.30930  1.0000 -0.1123777251
C   C7        1.0  0.51252  0.88948  0.33320  1.0000 -0.1123777251
C   C8        1.0  0.44364  0.94676  0.66620  1.0000 -0.1123777251
C   C9        1.0  0.38750  0.99310  0.30930  1.0000 -0.1123777251
C   C10       1.0  0.48748  0.11052  0.33320  1.0000 -0.1123777251
C   C11       1.0  0.55636  0.05324  0.66620  1.0000 -0.1123777251
C   C12       1.0  0.61250  0.00690  0.30930  1.0000 -0.1123777251
C   C13       1.0  0.37340  0.62660  0.60160  1.0000 0.5256943211
C   C14       1.0  0.44110  0.55890  0.67600  1.0000 -0.1298851043
C   C15       1.0  0.46593  0.53407  0.88580  1.0000 -0.119619456
C   C16       1.0  0.12760  0.87240  0.69860  1.0000 0.5617615089
C   C17       1.0  0.05910  0.94090  0.62870  1.0000 -0.119619456
C   C18       1.0  0.03404  0.96596  0.42190  1.0000 -0.119619456
C   C19       1.0  0.62660  0.37340  0.60160  1.0000 0.5256943211
C   C20       1.0  0.55890  0.44110  0.67600  1.0000 -0.1298851043
C   C21       1.0  0.53407  0.46593  0.88580  1.0000 -0.119619456
C   C22       1.0  0.87240  0.12760  0.69860  1.0000 0.5617615089
C   C23       1.0  0.94090  0.05910  0.62870  1.0000 -0.119619456
C   C24       1.0  0.96596  0.03404  0.42190  1.0000 -0.119619456
S   S1        1.0  0.50000  0.50000  0.47830  1.0000 0.1463240787
S   S2        1.0  0.00000  0.00000  0.82700  1.0000 0.1386610225
N   N1        1.0  0.09721  0.58895  0.43810  1.0000 -0.0925230783
N   N2        1.0  0.90279  0.41105  0.43810  1.0000 -0.0925230783
N   N3        1.0  0.41105  0.90279  0.43810  1.0000 -0.0925230783
N   N4        1.0  0.58895  0.09721  0.43810  1.0000 -0.0925230783
O   O1        1.0  0.32809  0.67191  0.73800  1.0000 -0.5415844813
O   O2        1.0  0.36295  0.63705  0.39410  1.0000 -0.5584738746
O   O3        1.0  0.16822  0.83178  0.54230  1.0000 -0.5584738746
O   O4        1.0  0.13906  0.86094  0.90190  1.0000 -0.572296609
O   O5        1.0  0.67191  0.32809  0.73800  1.0000 -0.5415844813
O   O6        1.0  0.63705  0.36295  0.39410  1.0000 -0.5584738746
O   O7        1.0  0.83178  0.16822  0.54230  1.0000 -0.5584738746
O   O8        1.0  0.86094  0.13906  0.90190  1.0000 -0.572296609
