# DDEC6 charges by PACMAN v1.1 (https://github.com/mtap-research/PACMAN-charge/)
data_2017[Cd][sra]3[ASR]2
_chemical_formula_sum              "Cd4 H44 C44 N8 O16"
_cell_length_a       8.7999
_cell_length_b       10.8475
_cell_length_c       16.8132
_cell_angle_alpha    103.4
_cell_angle_beta     97.895
_cell_angle_gamma    90.135

_symmetry_space_group_name_H-M    "P 1"
_symmetry_Int_Tables_number       1

loop_
  _symmetry_equiv_pos_as_xyz
  'x, y, z'

loop_
  _atom_site_type_symbol
  _atom_site_label
  _atom_site_symmetry_multiplicity
  _atom_site_fract_x
  _atom_site_fract_y
  _atom_site_fract_z
  _atom_site_occupancy
  _atom_site_charge
Cd  Cd1       1.0  0.72204  0.26017  0.75806  1.0000 0.8206819269
Cd  Cd2       1.0  0.03256  0.71391  0.75479  1.0000 0.8146094057
Cd  Cd3       1.0  0.27796  0.73983  0.24194  1.0000 0.8206819269
Cd  Cd4       1.0  0.96744  0.28609  0.24521  1.0000 0.8146094057
H   H1        1.0  0.44600  0.33100  0.70330  1.0000 0.243685362
H   H2        1.0  0.60100  0.13500  0.85060  1.0000 0.243685362
H   H3        1.0  0.74280  0.60260  0.80570  1.0000 0.1188333061
H   H4        1.0  0.38700  0.52560  0.62660  1.0000 0.1308348631
H   H5        1.0  0.51790  0.62750  0.54990  1.0000 0.1308348631
H   H6        1.0  0.75880  0.70970  0.60090  1.0000 0.1188333061
H   H7        1.0  0.51950  0.51840  0.83750  1.0000 0.1188333061
H   H8        1.0  0.36430  0.51280  0.77810  1.0000 0.1125158765
H   H9        1.0  0.28520  0.30680  0.79660  1.0000 0.1308348631
H   H10       1.0  0.43140  0.32010  0.86340  1.0000 0.1188333061
H   H11       1.0  0.34900  0.10860  0.81630  1.0000 0.1188333061
H   H12       1.0  0.36810  0.11410  0.72570  1.0000 0.1188333061
H   H13       1.0  0.70550  0.96420  0.78210  1.0000 0.1308348631
H   H14       1.0  0.56440  0.95050  0.71240  1.0000 0.1188333061
H   H15       1.0  0.33650  0.84560  0.72520  1.0000 0.1125158765
H   H16       1.0  0.65950  0.92370  0.92190  1.0000 0.1308348631
H   H17       1.0  0.51710  0.80550  0.98510  1.0000 0.1308348631
H   H18       1.0  0.28150  0.71810  0.91830  1.0000 0.1125158765
H   H19       1.0  0.96940  0.08980  0.95540  1.0000 0.1409682704
H   H20       1.0  0.97280  0.41410  0.04410  1.0000 0.1409682704
H   H21       1.0  0.76720  0.16530  0.47220  1.0000 0.1308348631
H   H22       1.0  0.88920  0.40550  0.53040  1.0000 0.1409682704
H   H23       1.0  0.55400  0.66900  0.29670  1.0000 0.243685362
H   H24       1.0  0.39900  0.86500  0.14940  1.0000 0.243685362
H   H25       1.0  0.25720  0.39740  0.19430  1.0000 0.1188333061
H   H26       1.0  0.61300  0.47440  0.37340  1.0000 0.1308348631
H   H27       1.0  0.48210  0.37250  0.45010  1.0000 0.1308348631
H   H28       1.0  0.24120  0.29030  0.39910  1.0000 0.1188333061
H   H29       1.0  0.48050  0.48160  0.16250  1.0000 0.1188333061
H   H30       1.0  0.63570  0.48720  0.22190  1.0000 0.1125158765
H   H31       1.0  0.71480  0.69320  0.20340  1.0000 0.1308348631
H   H32       1.0  0.56860  0.67990  0.13660  1.0000 0.1188333061
H   H33       1.0  0.65100  0.89140  0.18370  1.0000 0.1188333061
H   H34       1.0  0.63190  0.88590  0.27430  1.0000 0.1188333061
H   H35       1.0  0.29450  0.03580  0.21790  1.0000 0.1308348631
H   H36       1.0  0.43560  0.04950  0.28760  1.0000 0.1188333061
H   H37       1.0  0.66350  0.15440  0.27480  1.0000 0.1125158765
H   H38       1.0  0.34050  0.07630  0.07810  1.0000 0.1308348631
H   H39       1.0  0.48290  0.19450  0.01490  1.0000 0.1308348631
H   H40       1.0  0.71850  0.28190  0.08170  1.0000 0.1125158765
H   H41       1.0  0.03060  0.91020  0.04460  1.0000 0.1409682704
H   H42       1.0  0.02720  0.58590  0.95590  1.0000 0.1409682704
H   H43       1.0  0.23280  0.83470  0.52780  1.0000 0.1308348631
H   H44       1.0  0.11080  0.59450  0.46960  1.0000 0.1409682704
C   C1        1.0  0.69710  0.60640  0.75310  1.0000 0.0222765273
C   C2        1.0  0.55090  0.55300  0.72510  1.0000 0.0505113984
C   C3        1.0  0.48480  0.56090  0.64780  1.0000 -0.1010145274
C   C4        1.0  0.56280  0.62060  0.60200  1.0000 -0.1404147921
C   C5        1.0  0.70640  0.66990  0.63290  1.0000 0.0723224702
C   C6        1.0  0.47080  0.48920  0.78080  1.0000 -0.1404147921
C   C7        1.0  0.39290  0.28730  0.80540  1.0000 -0.1089789398
C   C8        1.0  0.40860  0.14720  0.78340  1.0000 -0.1089789398
C   C9        1.0  0.59640  0.97780  0.77150  1.0000 -0.1492904228
C   C10       1.0  0.37340  0.83910  0.77860  1.0000 -0.0018642735
C   C11       1.0  0.51150  0.89740  0.81440  1.0000 0.0505113984
C   C12       1.0  0.56620  0.88520  0.89470  1.0000 -0.1089789398
C   C13       1.0  0.48100  0.81620  0.93260  1.0000 -0.1331881163
C   C14       1.0  0.34030  0.76260  0.89160  1.0000 0.0723224702
C   C15       1.0  0.98420  0.90340  0.88680  1.0000 0.5708726419
C   C16       1.0  0.98700  0.00820  0.96230  1.0000 -0.1893293028
C   C17       1.0  0.85280  0.38000  0.92400  1.0000 0.5812615725
C   C18       1.0  0.96090  0.44830  0.99790  1.0000 -0.182254414
C   C19       1.0  0.75670  0.24810  0.59680  1.0000 0.5708726419
C   C20       1.0  0.79410  0.24000  0.51200  1.0000 -0.1893293028
C   C21       1.0  0.86200  0.33080  0.49060  1.0000 -0.1725123924
C   C22       1.0  0.89920  0.32220  0.40550  1.0000 0.5708726419
C   C23       1.0  0.30290  0.39360  0.24690  1.0000 0.0222765273
C   C24       1.0  0.44910  0.44700  0.27490  1.0000 0.0505113984
C   C25       1.0  0.51520  0.43910  0.35220  1.0000 -0.1010145274
C   C26       1.0  0.43720  0.37940  0.39800  1.0000 -0.1404147921
C   C27       1.0  0.29360  0.33010  0.36710  1.0000 0.0723224702
C   C28       1.0  0.52920  0.51080  0.21920  1.0000 -0.1404147921
C   C29       1.0  0.60710  0.71270  0.19460  1.0000 -0.1089789398
C   C30       1.0  0.59140  0.85280  0.21660  1.0000 -0.1089789398
C   C31       1.0  0.40360  0.02220  0.22850  1.0000 -0.1492904228
C   C32       1.0  0.62660  0.16090  0.22140  1.0000 -0.0018642735
C   C33       1.0  0.48850  0.10260  0.18560  1.0000 0.0505113984
C   C34       1.0  0.43380  0.11480  0.10530  1.0000 -0.1089789398
C   C35       1.0  0.51900  0.18380  0.06740  1.0000 -0.1331881163
C   C36       1.0  0.65970  0.23740  0.10840  1.0000 0.0723224702
C   C37       1.0  0.01580  0.09660  0.11320  1.0000 0.5708726419
C   C38       1.0  0.01300  0.99180  0.03770  1.0000 -0.1893293028
C   C39       1.0  0.14720  0.62000  0.07600  1.0000 0.5812615725
C   C40       1.0  0.03910  0.55170  0.00210  1.0000 -0.182254414
C   C41       1.0  0.24330  0.75190  0.40320  1.0000 0.5708726419
C   C42       1.0  0.20590  0.76000  0.48800  1.0000 -0.1893293028
C   C43       1.0  0.13800  0.66920  0.50940  1.0000 -0.1725123924
C   C44       1.0  0.10080  0.67780  0.59450  1.0000 0.5708726419
N   N1        1.0  0.77580  0.66330  0.70810  1.0000 -0.2232612548
N   N2        1.0  0.47830  0.34970  0.75510  1.0000 -0.2891548005
N   N3        1.0  0.57030  0.11340  0.79810  1.0000 -0.2891548005
N   N4        1.0  0.28650  0.77250  0.81550  1.0000 -0.2355137792
N   N5        1.0  0.22420  0.33670  0.29190  1.0000 -0.2232612548
N   N6        1.0  0.52170  0.65030  0.24490  1.0000 -0.2891548005
N   N7        1.0  0.42970  0.88660  0.20190  1.0000 -0.2891548005
N   N8        1.0  0.71350  0.22750  0.18450  1.0000 -0.2355137792
O   O1        1.0  0.97810  0.79010  0.89190  1.0000 -0.5558193949
O   O2        1.0  0.99320  0.93320  0.82020  1.0000 -0.5417515216
O   O3        1.0  0.85550  0.41190  0.85700  1.0000 -0.5417515216
O   O4        1.0  0.76790  0.29340  0.93120  1.0000 -0.5909342197
O   O5        1.0  0.82180  0.33020  0.65500  1.0000 -0.5270299343
O   O6        1.0  0.66080  0.17040  0.60700  1.0000 -0.5696776536
O   O7        1.0  0.90730  0.42080  0.38050  1.0000 -0.5558193949
O   O8        1.0  0.92290  0.21400  0.36170  1.0000 -0.5461980132
O   O9        1.0  0.02190  0.20990  0.10810  1.0000 -0.5558193949
O   O10       1.0  0.00680  0.06680  0.17980  1.0000 -0.5417515216
O   O11       1.0  0.14450  0.58810  0.14300  1.0000 -0.5417515216
O   O12       1.0  0.23210  0.70660  0.06880  1.0000 -0.5909342197
O   O13       1.0  0.17820  0.66980  0.34500  1.0000 -0.5270299343
O   O14       1.0  0.33920  0.82960  0.39300  1.0000 -0.5696776536
O   O15       1.0  0.09270  0.57920  0.61950  1.0000 -0.5558193949
O   O16       1.0  0.07710  0.78600  0.63830  1.0000 -0.5461980132
