# DDEC6 charges by PACMAN v1.1 (https://github.com/mtap-research/PACMAN-charge/)
data_2017[Co][pcu]2[ASR]4
_chemical_formula_sum              "Co8 H88 C144 N56 O48"
_cell_length_a       10.0383
_cell_length_b       19.709
_cell_length_c       20.212
_cell_angle_alpha    90
_cell_angle_beta     90
_cell_angle_gamma    90

_symmetry_space_group_name_H-M    "P 1"
_symmetry_Int_Tables_number       1

loop_
  _symmetry_equiv_pos_as_xyz
  'x, y, z'

loop_
  _atom_site_type_symbol
  _atom_site_label
  _atom_site_symmetry_multiplicity
  _atom_site_fract_x
  _atom_site_fract_y
  _atom_site_fract_z
  _atom_site_occupancy
  _atom_site_charge
Co  Co1       1.0  0.92340  0.95857  0.05774  1.0000 0.8417259914
Co  Co2       1.0  0.91673  0.55527  0.56153  1.0000 0.8462834221
Co  Co3       1.0  0.07660  0.45857  0.44226  1.0000 0.8417259914
Co  Co4       1.0  0.08327  0.05527  0.93847  1.0000 0.8462834221
Co  Co5       1.0  0.57660  0.04143  0.55774  1.0000 0.8417259914
Co  Co6       1.0  0.58327  0.44473  0.06153  1.0000 0.8462834221
Co  Co7       1.0  0.42340  0.54143  0.94226  1.0000 0.8417259914
Co  Co8       1.0  0.41673  0.94473  0.43847  1.0000 0.8462834221
H   H1        1.0  0.09370  0.87030  0.95260  1.0000 0.1313840545
H   H2        1.0  0.77570  0.81480  0.04990  1.0000 0.1207988935
H   H3        1.0  0.82700  0.72290  0.97470  1.0000 0.1397592437
H   H4        1.0  0.89320  0.68730  0.86690  1.0000 0.1616797981
H   H5        1.0  0.30250  0.76140  0.80720  1.0000 0.0920815479
H   H6        1.0  0.82140  0.59060  0.80880  1.0000 0.1313840545
H   H7        1.0  0.75990  0.53730  0.70490  1.0000 0.1313840545
H   H8        1.0  0.08060  0.64460  0.66930  1.0000 0.1148517218
H   H9        1.0  0.06490  0.85540  0.15950  1.0000 0.1207988935
H   H10       1.0  0.78550  0.98700  0.20350  1.0000 0.1207988935
H   H11       1.0  0.82470  0.92140  0.30330  1.0000 0.1313840545
H   H12       1.0  0.89120  0.82340  0.36510  1.0000 0.1616797981
H   H13       1.0  0.25890  0.71990  0.28420  1.0000 0.095341691
H   H14       1.0  0.07170  0.63270  0.44710  1.0000 0.1313840545
H   H15       1.0  0.79710  0.71010  0.56260  1.0000 0.1207988935
H   H16       1.0  0.84220  0.79400  0.47680  1.0000 0.1397592437
H   H17       1.0  0.46060  0.56000  0.57010  1.0000 0.1207988935
H   H18       1.0  0.60890  0.37510  0.60700  1.0000 0.1313840545
H   H19       1.0  0.21370  0.40390  0.60060  1.0000 0.1313840545
H   H20       1.0  0.45560  0.94880  0.06840  1.0000 0.1207988935
H   H21       1.0  0.22460  0.11180  0.10050  1.0000 0.1313840545
H   H22       1.0  0.62430  0.12770  0.11340  1.0000 0.1313840545
H   H23       1.0  0.90630  0.37030  0.54740  1.0000 0.1313840545
H   H24       1.0  0.22430  0.31480  0.45010  1.0000 0.1207988935
H   H25       1.0  0.17300  0.22290  0.52530  1.0000 0.1397592437
H   H26       1.0  0.10680  0.18730  0.63310  1.0000 0.1616797981
H   H27       1.0  0.69750  0.26140  0.69280  1.0000 0.0920815479
H   H28       1.0  0.17860  0.09060  0.69120  1.0000 0.1313840545
H   H29       1.0  0.24010  0.03730  0.79510  1.0000 0.1313840545
H   H30       1.0  0.91940  0.14460  0.83070  1.0000 0.1148517218
H   H31       1.0  0.93510  0.35540  0.34050  1.0000 0.1207988935
H   H32       1.0  0.21450  0.48700  0.29650  1.0000 0.1313840545
H   H33       1.0  0.17530  0.42140  0.19670  1.0000 0.1313840545
H   H34       1.0  0.10880  0.32340  0.13490  1.0000 0.1616797981
H   H35       1.0  0.74110  0.21990  0.21580  1.0000 0.095341691
H   H36       1.0  0.92830  0.13270  0.05290  1.0000 0.1313840545
H   H37       1.0  0.20290  0.21010  0.93740  1.0000 0.1207988935
H   H38       1.0  0.15780  0.29400  0.02320  1.0000 0.1397592437
H   H39       1.0  0.53940  0.06000  0.92990  1.0000 0.1207988935
H   H40       1.0  0.39110  0.87510  0.89300  1.0000 0.1313840545
H   H41       1.0  0.78630  0.90390  0.89940  1.0000 0.1313840545
H   H42       1.0  0.54440  0.44880  0.43160  1.0000 0.1207988935
H   H43       1.0  0.77540  0.61180  0.39950  1.0000 0.1313840545
H   H44       1.0  0.37570  0.62770  0.38660  1.0000 0.1313840545
H   H45       1.0  0.40630  0.12970  0.45260  1.0000 0.1313840545
H   H46       1.0  0.72430  0.18520  0.54990  1.0000 0.1207988935
H   H47       1.0  0.67300  0.27710  0.47470  1.0000 0.1397592437
H   H48       1.0  0.60680  0.31270  0.36690  1.0000 0.1616797981
H   H49       1.0  0.19750  0.23860  0.30720  1.0000 0.0920815479
H   H50       1.0  0.67860  0.40940  0.30880  1.0000 0.1313840545
H   H51       1.0  0.74010  0.46270  0.20490  1.0000 0.1313840545
H   H52       1.0  0.41940  0.35540  0.16930  1.0000 0.1148517218
H   H53       1.0  0.43510  0.14460  0.65950  1.0000 0.1207988935
H   H54       1.0  0.71450  0.01300  0.70350  1.0000 0.1207988935
H   H55       1.0  0.67530  0.07860  0.80330  1.0000 0.1313840545
H   H56       1.0  0.60880  0.17660  0.86510  1.0000 0.1616797981
H   H57       1.0  0.24110  0.28010  0.78420  1.0000 0.095341691
H   H58       1.0  0.42830  0.36730  0.94710  1.0000 0.1313840545
H   H59       1.0  0.70290  0.28990  0.06260  1.0000 0.1207988935
H   H60       1.0  0.65780  0.20600  0.97680  1.0000 0.1397592437
H   H61       1.0  0.03940  0.44000  0.07010  1.0000 0.1207988935
H   H62       1.0  0.89110  0.62490  0.10700  1.0000 0.1313840545
H   H63       1.0  0.28630  0.59610  0.10060  1.0000 0.1313840545
H   H64       1.0  0.04440  0.05120  0.56840  1.0000 0.1207988935
H   H65       1.0  0.27540  0.88820  0.60050  1.0000 0.1313840545
H   H66       1.0  0.87570  0.87230  0.61340  1.0000 0.1313840545
H   H67       1.0  0.59370  0.62970  0.04740  1.0000 0.1313840545
H   H68       1.0  0.27570  0.68520  0.95010  1.0000 0.1207988935
H   H69       1.0  0.32700  0.77710  0.02530  1.0000 0.1397592437
H   H70       1.0  0.39320  0.81270  0.13310  1.0000 0.1616797981
H   H71       1.0  0.80250  0.73860  0.19280  1.0000 0.0920815479
H   H72       1.0  0.32140  0.90940  0.19120  1.0000 0.1313840545
H   H73       1.0  0.25990  0.96270  0.29510  1.0000 0.1313840545
H   H74       1.0  0.58060  0.85540  0.33070  1.0000 0.1148517218
H   H75       1.0  0.56490  0.64460  0.84050  1.0000 0.1207988935
H   H76       1.0  0.28550  0.51300  0.79650  1.0000 0.1207988935
H   H77       1.0  0.32470  0.57860  0.69670  1.0000 0.1313840545
H   H78       1.0  0.39120  0.67660  0.63490  1.0000 0.1616797981
H   H79       1.0  0.75890  0.78010  0.71580  1.0000 0.095341691
H   H80       1.0  0.57170  0.86730  0.55290  1.0000 0.1313840545
H   H81       1.0  0.29710  0.78990  0.43740  1.0000 0.1207988935
H   H82       1.0  0.34220  0.70600  0.52320  1.0000 0.1397592437
H   H83       1.0  0.96060  0.94000  0.42990  1.0000 0.1207988935
H   H84       1.0  0.10890  0.12490  0.39300  1.0000 0.1313840545
H   H85       1.0  0.71370  0.09610  0.39940  1.0000 0.1313840545
H   H86       1.0  0.95560  0.55120  0.93160  1.0000 0.1207988935
H   H87       1.0  0.72460  0.38820  0.89950  1.0000 0.1313840545
H   H88       1.0  0.12430  0.37230  0.88660  1.0000 0.1313840545
C   C1        1.0  0.02110  0.84530  0.96740  1.0000 0.1479226549
C   C2        1.0  0.84660  0.81430  0.02030  1.0000 -0.0210833677
C   C3        1.0  0.87410  0.76330  0.97940  1.0000 -0.1043260216
C   C4        1.0  0.04550  0.75100  0.88970  1.0000 0.3494314712
C   C5        1.0  0.97660  0.70300  0.85410  1.0000 -0.3297403294
C   C6        1.0  0.04030  0.67950  0.79750  1.0000 0.3595101398
C   C7        1.0  0.21790  0.74640  0.81900  1.0000 0.2410578162
C   C8        1.0  0.86520  0.59500  0.76850  1.0000 -0.0933043467
C   C9        1.0  0.83310  0.56550  0.71120  1.0000 -0.0210833677
C   C10       1.0  0.00880  0.62420  0.69050  1.0000 0.1397592437
C   C11       1.0  0.00090  0.88010  0.18250  1.0000 0.1397592437
C   C12       1.0  0.84710  0.95200  0.20770  1.0000 -0.0210833677
C   C13       1.0  0.86780  0.91630  0.26290  1.0000 -0.0933043467
C   C14       1.0  0.02410  0.81940  0.28800  1.0000 0.3494314712
C   C15       1.0  0.96630  0.80180  0.34820  1.0000 -0.3181617956
C   C16       1.0  0.03030  0.74980  0.38050  1.0000 0.3356149059
C   C17       1.0  0.18340  0.74120  0.30090  1.0000 0.2410578162
C   C18       1.0  0.00900  0.66210  0.46530  1.0000 0.1479226549
C   C19       1.0  0.85800  0.70530  0.52830  1.0000 -0.031194854
C   C20       1.0  0.88250  0.75180  0.48130  1.0000 -0.0933043467
C   C21       1.0  0.20060  0.53620  0.57220  1.0000 0.5574474495
C   C22       1.0  0.31790  0.49000  0.58340  1.0000 -0.0077154525
C   C23       1.0  0.44680  0.51430  0.57910  1.0000 -0.1074946138
C   C24       1.0  0.55660  0.47200  0.58790  1.0000 -0.0040492094
C   C25       1.0  0.53700  0.40440  0.60200  1.0000 -0.1390497543
C   C26       1.0  0.40690  0.38100  0.60860  1.0000 0.0647315842
C   C27       1.0  0.29930  0.42170  0.59800  1.0000 -0.1289404023
C   C28       1.0  0.69250  0.50090  0.57990  1.0000 0.526277588
C   C29       1.0  0.69370  0.00250  0.07780  1.0000 0.5247787398
C   C30       1.0  0.55990  0.03330  0.08790  1.0000 -0.0040492094
C   C31       1.0  0.44710  0.99470  0.07810  1.0000 -0.1074946138
C   C32       1.0  0.32090  0.02320  0.08240  1.0000 -0.0077154525
C   C33       1.0  0.30800  0.09120  0.09880  1.0000 -0.1390497543
C   C34       1.0  0.42300  0.12780  0.11260  1.0000 0.0668273207
C   C35       1.0  0.54910  0.10130  0.10600  1.0000 -0.1499126095
C   C36       1.0  0.20300  0.97860  0.06950  1.0000 0.5574474495
C   C37       1.0  0.97890  0.34530  0.53260  1.0000 0.1479226549
C   C38       1.0  0.15340  0.31430  0.47970  1.0000 -0.0210833677
C   C39       1.0  0.12590  0.26330  0.52060  1.0000 -0.1043260216
C   C40       1.0  0.95450  0.25100  0.61030  1.0000 0.3494314712
C   C41       1.0  0.02340  0.20300  0.64590  1.0000 -0.3297403294
C   C42       1.0  0.95970  0.17950  0.70250  1.0000 0.3595101398
C   C43       1.0  0.78210  0.24640  0.68100  1.0000 0.2410578162
C   C44       1.0  0.13480  0.09500  0.73150  1.0000 -0.0933043467
C   C45       1.0  0.16690  0.06550  0.78880  1.0000 -0.0210833677
C   C46       1.0  0.99120  0.12420  0.80950  1.0000 0.1397592437
C   C47       1.0  0.99910  0.38010  0.31750  1.0000 0.1397592437
C   C48       1.0  0.15290  0.45200  0.29230  1.0000 -0.0210833677
C   C49       1.0  0.13220  0.41630  0.23710  1.0000 -0.0933043467
C   C50       1.0  0.97590  0.31940  0.21200  1.0000 0.3494314712
C   C51       1.0  0.03370  0.30180  0.15180  1.0000 -0.3181617956
C   C52       1.0  0.96970  0.24980  0.11950  1.0000 0.3356149059
C   C53       1.0  0.81660  0.24120  0.19910  1.0000 0.2410578162
C   C54       1.0  0.99100  0.16210  0.03470  1.0000 0.1479226549
C   C55       1.0  0.14200  0.20530  0.97170  1.0000 -0.031194854
C   C56       1.0  0.11750  0.25180  0.01870  1.0000 -0.0933043467
C   C57       1.0  0.79940  0.03620  0.92780  1.0000 0.5574474495
C   C58       1.0  0.68210  0.99000  0.91660  1.0000 -0.0077154525
C   C59       1.0  0.55320  0.01430  0.92090  1.0000 -0.1074946138
C   C60       1.0  0.44340  0.97200  0.91210  1.0000 -0.0040492094
C   C61       1.0  0.46300  0.90440  0.89800  1.0000 -0.1390497543
C   C62       1.0  0.59310  0.88100  0.89140  1.0000 0.0647315842
C   C63       1.0  0.70070  0.92170  0.90200  1.0000 -0.1289404023
C   C64       1.0  0.30750  0.00090  0.92010  1.0000 0.526277588
C   C65       1.0  0.30630  0.50250  0.42220  1.0000 0.5247787398
C   C66       1.0  0.44010  0.53330  0.41210  1.0000 -0.0040492094
C   C67       1.0  0.55290  0.49470  0.42190  1.0000 -0.1074946138
C   C68       1.0  0.67910  0.52320  0.41760  1.0000 -0.0077154525
C   C69       1.0  0.69200  0.59120  0.40120  1.0000 -0.1390497543
C   C70       1.0  0.57700  0.62780  0.38740  1.0000 0.0668273207
C   C71       1.0  0.45090  0.60130  0.39400  1.0000 -0.1499126095
C   C72       1.0  0.79700  0.47860  0.43050  1.0000 0.5574474495
C   C73       1.0  0.47890  0.15470  0.46740  1.0000 0.1479226549
C   C74       1.0  0.65340  0.18570  0.52030  1.0000 -0.0210833677
C   C75       1.0  0.62590  0.23670  0.47940  1.0000 -0.1043260216
C   C76       1.0  0.45450  0.24900  0.38970  1.0000 0.3494314712
C   C77       1.0  0.52340  0.29700  0.35410  1.0000 -0.3297403294
C   C78       1.0  0.45970  0.32050  0.29750  1.0000 0.3595101398
C   C79       1.0  0.28210  0.25360  0.31900  1.0000 0.2410578162
C   C80       1.0  0.63480  0.40500  0.26850  1.0000 -0.0933043467
C   C81       1.0  0.66690  0.43450  0.21120  1.0000 -0.0210833677
C   C82       1.0  0.49120  0.37580  0.19050  1.0000 0.1397592437
C   C83       1.0  0.49910  0.11990  0.68250  1.0000 0.1397592437
C   C84       1.0  0.65290  0.04800  0.70770  1.0000 -0.0210833677
C   C85       1.0  0.63220  0.08370  0.76290  1.0000 -0.0933043467
C   C86       1.0  0.47590  0.18060  0.78800  1.0000 0.3494314712
C   C87       1.0  0.53370  0.19820  0.84820  1.0000 -0.3181617956
C   C88       1.0  0.46970  0.25020  0.88050  1.0000 0.3356149059
C   C89       1.0  0.31660  0.25880  0.80090  1.0000 0.2410578162
C   C90       1.0  0.49100  0.33790  0.96530  1.0000 0.1479226549
C   C91       1.0  0.64200  0.29470  0.02830  1.0000 -0.031194854
C   C92       1.0  0.61750  0.24820  0.98130  1.0000 -0.0933043467
C   C93       1.0  0.29940  0.46380  0.07220  1.0000 0.5574474495
C   C94       1.0  0.18210  0.51000  0.08340  1.0000 -0.0077154525
C   C95       1.0  0.05320  0.48570  0.07910  1.0000 -0.1074946138
C   C96       1.0  0.94340  0.52800  0.08790  1.0000 -0.0040492094
C   C97       1.0  0.96300  0.59560  0.10200  1.0000 -0.1390497543
C   C98       1.0  0.09310  0.61900  0.10860  1.0000 0.0647315842
C   C99       1.0  0.20070  0.57830  0.09800  1.0000 -0.1289404023
C   C100      1.0  0.80750  0.49910  0.07990  1.0000 0.526277588
C   C101      1.0  0.80630  0.99750  0.57780  1.0000 0.5247787398
C   C102      1.0  0.94010  0.96670  0.58790  1.0000 -0.0040492094
C   C103      1.0  0.05290  0.00530  0.57810  1.0000 -0.1074946138
C   C104      1.0  0.17910  0.97680  0.58240  1.0000 -0.0077154525
C   C105      1.0  0.19200  0.90880  0.59880  1.0000 -0.1390497543
C   C106      1.0  0.07700  0.87220  0.61260  1.0000 0.0668273207
C   C107      1.0  0.95090  0.89870  0.60600  1.0000 -0.1499126095
C   C108      1.0  0.29700  0.02140  0.56950  1.0000 0.5574474495
C   C109      1.0  0.52110  0.65470  0.03260  1.0000 0.1479226549
C   C110      1.0  0.34660  0.68570  0.97970  1.0000 -0.0210833677
C   C111      1.0  0.37410  0.73670  0.02060  1.0000 -0.1043260216
C   C112      1.0  0.54550  0.74900  0.11030  1.0000 0.3494314712
C   C113      1.0  0.47660  0.79700  0.14590  1.0000 -0.3297403294
C   C114      1.0  0.54030  0.82050  0.20250  1.0000 0.3595101398
C   C115      1.0  0.71790  0.75360  0.18100  1.0000 0.2410578162
C   C116      1.0  0.36520  0.90500  0.23150  1.0000 -0.0933043467
C   C117      1.0  0.33310  0.93450  0.28880  1.0000 -0.0210833677
C   C118      1.0  0.50880  0.87580  0.30950  1.0000 0.1397592437
C   C119      1.0  0.50090  0.61990  0.81750  1.0000 0.1397592437
C   C120      1.0  0.34710  0.54800  0.79230  1.0000 -0.0210833677
C   C121      1.0  0.36780  0.58370  0.73710  1.0000 -0.0933043467
C   C122      1.0  0.52410  0.68060  0.71200  1.0000 0.3494314712
C   C123      1.0  0.46630  0.69820  0.65180  1.0000 -0.3181617956
C   C124      1.0  0.53030  0.75020  0.61950  1.0000 0.3356149059
C   C125      1.0  0.68340  0.75880  0.69910  1.0000 0.2410578162
C   C126      1.0  0.50900  0.83790  0.53470  1.0000 0.1479226549
C   C127      1.0  0.35800  0.79470  0.47170  1.0000 -0.031194854
C   C128      1.0  0.38250  0.74820  0.51870  1.0000 -0.0933043467
C   C129      1.0  0.70060  0.96380  0.42780  1.0000 0.5574474495
C   C130      1.0  0.81790  0.01000  0.41660  1.0000 -0.0077154525
C   C131      1.0  0.94680  0.98570  0.42090  1.0000 -0.1074946138
C   C132      1.0  0.05660  0.02800  0.41210  1.0000 -0.0040492094
C   C133      1.0  0.03700  0.09560  0.39800  1.0000 -0.1390497543
C   C134      1.0  0.90690  0.11900  0.39140  1.0000 0.0647315842
C   C135      1.0  0.79930  0.07830  0.40200  1.0000 -0.1289404023
C   C136      1.0  0.19250  0.99910  0.42010  1.0000 0.526277588
C   C137      1.0  0.19370  0.49750  0.92220  1.0000 0.5247787398
C   C138      1.0  0.05990  0.46670  0.91210  1.0000 -0.0040492094
C   C139      1.0  0.94710  0.50530  0.92190  1.0000 -0.1074946138
C   C140      1.0  0.82090  0.47680  0.91760  1.0000 -0.0077154525
C   C141      1.0  0.80800  0.40880  0.90120  1.0000 -0.1390497543
C   C142      1.0  0.92300  0.37220  0.88740  1.0000 0.0668273207
C   C143      1.0  0.04910  0.39870  0.89400  1.0000 -0.1499126095
C   C144      1.0  0.70300  0.52140  0.93050  1.0000 0.5574474495
N   N1        1.0  0.93600  0.86570  0.01300  1.0000 -0.2909840408
N   N2        1.0  0.98800  0.78290  0.94520  1.0000 -0.0210833677
N   N3        1.0  0.16560  0.77350  0.87420  1.0000 -0.3689748584
N   N4        1.0  0.16210  0.70020  0.77920  1.0000 -0.3689748584
N   N5        1.0  0.97690  0.63330  0.75520  1.0000 -0.0210833677
N   N6        1.0  0.92480  0.58300  0.66210  1.0000 -0.2909840408
N   N7        1.0  0.93060  0.92940  0.15730  1.0000 -0.2909840408
N   N8        1.0  0.96770  0.86960  0.24740  1.0000 -0.031194854
N   N9        1.0  0.13200  0.78970  0.26380  1.0000 -0.3621655542
N   N10       1.0  0.14020  0.71930  0.35920  1.0000 -0.3689748584
N   N11       1.0  0.98000  0.72410  0.44110  1.0000 -0.0210833677
N   N12       1.0  0.93750  0.64870  0.51750  1.0000 -0.2909840408
N   N13       1.0  0.38510  0.30960  0.62600  1.0000 0.512122826
N   N14       1.0  0.41180  0.19850  0.13550  1.0000 0.512122826
N   N15       1.0  0.06400  0.36570  0.48700  1.0000 -0.2909840408
N   N16       1.0  0.01200  0.28290  0.55480  1.0000 -0.0210833677
N   N17       1.0  0.83440  0.27350  0.62580  1.0000 -0.3689748584
N   N18       1.0  0.83790  0.20020  0.72080  1.0000 -0.3689748584
N   N19       1.0  0.02310  0.13330  0.74480  1.0000 -0.0210833677
N   N20       1.0  0.07520  0.08300  0.83790  1.0000 -0.2909840408
N   N21       1.0  0.06940  0.42940  0.34270  1.0000 -0.2909840408
N   N22       1.0  0.03230  0.36960  0.25260  1.0000 -0.031194854
N   N23       1.0  0.86800  0.28970  0.23620  1.0000 -0.3621655542
N   N24       1.0  0.85980  0.21930  0.14080  1.0000 -0.3689748584
N   N25       1.0  0.02000  0.22410  0.05890  1.0000 -0.0210833677
N   N26       1.0  0.06250  0.14870  0.98250  1.0000 -0.2909840408
N   N27       1.0  0.61490  0.80960  0.87400  1.0000 0.512122826
N   N28       1.0  0.58820  0.69850  0.36450  1.0000 0.512122826
N   N29       1.0  0.56400  0.13430  0.51300  1.0000 -0.2909840408
N   N30       1.0  0.51200  0.21710  0.44520  1.0000 -0.0210833677
N   N31       1.0  0.33440  0.22650  0.37420  1.0000 -0.3689748584
N   N32       1.0  0.33790  0.29980  0.27920  1.0000 -0.3689748584
N   N33       1.0  0.52310  0.36670  0.25520  1.0000 -0.0210833677
N   N34       1.0  0.57520  0.41700  0.16210  1.0000 -0.2909840408
N   N35       1.0  0.56940  0.07060  0.65730  1.0000 -0.2909840408
N   N36       1.0  0.53230  0.13040  0.74740  1.0000 -0.031194854
N   N37       1.0  0.36800  0.21030  0.76380  1.0000 -0.3621655542
N   N38       1.0  0.35980  0.28070  0.85920  1.0000 -0.3689748584
N   N39       1.0  0.52000  0.27590  0.94110  1.0000 -0.0210833677
N   N40       1.0  0.56250  0.35130  0.01750  1.0000 -0.2909840408
N   N41       1.0  0.11490  0.69040  0.12600  1.0000 0.512122826
N   N42       1.0  0.08820  0.80150  0.63550  1.0000 0.512122826
N   N43       1.0  0.43600  0.63430  0.98700  1.0000 -0.2909840408
N   N44       1.0  0.48800  0.71710  0.05480  1.0000 -0.0210833677
N   N45       1.0  0.66560  0.72650  0.12580  1.0000 -0.3689748584
N   N46       1.0  0.66210  0.79980  0.22080  1.0000 -0.3689748584
N   N47       1.0  0.47690  0.86670  0.24480  1.0000 -0.0210833677
N   N48       1.0  0.42480  0.91700  0.33790  1.0000 -0.2909840408
N   N49       1.0  0.43060  0.57060  0.84270  1.0000 -0.2909840408
N   N50       1.0  0.46770  0.63040  0.75260  1.0000 -0.031194854
N   N51       1.0  0.63200  0.71030  0.73620  1.0000 -0.3621655542
N   N52       1.0  0.64020  0.78070  0.64080  1.0000 -0.3689748584
N   N53       1.0  0.48000  0.77590  0.55890  1.0000 -0.0210833677
N   N54       1.0  0.43750  0.85130  0.48250  1.0000 -0.2909840408
N   N55       1.0  0.88510  0.19040  0.37400  1.0000 0.512122826
N   N56       1.0  0.91180  0.30150  0.86450  1.0000 0.512122826
O   O1        1.0  0.09280  0.50740  0.55280  1.0000 -0.5678998369
O   O2        1.0  0.21630  0.59743  0.58270  1.0000 -0.5381936767
O   O3        1.0  0.70520  0.56250  0.56570  1.0000 -0.5298113364
O   O4        1.0  0.79420  0.46350  0.58820  1.0000 -0.5298113364
O   O5        1.0  0.47640  0.26990  0.62060  1.0000 -0.3181617956
O   O6        1.0  0.27260  0.29420  0.64500  1.0000 -0.3297403294
O   O7        1.0  0.70280  0.93971  0.06690  1.0000 -0.5381936767
O   O8        1.0  0.79630  0.03996  0.07800  1.0000 -0.5231771458
O   O9        1.0  0.21150  0.91770  0.08080  1.0000 -0.5381936767
O   O10       1.0  0.09640  0.00876  0.04733  1.0000 -0.577246933
O   O11       1.0  0.30370  0.22650  0.13000  1.0000 -0.3181617956
O   O12       1.0  0.50880  0.22440  0.16080  1.0000 -0.3181617956
O   O13       1.0  0.90720  0.00740  0.94720  1.0000 -0.5678998369
O   O14       1.0  0.78370  0.09743  0.91730  1.0000 -0.5381936767
O   O15       1.0  0.29480  0.06250  0.93430  1.0000 -0.5298113364
O   O16       1.0  0.20580  0.96350  0.91180  1.0000 -0.5298113364
O   O17       1.0  0.52360  0.76990  0.87940  1.0000 -0.3181617956
O   O18       1.0  0.72740  0.79420  0.85500  1.0000 -0.3297403294
O   O19       1.0  0.29720  0.43971  0.43310  1.0000 -0.5381936767
O   O20       1.0  0.20370  0.53996  0.42200  1.0000 -0.5231771458
O   O21       1.0  0.78850  0.41770  0.41920  1.0000 -0.5381936767
O   O22       1.0  0.90360  0.50876  0.45267  1.0000 -0.577246933
O   O23       1.0  0.69630  0.72650  0.37000  1.0000 -0.3181617956
O   O24       1.0  0.49120  0.72440  0.33920  1.0000 -0.3181617956
O   O25       1.0  0.40720  0.49260  0.05280  1.0000 -0.5678998369
O   O26       1.0  0.28370  0.40257  0.08270  1.0000 -0.5381936767
O   O27       1.0  0.79480  0.43750  0.06570  1.0000 -0.5298113364
O   O28       1.0  0.70580  0.53650  0.08820  1.0000 -0.5298113364
O   O29       1.0  0.02360  0.73010  0.12060  1.0000 -0.3181617956
O   O30       1.0  0.22740  0.70580  0.14500  1.0000 -0.3297403294
O   O31       1.0  0.79720  0.06029  0.56690  1.0000 -0.5381936767
O   O32       1.0  0.70370  0.96004  0.57800  1.0000 -0.5231771458
O   O33       1.0  0.28850  0.08230  0.58080  1.0000 -0.5381936767
O   O34       1.0  0.40360  0.99124  0.54733  1.0000 -0.577246933
O   O35       1.0  0.19630  0.77350  0.63000  1.0000 -0.3181617956
O   O36       1.0  0.99120  0.77560  0.66080  1.0000 -0.3181617956
O   O37       1.0  0.59280  0.99260  0.44720  1.0000 -0.5678998369
O   O38       1.0  0.71630  0.90257  0.41730  1.0000 -0.5381936767
O   O39       1.0  0.20520  0.93750  0.43430  1.0000 -0.5298113364
O   O40       1.0  0.29420  0.03650  0.41180  1.0000 -0.5298113364
O   O41       1.0  0.97640  0.23010  0.37940  1.0000 -0.3181617956
O   O42       1.0  0.77260  0.20580  0.35500  1.0000 -0.3297403294
O   O43       1.0  0.20280  0.56029  0.93310  1.0000 -0.5381936767
O   O44       1.0  0.29630  0.46004  0.92200  1.0000 -0.5231771458
O   O45       1.0  0.71150  0.58230  0.91920  1.0000 -0.5381936767
O   O46       1.0  0.59640  0.49124  0.95267  1.0000 -0.577246933
O   O47       1.0  0.80370  0.27350  0.87000  1.0000 -0.3181617956
O   O48       1.0  0.00880  0.27560  0.83920  1.0000 -0.3181617956
