# DDEC6 charges by PACMAN v1.1 (https://github.com/mtap-research/PACMAN-charge/)
data_2017[Pr][nan]3[ASR]3
_chemical_formula_sum              "Pr4 C48 O24 F24"
_cell_length_a       7.905
_cell_length_b       21.288
_cell_length_c       10.212
_cell_angle_alpha    90
_cell_angle_beta     98.851
_cell_angle_gamma    90

_symmetry_space_group_name_H-M    "P 1"
_symmetry_Int_Tables_number       1

loop_
  _symmetry_equiv_pos_as_xyz
  'x, y, z'

loop_
  _atom_site_type_symbol
  _atom_site_label
  _atom_site_symmetry_multiplicity
  _atom_site_fract_x
  _atom_site_fract_y
  _atom_site_fract_z
  _atom_site_occupancy
  _atom_site_charge
Pr  Pr1       1.0  0.99507  0.78495  0.98945  1.0000 2.1120258417
Pr  Pr2       1.0  0.50493  0.28495  0.01055  1.0000 2.1120258417
Pr  Pr3       1.0  0.00493  0.21505  0.01055  1.0000 2.1120258417
Pr  Pr4       1.0  0.49507  0.71505  0.98945  1.0000 2.1120258417
C   C1        1.0  0.83830  0.78330  0.23090  1.0000 0.6557645645
C   C2        1.0  0.66170  0.28330  0.76910  1.0000 0.6557645645
C   C3        1.0  0.16170  0.21670  0.76910  1.0000 0.6557645645
C   C4        1.0  0.33830  0.71670  0.23090  1.0000 0.6557645645
C   C5        1.0  0.64300  0.72800  0.74710  1.0000 0.6530199196
C   C6        1.0  0.85700  0.22800  0.25290  1.0000 0.6530199196
C   C7        1.0  0.35700  0.27200  0.25290  1.0000 0.6530199196
C   C8        1.0  0.14300  0.77200  0.74710  1.0000 0.6530199196
C   C9        1.0  0.78840  0.76990  0.36370  1.0000 -0.2172957103
C   C10       1.0  0.71160  0.26990  0.63630  1.0000 -0.2172957103
C   C11       1.0  0.21160  0.23010  0.63630  1.0000 -0.2172957103
C   C12       1.0  0.28840  0.73010  0.36370  1.0000 -0.2172957103
C   C13       1.0  0.74970  0.81710  0.44800  1.0000 0.1651130017
C   C14       1.0  0.75030  0.31710  0.55200  1.0000 0.1646502759
C   C15       1.0  0.25030  0.18290  0.55200  1.0000 0.1646502759
C   C16       1.0  0.24970  0.68290  0.44800  1.0000 0.1646502759
C   C17       1.0  0.43330  0.93980  0.99970  1.0000 -0.19198254
C   C18       1.0  0.06670  0.43980  0.00030  1.0000 -0.19198254
C   C19       1.0  0.56670  0.06020  0.00030  1.0000 -0.19198254
C   C20       1.0  0.93330  0.56020  0.99970  1.0000 -0.19198254
C   C21       1.0  0.69400  0.74340  0.61260  1.0000 -0.19198254
C   C22       1.0  0.80600  0.24340  0.38740  1.0000 -0.19198254
C   C23       1.0  0.30600  0.25660  0.38740  1.0000 -0.19198254
C   C24       1.0  0.19400  0.75660  0.61260  1.0000 -0.1953153614
C   C25       1.0  0.36360  0.87280  0.99930  1.0000 0.6973616775
C   C26       1.0  0.13640  0.37280  0.00070  1.0000 0.6973616775
C   C27       1.0  0.63640  0.12720  0.00070  1.0000 0.6973616775
C   C28       1.0  0.86360  0.62720  0.99930  1.0000 0.6973616775
C   C29       1.0  0.70520  0.80370  0.56900  1.0000 0.1486681274
C   C30       1.0  0.79480  0.30370  0.43100  1.0000 0.1486681274
C   C31       1.0  0.29480  0.19630  0.43100  1.0000 0.1486681274
C   C32       1.0  0.20520  0.69630  0.56900  1.0000 0.1486681274
C   C33       1.0  0.77840  0.70800  0.40890  1.0000 0.1777569424
C   C34       1.0  0.72160  0.20800  0.59110  1.0000 0.1777569424
C   C35       1.0  0.22160  0.29200  0.59110  1.0000 0.1777569424
C   C36       1.0  0.27840  0.79200  0.40890  1.0000 0.1777569424
C   C37       1.0  0.44220  0.97040  0.88250  1.0000 0.1486681274
C   C38       1.0  0.05780  0.47040  0.11750  1.0000 0.1486681274
C   C39       1.0  0.55780  0.02960  0.11750  1.0000 0.1486681274
C   C40       1.0  0.94220  0.52960  0.88250  1.0000 0.1486681274
C   C41       1.0  0.49160  0.97010  0.11690  1.0000 0.1486681274
C   C42       1.0  0.00840  0.47010  0.88310  1.0000 0.1486681274
C   C43       1.0  0.50840  0.02990  0.88310  1.0000 0.1486681274
C   C44       1.0  0.99160  0.52990  0.11690  1.0000 0.1486681274
C   C45       1.0  0.73240  0.69640  0.52940  1.0000 0.1362358775
C   C46       1.0  0.76760  0.19640  0.47060  1.0000 0.1362358775
C   C47       1.0  0.26760  0.30360  0.47060  1.0000 0.1362358775
C   C48       1.0  0.23240  0.80360  0.52940  1.0000 0.1362358775
O   O1        1.0  0.75150  0.75950  0.12910  1.0000 -0.7247272287
O   O2        1.0  0.74850  0.25950  0.87090  1.0000 -0.7247272287
O   O3        1.0  0.24850  0.24050  0.87090  1.0000 -0.7247272287
O   O4        1.0  0.25150  0.74050  0.12910  1.0000 -0.7247272287
O   O5        1.0  0.52970  0.68990  0.75360  1.0000 -0.5479752425
O   O6        1.0  0.97030  0.18990  0.24640  1.0000 -0.5479752425
O   O7        1.0  0.47030  0.31010  0.24640  1.0000 -0.5479752425
O   O8        1.0  0.02970  0.81010  0.75360  1.0000 -0.5479752425
O   O9        1.0  0.96620  0.81620  0.22450  1.0000 -0.5778148476
O   O10       1.0  0.53380  0.31620  0.77550  1.0000 -0.5778148476
O   O11       1.0  0.03380  0.18380  0.77550  1.0000 -0.5778148476
O   O12       1.0  0.46620  0.68380  0.22450  1.0000 -0.5778148476
O   O13       1.0  0.71710  0.75800  0.84780  1.0000 -0.736508802
O   O14       1.0  0.78290  0.25800  0.15220  1.0000 -0.736508802
O   O15       1.0  0.28290  0.24200  0.15220  1.0000 -0.736508802
O   O16       1.0  0.21710  0.74200  0.84780  1.0000 -0.736508802
O   O17       1.0  0.20890  0.86720  0.01020  1.0000 -0.6521004194
O   O18       1.0  0.29110  0.36720  0.98980  1.0000 -0.6560426507
O   O19       1.0  0.79110  0.13280  0.98980  1.0000 -0.6560426507
O   O20       1.0  0.70890  0.63280  0.01020  1.0000 -0.6521004194
O   O21       1.0  0.46930  0.83020  0.98550  1.0000 -0.6521004194
O   O22       1.0  0.03070  0.33020  0.01450  1.0000 -0.6521004194
O   O23       1.0  0.53070  0.16980  0.01450  1.0000 -0.6521004194
O   O24       1.0  0.96930  0.66980  0.98550  1.0000 -0.6521004194
F   F1        1.0  0.75840  0.87730  0.41060  1.0000 -0.0954356942
F   F2        1.0  0.74160  0.37730  0.58940  1.0000 -0.0906792993
F   F3        1.0  0.24160  0.12270  0.58940  1.0000 -0.0906792993
F   F4        1.0  0.25840  0.62270  0.41060  1.0000 -0.0906792993
F   F5        1.0  0.82250  0.66120  0.33400  1.0000 -0.0906792993
F   F6        1.0  0.67750  0.16120  0.66600  1.0000 -0.0906792993
F   F7        1.0  0.17750  0.33880  0.66600  1.0000 -0.0906792993
F   F8        1.0  0.32250  0.83880  0.33400  1.0000 -0.0906792993
F   F9        1.0  0.72750  0.63560  0.56810  1.0000 -0.0906792993
F   F10       1.0  0.77250  0.13560  0.43190  1.0000 -0.0906792993
F   F11       1.0  0.27250  0.36440  0.43190  1.0000 -0.0906792993
F   F12       1.0  0.22750  0.86440  0.56810  1.0000 -0.0906792993
F   F13       1.0  0.66220  0.85220  0.64370  1.0000 -0.0906792993
F   F14       1.0  0.83780  0.35220  0.35630  1.0000 -0.0906792993
F   F15       1.0  0.33780  0.14780  0.35630  1.0000 -0.0906792993
F   F16       1.0  0.16220  0.64780  0.64370  1.0000 -0.0906792993
F   F17       1.0  0.38770  0.94100  0.76980  1.0000 -0.0906792993
F   F18       1.0  0.11230  0.44100  0.23020  1.0000 -0.0906792993
F   F19       1.0  0.61230  0.05900  0.23020  1.0000 -0.0906792993
F   F20       1.0  0.88770  0.55900  0.76980  1.0000 -0.0906792993
F   F21       1.0  0.48450  0.94080  0.23070  1.0000 -0.0906792993
F   F22       1.0  0.01550  0.44080  0.76930  1.0000 -0.0954356942
F   F23       1.0  0.51550  0.05920  0.76930  1.0000 -0.0954356942
F   F24       1.0  0.98450  0.55920  0.23070  1.0000 -0.0906792993
