# DDEC6 charges by PACMAN v1.1 (https://github.com/mtap-research/PACMAN-charge/)
data_2017[Eu][nan]3[ASR]1
_chemical_formula_sum              "Eu4 H36 C72 O24"
_cell_length_a       9.6429
_cell_length_b       13.596
_cell_length_c       20.27
_cell_angle_alpha    84.83
_cell_angle_beta     83.61
_cell_angle_gamma    75.82

_symmetry_space_group_name_H-M    "P 1"
_symmetry_Int_Tables_number       1

loop_
  _symmetry_equiv_pos_as_xyz
  'x, y, z'

loop_
  _atom_site_type_symbol
  _atom_site_label
  _atom_site_symmetry_multiplicity
  _atom_site_fract_x
  _atom_site_fract_y
  _atom_site_fract_z
  _atom_site_occupancy
  _atom_site_charge
Eu  Eu1       1.0  0.25135  0.01501  0.48438  1.0000 2.0898001819
Eu  Eu2       1.0  0.24994  0.51169  0.01833  1.0000 2.0961831241
Eu  Eu3       1.0  0.74865  0.98499  0.51562  1.0000 2.0898001819
Eu  Eu4       1.0  0.75006  0.48831  0.98167  1.0000 2.0961831241
H   H1        1.0  0.22150  0.64580  0.85930  1.0000 0.1191227138
H   H2        1.0  0.99710  0.66410  0.18900  1.0000 0.1191227138
H   H3        1.0  0.27660  0.90380  0.65570  1.0000 0.1191227138
H   H4        1.0  0.54940  0.67250  0.53250  1.0000 0.1282020737
H   H5        1.0  0.91390  0.80760  0.70490  1.0000 0.1191227138
H   H6        1.0  0.65100  0.57180  0.15070  1.0000 0.1191227138
H   H7        1.0  0.97610  0.78340  0.27670  1.0000 0.1191227138
H   H8        1.0  0.48530  0.79680  0.31670  1.0000 0.1282020737
H   H9        1.0  0.51740  0.66260  0.23650  1.0000 0.1191227138
H   H10       1.0  0.83390  0.89400  0.35130  1.0000 0.1191227138
H   H11       1.0  0.58570  0.73960  0.80930  1.0000 0.1282020737
H   H12       1.0  0.72380  0.50930  0.55980  1.0000 0.1191227138
H   H13       1.0  0.17280  0.15300  0.04670  1.0000 0.1282020737
H   H14       1.0  0.24200  0.97720  0.04710  1.0000 0.1191227138
H   H15       1.0  0.20060  0.66170  0.44180  1.0000 0.1282020737
H   H16       1.0  0.47260  0.85010  0.72670  1.0000 0.1191227138
H   H17       1.0  0.01510  0.71070  0.79520  1.0000 0.1282020737
H   H18       1.0  0.56910  0.17290  0.97590  1.0000 0.1191227138
H   H19       1.0  0.77850  0.35420  0.14070  1.0000 0.1191227138
H   H20       1.0  0.00290  0.33590  0.81100  1.0000 0.1191227138
H   H21       1.0  0.72340  0.09620  0.34430  1.0000 0.1191227138
H   H22       1.0  0.45060  0.32750  0.46750  1.0000 0.1282020737
H   H23       1.0  0.08610  0.19240  0.29510  1.0000 0.1191227138
H   H24       1.0  0.34900  0.42820  0.84930  1.0000 0.1191227138
H   H25       1.0  0.02390  0.21660  0.72330  1.0000 0.1191227138
H   H26       1.0  0.51470  0.20320  0.68330  1.0000 0.1282020737
H   H27       1.0  0.48260  0.33740  0.76350  1.0000 0.1191227138
H   H28       1.0  0.16610  0.10600  0.64870  1.0000 0.114382486
H   H29       1.0  0.41430  0.26040  0.19070  1.0000 0.1282020737
H   H30       1.0  0.27620  0.49070  0.44020  1.0000 0.1191227138
H   H31       1.0  0.82720  0.84700  0.95330  1.0000 0.1282020737
H   H32       1.0  0.75800  0.02280  0.95290  1.0000 0.1191227138
H   H33       1.0  0.79940  0.33830  0.55820  1.0000 0.1282020737
H   H34       1.0  0.52740  0.14990  0.27330  1.0000 0.1191227138
H   H35       1.0  0.98490  0.28930  0.20480  1.0000 0.1282020737
H   H36       1.0  0.43090  0.82710  0.02410  1.0000 0.1191227138
C   C1        1.0  0.01970  0.92830  0.61310  1.0000 0.6501392751
C   C2        1.0  0.93420  0.54360  0.11020  1.0000 0.6501392751
C   C3        1.0  0.55390  0.92120  0.39390  1.0000 0.6405738025
C   C4        1.0  0.36110  0.18390  0.00910  1.0000 -0.0530776427
C   C5        1.0  0.36980  0.68340  0.48550  1.0000 0.0033724673
C   C6        1.0  0.27430  0.68410  0.83130  1.0000 -0.1505095546
C   C7        1.0  0.54180  0.52870  0.51520  1.0000 0.0723985798
C   C8        1.0  0.08220  0.86900  0.67100  1.0000 -0.061349281
C   C9        1.0  0.20980  0.74690  0.77850  1.0000 0.0723985798
C   C10       1.0  0.89960  0.66667  0.19740  1.0000 -0.1505095546
C   C11       1.0  0.22310  0.86570  0.68350  1.0000 -0.1211696201
C   C12       1.0  0.31600  0.29330  0.00370  1.0000 0.5564529925
C   C13       1.0  0.83850  0.60730  0.16250  1.0000 -0.02777458
C   C14       1.0  0.49630  0.63490  0.51430  1.0000 -0.1554051906
C   C15       1.0  0.32010  0.79630  0.49350  1.0000 0.5528877109
C   C16       1.0  0.00670  0.80830  0.71310  1.0000 -0.0883395255
C   C17       1.0  0.69320  0.60900  0.17540  1.0000 -0.0883395255
C   C18       1.0  0.87770  0.78820  0.28280  1.0000 -0.1505095546
C   C19       1.0  0.66600  0.73110  0.25940  1.0000 0.0723985798
C   C20       1.0  0.41630  0.67870  0.84210  1.0000 -0.02777458
C   C21       1.0  0.48900  0.60280  0.89370  1.0000 0.6405738025
C   C22       1.0  0.44940  0.97300  0.01140  1.0000 0.0637550905
C   C23       1.0  0.58280  0.79430  0.30770  1.0000 -0.1554051906
C   C24       1.0  0.64700  0.85330  0.34200  1.0000 -0.023249609
C   C25       1.0  0.28450  0.80510  0.73770  1.0000 0.0637550905
C   C26       1.0  0.61200  0.66700  0.22540  1.0000 -0.1438920245
C   C27       1.0  0.79370  0.85230  0.32910  1.0000 -0.1211696201
C   C28       1.0  0.49150  0.74110  0.80220  1.0000 -0.1021971599
C   C29       1.0  0.81750  0.73010  0.24490  1.0000 0.0723985798
C   C30       1.0  0.66820  0.47380  0.54130  1.0000 -0.1438920245
C   C31       1.0  0.26670  0.12220  0.03170  1.0000 -0.0883395255
C   C32       1.0  0.30710  0.01680  0.03280  1.0000 -0.1505095546
C   C33       1.0  0.28600  0.62830  0.45900  1.0000 -0.1069197998
C   C34       1.0  0.42430  0.80580  0.75160  1.0000 -0.1505095546
C   C35       1.0  0.06780  0.74890  0.76700  1.0000 -0.1505095546
C   C36       1.0  0.50290  0.13370  0.98930  1.0000 -0.1266073407
C   C37       1.0  0.98030  0.07170  0.38690  1.0000 0.6501392751
C   C38       1.0  0.06580  0.45640  0.88980  1.0000 0.6501392751
C   C39       1.0  0.44610  0.07880  0.60610  1.0000 0.6405738025
C   C40       1.0  0.63890  0.81610  0.99090  1.0000 -0.0530776427
C   C41       1.0  0.63020  0.31660  0.51450  1.0000 0.0033724673
C   C42       1.0  0.72570  0.31590  0.16870  1.0000 -0.1505095546
C   C43       1.0  0.45820  0.47130  0.48480  1.0000 0.0723985798
C   C44       1.0  0.91780  0.13100  0.32900  1.0000 -0.061349281
C   C45       1.0  0.79020  0.25310  0.22150  1.0000 0.0723985798
C   C46       1.0  0.10040  0.33333  0.80260  1.0000 -0.1505095546
C   C47       1.0  0.77690  0.13430  0.31650  1.0000 -0.1211696201
C   C48       1.0  0.68400  0.70670  0.99630  1.0000 0.5564529925
C   C49       1.0  0.16150  0.39270  0.83750  1.0000 -0.02777458
C   C50       1.0  0.50370  0.36510  0.48570  1.0000 -0.1505095546
C   C51       1.0  0.67990  0.20370  0.50650  1.0000 0.5528877109
C   C52       1.0  0.99330  0.19170  0.28690  1.0000 -0.0883395255
C   C53       1.0  0.30680  0.39100  0.82460  1.0000 -0.0883395255
C   C54       1.0  0.12230  0.21180  0.71720  1.0000 -0.1505095546
C   C55       1.0  0.33400  0.26890  0.74060  1.0000 0.0723985798
C   C56       1.0  0.58370  0.32130  0.15790  1.0000 -0.023249609
C   C57       1.0  0.51100  0.39720  0.10630  1.0000 0.6405738025
C   C58       1.0  0.55060  0.02700  0.98860  1.0000 0.0637550905
C   C59       1.0  0.41720  0.20570  0.69230  1.0000 -0.1505095546
C   C60       1.0  0.35300  0.14670  0.65800  1.0000 -0.023249609
C   C61       1.0  0.71550  0.19490  0.26230  1.0000 0.0637550905
C   C62       1.0  0.38800  0.33300  0.77460  1.0000 -0.1438920245
C   C63       1.0  0.20630  0.14770  0.67090  1.0000 -0.1211696201
C   C64       1.0  0.50850  0.25890  0.19780  1.0000 -0.1021971599
C   C65       1.0  0.18250  0.26990  0.75510  1.0000 0.0723985798
C   C66       1.0  0.33180  0.52620  0.45870  1.0000 -0.1438920245
C   C67       1.0  0.73330  0.87780  0.96830  1.0000 -0.0848903552
C   C68       1.0  0.69290  0.98320  0.96720  1.0000 -0.1505095546
C   C69       1.0  0.71400  0.37170  0.54100  1.0000 -0.1069197998
C   C70       1.0  0.57570  0.19420  0.24840  1.0000 -0.1505095546
C   C71       1.0  0.93220  0.25110  0.23300  1.0000 -0.1505095546
C   C72       1.0  0.49710  0.86630  0.01070  1.0000 -0.1266073407
O   O1        1.0  0.38260  0.84320  0.52300  1.0000 -0.5703143747
O   O2        1.0  0.09040  0.97710  0.57390  1.0000 -0.6843121022
O   O3        1.0  0.41540  0.56130  0.93920  1.0000 -0.7565314144
O   O4        1.0  0.06170  0.54370  0.10280  1.0000 -0.6405290166
O   O5        1.0  0.62390  0.58570  0.89130  1.0000 -0.6405290166
O   O6        1.0  0.41940  0.94240  0.39230  1.0000 -0.6405290166
O   O7        1.0  0.88890  0.92880  0.60610  1.0000 -0.6885403961
O   O8        1.0  0.61450  0.95830  0.43360  1.0000 -0.7254095048
O   O9        1.0  0.20620  0.84370  0.46300  1.0000 -0.6599507899
O   O10       1.0  0.19050  0.33800  0.03180  1.0000 -0.6405290166
O   O11       1.0  0.39530  0.34820  0.97770  1.0000 -0.5938965649
O   O12       1.0  0.87100  0.50110  0.07300  1.0000 -0.7204697699
O   O13       1.0  0.61740  0.15680  0.47700  1.0000 -0.5703143747
O   O14       1.0  0.90960  0.02290  0.42610  1.0000 -0.6843121022
O   O15       1.0  0.58460  0.43870  0.06080  1.0000 -0.7565314144
O   O16       1.0  0.93830  0.45630  0.89720  1.0000 -0.6405290166
O   O17       1.0  0.37610  0.41430  0.10870  1.0000 -0.6405290166
O   O18       1.0  0.58060  0.05760  0.60770  1.0000 -0.6405290166
O   O19       1.0  0.11110  0.07120  0.39390  1.0000 -0.6885403961
O   O20       1.0  0.38550  0.04170  0.56640  1.0000 -0.7254095048
O   O21       1.0  0.79380  0.15630  0.53700  1.0000 -0.6599507899
O   O22       1.0  0.80950  0.66200  0.96820  1.0000 -0.6463773817
O   O23       1.0  0.60470  0.65180  0.02230  1.0000 -0.5938965649
O   O24       1.0  0.12900  0.49890  0.92700  1.0000 -0.7204697699
