# DDEC6 charges by PACMAN v1.1 (https://github.com/mtap-research/PACMAN-charge/)
data_2017[Ag][hcb]2[ASR]11
_chemical_formula_sum              "Ag2 H42 C54 N6 O12"
_cell_length_a       9.0819
_cell_length_b       13.277
_cell_length_c       16.5547
_cell_angle_alpha    108.977
_cell_angle_beta     99.874
_cell_angle_gamma    102.711

_symmetry_space_group_name_H-M    "P 1"
_symmetry_Int_Tables_number       1

loop_
  _symmetry_equiv_pos_as_xyz
  'x, y, z'

loop_
  _atom_site_type_symbol
  _atom_site_label
  _atom_site_symmetry_multiplicity
  _atom_site_fract_x
  _atom_site_fract_y
  _atom_site_fract_z
  _atom_site_occupancy
  _atom_site_charge
Ag  Ag1       1.0  0.44956  0.11807  0.68429  1.0000 0.2208386759
Ag  Ag2       1.0  0.55044  0.88193  0.31571  1.0000 0.2208386759
H   H1        1.0  0.68940  0.03150  0.79530  1.0000 0.1019078052
H   H2        1.0  0.79000  0.88410  0.78110  1.0000 0.1360631312
H   H3        1.0  0.50690  0.72330  0.53270  1.0000 0.1176172321
H   H4        1.0  0.40500  0.87340  0.55630  1.0000 0.0901244555
H   H5        1.0  0.87240  0.55990  0.57160  1.0000 0.1019078052
H   H6        1.0  0.71150  0.47990  0.57130  1.0000 0.1106929744
H   H7        1.0  0.66510  0.35210  0.82920  1.0000 0.0901244555
H   H8        1.0  0.71980  0.46610  0.97540  1.0000 0.1360631312
H   H9        1.0  0.36200  0.24650  0.99940  1.0000 0.1309182942
H   H10       1.0  0.31360  0.14110  0.84890  1.0000 0.1019078052
H   H11       1.0  0.54450  0.54660  0.24160  1.0000 0.1019078052
H   H12       1.0  0.39480  0.45780  0.24300  1.0000 0.1106929744
H   H13       1.0  0.25970  0.96300  0.48060  1.0000 0.0901244555
H   H14       1.0  0.07800  0.95910  0.36330  1.0000 0.1309182942
H   H15       1.0  0.06550  0.26240  0.51860  1.0000 0.1309182942
H   H16       1.0  0.24950  0.25790  0.63000  1.0000 0.1019078052
H   H17       1.0  0.87640  0.23110  0.25110  1.0000 0.1176172321
H   H18       1.0  0.72530  0.15320  0.26230  1.0000 0.1019078052
H   H19       1.0  0.84940  0.36420  0.46020  1.0000 0.1106929744
H   H20       1.0  0.58900  0.55650  0.40530  1.0000 0.1106929744
H   H21       1.0  0.64900  0.30700  0.20580  1.0000 0.1176172321
H   H22       1.0  0.31060  0.96850  0.20470  1.0000 0.1019078052
H   H23       1.0  0.21000  0.11590  0.21890  1.0000 0.1360631312
H   H24       1.0  0.49310  0.27670  0.46730  1.0000 0.1176172321
H   H25       1.0  0.59500  0.12660  0.44370  1.0000 0.0901244555
H   H26       1.0  0.12760  0.44010  0.42840  1.0000 0.1019078052
H   H27       1.0  0.28850  0.52010  0.42870  1.0000 0.1106929744
H   H28       1.0  0.33490  0.64790  0.17080  1.0000 0.0901244555
H   H29       1.0  0.28020  0.53390  0.02460  1.0000 0.1360631312
H   H30       1.0  0.63800  0.75350  0.00060  1.0000 0.1309182942
H   H31       1.0  0.68640  0.85890  0.15110  1.0000 0.1019078052
H   H32       1.0  0.45550  0.45340  0.75840  1.0000 0.1019078052
H   H33       1.0  0.60520  0.54220  0.75700  1.0000 0.1106929744
H   H34       1.0  0.74030  0.03700  0.51940  1.0000 0.0901244555
H   H35       1.0  0.92200  0.04090  0.63670  1.0000 0.1309182942
H   H36       1.0  0.93450  0.73760  0.48140  1.0000 0.1309182942
H   H37       1.0  0.75050  0.74210  0.37000  1.0000 0.1019078052
H   H38       1.0  0.12360  0.76890  0.74890  1.0000 0.1176172321
H   H39       1.0  0.27470  0.84680  0.73770  1.0000 0.1019078052
H   H40       1.0  0.15060  0.63580  0.53980  1.0000 0.1106929744
H   H41       1.0  0.41100  0.44350  0.59470  1.0000 0.1106929744
H   H42       1.0  0.35100  0.69300  0.79420  1.0000 0.1176172321
C   C1        1.0  0.64990  0.96750  0.74180  1.0000 0.0505202363
C   C2        1.0  0.71130  0.88030  0.73340  1.0000 -0.1611031443
C   C3        1.0  0.65890  0.78700  0.65570  1.0000 -0.0017082187
C   C4        1.0  0.54440  0.78490  0.58780  1.0000 -0.167277592
C   C5        1.0  0.48570  0.87580  0.60240  1.0000 0.0505202363
C   C6        1.0  0.72890  0.69320  0.64640  1.0000 0.4907448093
C   C7        1.0  0.75790  0.53170  0.54460  1.0000 -0.083991147
C   C8        1.0  0.60200  0.32990  0.86430  1.0000 0.0394738689
C   C9        1.0  0.63590  0.39880  0.95130  1.0000 -0.1611031443
C   C10       1.0  0.42590  0.27080  0.96550  1.0000 -0.1611031443
C   C11       1.0  0.54490  0.36800  0.00360  1.0000 -0.0017082187
C   C12       1.0  0.39930  0.20730  0.87540  1.0000 0.0644989485
C   C13       1.0  0.58110  0.44240  0.09910  1.0000 0.4907448093
C   C14       1.0  0.49930  0.46710  0.23130  1.0000 -0.0961521616
C   C15       1.0  0.21970  0.02490  0.48830  1.0000 0.0394738689
C   C16       1.0  0.11160  0.02150  0.41780  1.0000 -0.167277592
C   C17       1.0  0.05280  0.11120  0.42820  1.0000 -0.0017082187
C   C18       1.0  0.10470  0.20000  0.50920  1.0000 -0.167277592
C   C19       1.0  0.21330  0.19600  0.57510  1.0000 0.0394738689
C   C20       1.0  0.94110  0.11130  0.35100  1.0000 0.4839138488
C   C21       1.0  0.81540  0.22130  0.29360  1.0000 -0.083991147
C   C22       1.0  0.75730  0.32200  0.32850  1.0000 0.1106929744
C   C23       1.0  0.78700  0.38280  0.41820  1.0000 -0.2306904992
C   C24       1.0  0.72450  0.47220  0.44690  1.0000 0.1019078052
C   C25       1.0  0.63280  0.49700  0.38570  1.0000 -0.223898833
C   C26       1.0  0.60230  0.43630  0.29450  1.0000 0.1019078052
C   C27       1.0  0.66720  0.34860  0.26720  1.0000 -0.2114259427
C   C28       1.0  0.35010  0.03250  0.25820  1.0000 0.0505202363
C   C29       1.0  0.28870  0.11970  0.26660  1.0000 -0.1611031443
C   C30       1.0  0.34110  0.21300  0.34430  1.0000 -0.0017082187
C   C31       1.0  0.45560  0.21510  0.41220  1.0000 -0.167277592
C   C32       1.0  0.51430  0.12420  0.39760  1.0000 0.0505202363
C   C33       1.0  0.27110  0.30680  0.35360  1.0000 0.4907448093
C   C34       1.0  0.24210  0.46830  0.45540  1.0000 -0.083991147
C   C35       1.0  0.39800  0.67010  0.13570  1.0000 0.0394738689
C   C36       1.0  0.36410  0.60120  0.04870  1.0000 -0.1611031443
C   C37       1.0  0.57410  0.72920  0.03450  1.0000 -0.1611031443
C   C38       1.0  0.45510  0.63200  0.99640  1.0000 -0.0017082187
C   C39       1.0  0.60070  0.79270  0.12460  1.0000 0.0644989485
C   C40       1.0  0.41890  0.55760  0.90090  1.0000 0.4907448093
C   C41       1.0  0.50070  0.53290  0.76870  1.0000 -0.0961521616
C   C42       1.0  0.78030  0.97510  0.51170  1.0000 0.0394738689
C   C43       1.0  0.88840  0.97850  0.58220  1.0000 -0.167277592
C   C44       1.0  0.94720  0.88880  0.57180  1.0000 -0.0017082187
C   C45       1.0  0.89530  0.80000  0.49080  1.0000 -0.167277592
C   C46       1.0  0.78670  0.80400  0.42490  1.0000 0.0394738689
C   C47       1.0  0.05890  0.88870  0.64900  1.0000 0.4839138488
C   C48       1.0  0.18460  0.77870  0.70640  1.0000 -0.083991147
C   C49       1.0  0.24270  0.67800  0.67150  1.0000 0.1106929744
C   C50       1.0  0.21300  0.61720  0.58180  1.0000 -0.2306904992
C   C51       1.0  0.27550  0.52780  0.55310  1.0000 0.1019078052
C   C52       1.0  0.36720  0.50300  0.61430  1.0000 -0.223898833
C   C53       1.0  0.39770  0.56370  0.70550  1.0000 0.1019078052
C   C54       1.0  0.33280  0.65140  0.73280  1.0000 -0.2114259427
N   N1        1.0  0.53600  0.96620  0.67740  1.0000 -0.2016205391
N   N2        1.0  0.27270  0.10930  0.56720  1.0000 -0.2016205391
N   N3        1.0  0.48730  0.23440  0.82530  1.0000 -0.2016205391
N   N4        1.0  0.46400  0.03380  0.32260  1.0000 -0.2016205391
N   N5        1.0  0.72730  0.89070  0.43280  1.0000 -0.2016205391
N   N6        1.0  0.51270  0.76560  0.17470  1.0000 -0.2016205391
O   O1        1.0  0.81040  0.68370  0.70680  1.0000 -0.4615428647
O   O2        1.0  0.69150  0.62390  0.56156  1.0000 -0.2357363602
O   O3        1.0  0.68310  0.52940  0.13400  1.0000 -0.4615428647
O   O4        1.0  0.48160  0.39950  0.13930  1.0000 -0.2306904992
O   O5        1.0  0.88330  0.03370  0.28240  1.0000 -0.4815553924
O   O6        1.0  0.91300  0.20980  0.36710  1.0000 -0.2306904992
O   O7        1.0  0.18960  0.31630  0.29320  1.0000 -0.4615428647
O   O8        1.0  0.30850  0.37610  0.43844  1.0000 -0.2357363602
O   O9        1.0  0.31690  0.47060  0.86600  1.0000 -0.4615428647
O   O10       1.0  0.51840  0.60050  0.86070  1.0000 -0.2306904992
O   O11       1.0  0.11670  0.96630  0.71760  1.0000 -0.4815553924
O   O12       1.0  0.08700  0.79020  0.63290  1.0000 -0.2306904992
