# DDEC6 charges by PACMAN v1.1 (https://github.com/mtap-research/PACMAN-charge/)
data_2017[Zn][nan]2[ASR]9
_chemical_formula_sum              "Zn4 H36 C52 N8 O16"
_cell_length_a       12.186
_cell_length_b       7.6743
_cell_length_c       16.1059
_cell_angle_alpha    90
_cell_angle_beta     108.901
_cell_angle_gamma    90

_symmetry_space_group_name_H-M    "P 1"
_symmetry_Int_Tables_number       1

loop_
  _symmetry_equiv_pos_as_xyz
  'x, y, z'

loop_
  _atom_site_type_symbol
  _atom_site_label
  _atom_site_symmetry_multiplicity
  _atom_site_fract_x
  _atom_site_fract_y
  _atom_site_fract_z
  _atom_site_occupancy
  _atom_site_charge
Zn  Zn1       1.0  0.31348  0.49751  0.18535  1.0000 0.7730240951
Zn  Zn2       1.0  0.68652  0.99751  0.31465  1.0000 0.7730240951
Zn  Zn3       1.0  0.68652  0.50249  0.81465  1.0000 0.7730240951
Zn  Zn4       1.0  0.31348  0.00249  0.68535  1.0000 0.7730240951
H   H1        1.0  0.49660  0.03570  0.64380  1.0000 0.3192946444
H   H2        1.0  0.50580  0.15960  0.71420  1.0000 0.3143956194
H   H3        1.0  0.43190  0.12200  0.49410  1.0000 0.1386844291
H   H4        1.0  0.31600  0.61140  0.43890  1.0000 0.125912873
H   H5        1.0  0.40250  0.43380  0.68580  1.0000 0.1386844291
H   H6        1.0  0.16890  0.21660  0.21780  1.0000 0.1170661393
H   H7        1.0  0.04500  0.21130  0.92090  1.0000 0.1386844291
H   H8        1.0  0.05160  0.99480  0.14570  1.0000 0.1386844291
H   H9        1.0  0.15930  0.43040  0.99860  1.0000 0.1170661393
H   H10       1.0  0.50340  0.53570  0.85620  1.0000 0.3192946444
H   H11       1.0  0.49420  0.65960  0.78580  1.0000 0.3143956194
H   H12       1.0  0.56810  0.62200  0.00590  1.0000 0.1386844291
H   H13       1.0  0.68400  0.11140  0.06110  1.0000 0.125912873
H   H14       1.0  0.59750  0.93380  0.81420  1.0000 0.1386844291
H   H15       1.0  0.83110  0.71660  0.28220  1.0000 0.1170661393
H   H16       1.0  0.95500  0.71130  0.57910  1.0000 0.1386844291
H   H17       1.0  0.94840  0.49480  0.35430  1.0000 0.1386844291
H   H18       1.0  0.84070  0.93040  0.50140  1.0000 0.1170661393
H   H19       1.0  0.50340  0.96430  0.35620  1.0000 0.3192946444
H   H20       1.0  0.49420  0.84040  0.28580  1.0000 0.3143956194
H   H21       1.0  0.56810  0.87800  0.50590  1.0000 0.1386844291
H   H22       1.0  0.68400  0.38860  0.56110  1.0000 0.125912873
H   H23       1.0  0.59750  0.56620  0.31420  1.0000 0.1386844291
H   H24       1.0  0.83110  0.78340  0.78220  1.0000 0.1170661393
H   H25       1.0  0.95500  0.78870  0.07910  1.0000 0.1386844291
H   H26       1.0  0.94840  0.00520  0.85430  1.0000 0.1386844291
H   H27       1.0  0.84070  0.56960  0.00140  1.0000 0.1170661393
H   H28       1.0  0.49660  0.46430  0.14380  1.0000 0.3192946444
H   H29       1.0  0.50580  0.34040  0.21420  1.0000 0.3143956194
H   H30       1.0  0.43190  0.37800  0.99410  1.0000 0.1386844291
H   H31       1.0  0.31600  0.88860  0.93890  1.0000 0.125912873
H   H32       1.0  0.40250  0.06620  0.18580  1.0000 0.1386844291
H   H33       1.0  0.16890  0.28340  0.71780  1.0000 0.1170661393
H   H34       1.0  0.04500  0.28870  0.42090  1.0000 0.1386844291
H   H35       1.0  0.05160  0.50520  0.64570  1.0000 0.1386844291
H   H36       1.0  0.15930  0.06960  0.49860  1.0000 0.1170661393
C   C1        1.0  0.37330  0.36360  0.45210  1.0000 -0.0192151373
C   C2        1.0  0.36370  0.33710  0.35730  1.0000 0.548264278
C   C3        1.0  0.42400  0.25630  0.59990  1.0000 0.248648716
C   C4        1.0  0.41290  0.22940  0.51240  1.0000 -0.1969548633
C   C5        1.0  0.34390  0.52250  0.47950  1.0000 -0.1367543658
C   C6        1.0  0.32750  0.72580  0.59590  1.0000 0.5410066079
C   C7        1.0  0.35570  0.55040  0.56720  1.0000 -0.0137904455
C   C8        1.0  0.39530  0.41640  0.62710  1.0000 -0.2059875299
C   C9        1.0  0.14360  0.21620  0.15680  1.0000 0.0814352342
C   C10       1.0  0.06920  0.20890  0.98190  1.0000 -0.1881123168
C   C11       1.0  0.07320  0.08120  0.11360  1.0000 -0.178370474
C   C12       1.0  0.03550  0.07390  0.02470  1.0000 0.1144340913
C   C13       1.0  0.13850  0.34030  0.02920  1.0000 0.0814352342
C   C14       1.0  0.62670  0.86360  0.04790  1.0000 -0.0192151373
C   C15       1.0  0.63630  0.83710  0.14270  1.0000 0.548264278
C   C16       1.0  0.57600  0.75630  0.90010  1.0000 0.248648716
C   C17       1.0  0.58710  0.72940  0.98760  1.0000 -0.1969548633
C   C18       1.0  0.65610  0.02250  0.02050  1.0000 -0.1367543658
C   C19       1.0  0.67250  0.22580  0.90410  1.0000 0.5410066079
C   C20       1.0  0.64430  0.05040  0.93280  1.0000 -0.0137904455
C   C21       1.0  0.60470  0.91640  0.87290  1.0000 -0.2059875299
C   C22       1.0  0.85640  0.71620  0.34320  1.0000 0.0814352342
C   C23       1.0  0.93080  0.70890  0.51810  1.0000 -0.1881123168
C   C24       1.0  0.92680  0.58120  0.38640  1.0000 -0.178370474
C   C25       1.0  0.96450  0.57390  0.47530  1.0000 0.1170661393
C   C26       1.0  0.86150  0.84030  0.47080  1.0000 0.0814352342
C   C27       1.0  0.62670  0.63640  0.54790  1.0000 -0.0192151373
C   C28       1.0  0.63630  0.66290  0.64270  1.0000 0.548264278
C   C29       1.0  0.57600  0.74370  0.40010  1.0000 0.248648716
C   C30       1.0  0.58710  0.77060  0.48760  1.0000 -0.1969548633
C   C31       1.0  0.65610  0.47750  0.52050  1.0000 -0.1367543658
C   C32       1.0  0.67250  0.27420  0.40410  1.0000 0.5410066079
C   C33       1.0  0.64430  0.44960  0.43280  1.0000 -0.0137904455
C   C34       1.0  0.60470  0.58360  0.37290  1.0000 -0.2059875299
C   C35       1.0  0.85640  0.78380  0.84320  1.0000 0.0814352342
C   C36       1.0  0.93080  0.79110  0.01810  1.0000 -0.1881123168
C   C37       1.0  0.92680  0.91880  0.88640  1.0000 -0.178370474
C   C38       1.0  0.96450  0.92610  0.97530  1.0000 0.1170661393
C   C39       1.0  0.86150  0.65970  0.97080  1.0000 0.0814352342
C   C40       1.0  0.37330  0.13640  0.95210  1.0000 -0.0192151373
C   C41       1.0  0.36370  0.16290  0.85730  1.0000 0.548264278
C   C42       1.0  0.42400  0.24370  0.09990  1.0000 0.248648716
C   C43       1.0  0.41290  0.27060  0.01240  1.0000 -0.1969548633
C   C44       1.0  0.34390  0.97750  0.97950  1.0000 -0.1367543658
C   C45       1.0  0.32750  0.77420  0.09590  1.0000 0.5410066079
C   C46       1.0  0.35570  0.94960  0.06720  1.0000 -0.0137904455
C   C47       1.0  0.39530  0.08360  0.12710  1.0000 -0.2059875299
C   C48       1.0  0.14360  0.28380  0.65680  1.0000 0.0814352342
C   C49       1.0  0.06920  0.29110  0.48190  1.0000 -0.1881123168
C   C50       1.0  0.07320  0.41880  0.61360  1.0000 -0.178370474
C   C51       1.0  0.03550  0.42610  0.52470  1.0000 0.1144340913
C   C52       1.0  0.13850  0.15970  0.52920  1.0000 0.0814352342
N   N1        1.0  0.45780  0.11730  0.66325  1.0000 -0.5821407606
N   N2        1.0  0.17700  0.34490  0.11590  1.0000 -0.2241210808
N   N3        1.0  0.54220  0.61730  0.83675  1.0000 -0.5821407606
N   N4        1.0  0.82300  0.84490  0.38410  1.0000 -0.2241210808
N   N5        1.0  0.54220  0.88270  0.33675  1.0000 -0.5821407606
N   N6        1.0  0.82300  0.65510  0.88410  1.0000 -0.2241210808
N   N7        1.0  0.45780  0.38270  0.16325  1.0000 -0.5821407606
N   N8        1.0  0.17700  0.15510  0.61590  1.0000 -0.2241210808
O   O1        1.0  0.34130  0.74880  0.67780  1.0000 -0.544517385
O   O2        1.0  0.32330  0.46750  0.30715  1.0000 -0.5651848634
O   O3        1.0  0.29460  0.84410  0.54262  1.0000 -0.5329271426
O   O4        1.0  0.39390  0.19840  0.33311  1.0000 -0.5476280492
O   O5        1.0  0.65870  0.24880  0.82220  1.0000 -0.5476280492
O   O6        1.0  0.67670  0.96750  0.19285  1.0000 -0.5651848634
O   O7        1.0  0.70540  0.34410  0.95738  1.0000 -0.5329271426
O   O8        1.0  0.60610  0.69840  0.16689  1.0000 -0.5476280492
O   O9        1.0  0.65870  0.25120  0.32220  1.0000 -0.5476280492
O   O10       1.0  0.67670  0.53250  0.69285  1.0000 -0.5651848634
O   O11       1.0  0.70540  0.15590  0.45738  1.0000 -0.5329271426
O   O12       1.0  0.60610  0.80160  0.66689  1.0000 -0.5476280492
O   O13       1.0  0.34130  0.75120  0.17780  1.0000 -0.5476280492
O   O14       1.0  0.32330  0.03250  0.80715  1.0000 -0.5651848634
O   O15       1.0  0.29460  0.65590  0.04262  1.0000 -0.5329271426
O   O16       1.0  0.39390  0.30160  0.83311  1.0000 -0.5476280492
