# DDEC6 charges by PACMAN v1.1 (https://github.com/mtap-research/PACMAN-charge/)
data_2017[CuNd][nan]3[ASR]1
_chemical_formula_sum              "Nd8 Cu16 H112 C168 I12 N28 O56"
_cell_length_a       9.375
_cell_length_b       22.981
_cell_length_c       31.16
_cell_angle_alpha    90
_cell_angle_beta     90
_cell_angle_gamma    90

_symmetry_space_group_name_H-M    "P 1"
_symmetry_Int_Tables_number       1

loop_
  _symmetry_equiv_pos_as_xyz
  'x, y, z'

loop_
  _atom_site_type_symbol
  _atom_site_label
  _atom_site_symmetry_multiplicity
  _atom_site_fract_x
  _atom_site_fract_y
  _atom_site_fract_z
  _atom_site_occupancy
  _atom_site_charge
Nd  Nd1       1.0  0.53864  0.44129  0.98475  1.0000 2.1969260685
Nd  Nd2       1.0  0.00733  0.47050  0.97797  1.0000 2.1969260685
Nd  Nd3       1.0  0.96136  0.55871  0.48475  1.0000 2.1969260685
Nd  Nd4       1.0  0.49267  0.52950  0.47797  1.0000 2.1969260685
Nd  Nd5       1.0  0.46136  0.94129  0.51525  1.0000 2.1969260685
Nd  Nd6       1.0  0.99267  0.97050  0.52203  1.0000 2.1969260685
Nd  Nd7       1.0  0.03864  0.05871  0.01525  1.0000 2.1969260685
Nd  Nd8       1.0  0.50733  0.02950  0.02203  1.0000 2.194959558
Cu  Cu1       1.0  0.51240  0.13997  0.75125  1.0000 0.2002084045
Cu  Cu2       1.0  0.04040  0.38337  0.72485  1.0000 0.1917596957
Cu  Cu3       1.0  0.71680  0.26593  0.68128  1.0000 0.2002084045
Cu  Cu4       1.0  0.74400  0.21625  0.76040  1.0000 0.1917596957
Cu  Cu5       1.0  0.98760  0.86003  0.25125  1.0000 0.2002084045
Cu  Cu6       1.0  0.45960  0.61663  0.22485  1.0000 0.1917596957
Cu  Cu7       1.0  0.78320  0.73407  0.18128  1.0000 0.2002084045
Cu  Cu8       1.0  0.75600  0.78375  0.26040  1.0000 0.1917596957
Cu  Cu9       1.0  0.48760  0.63997  0.74875  1.0000 0.2002084045
Cu  Cu10      1.0  0.95960  0.88337  0.77515  1.0000 0.1917596957
Cu  Cu11      1.0  0.28320  0.76593  0.81872  1.0000 0.2002084045
Cu  Cu12      1.0  0.25600  0.71625  0.73960  1.0000 0.1917596957
Cu  Cu13      1.0  0.01240  0.36003  0.24875  1.0000 0.2002084045
Cu  Cu14      1.0  0.54040  0.11663  0.27515  1.0000 0.1917596957
Cu  Cu15      1.0  0.21680  0.23407  0.31872  1.0000 0.2002084045
Cu  Cu16      1.0  0.24400  0.28375  0.23960  1.0000 0.1917596957
H   H1        1.0  0.58090  0.31150  0.89780  1.0000 0.1389967347
H   H2        1.0  0.00110  0.31960  0.87840  1.0000 0.1323455741
H   H3        1.0  0.11470  0.39090  0.16150  1.0000 0.1014354293
H   H4        1.0  0.77750  0.62790  0.78960  1.0000 0.1081508523
H   H5        1.0  0.09890  0.59130  0.89790  1.0000 0.1389967347
H   H6        1.0  0.49540  0.70310  0.87370  1.0000 0.0897565249
H   H7        1.0  0.89550  0.57650  0.84170  1.0000 0.1389967347
H   H8        1.0  0.11160  0.48030  0.86390  1.0000 0.1389967347
H   H9        1.0  0.03130  0.47050  0.79620  1.0000 0.1081508523
H   H10       1.0  0.06310  0.54680  0.62070  1.0000 0.1475904802
H   H11       1.0  0.97150  0.25860  0.82140  1.0000 0.1014354293
H   H12       1.0  0.52220  0.50110  0.87130  1.0000 0.1475904802
H   H13       1.0  0.03540  0.41500  0.09450  1.0000 0.1475904802
H   H14       1.0  0.55680  0.26000  0.83300  1.0000 0.0897565249
H   H15       1.0  0.42190  0.55090  0.81570  1.0000 0.1014354293
H   H16       1.0  0.33940  0.33370  0.85030  1.0000 0.1389967347
H   H17       1.0  0.10060  0.66650  0.84880  1.0000 0.1014354293
H   H18       1.0  0.24490  0.36690  0.65190  1.0000 0.1081508523
H   H19       1.0  0.99910  0.49400  0.68110  1.0000 0.1081508523
H   H20       1.0  0.24260  0.32330  0.78460  1.0000 0.1014354293
H   H21       1.0  0.51080  0.62800  0.92220  1.0000 0.1389967347
H   H22       1.0  0.92050  0.34900  0.64000  1.0000 0.0897565249
H   H23       1.0  0.93960  0.40960  0.58150  1.0000 0.1323455741
H   H24       1.0  0.51790  0.32010  0.61480  1.0000 0.1014354293
H   H25       1.0  0.65090  0.35560  0.12910  1.0000 0.1389967347
H   H26       1.0  0.31570  0.41180  0.59020  1.0000 0.1323455741
H   H27       1.0  0.74010  0.33370  0.19520  1.0000 0.1014354293
H   H28       1.0  0.52890  0.37790  0.55300  1.0000 0.1389967347
H   H29       1.0  0.91910  0.68850  0.39780  1.0000 0.1389967347
H   H30       1.0  0.49890  0.68040  0.37840  1.0000 0.1323455741
H   H31       1.0  0.38530  0.60910  0.66150  1.0000 0.1014354293
H   H32       1.0  0.72250  0.37210  0.28960  1.0000 0.1081508523
H   H33       1.0  0.40110  0.40870  0.39790  1.0000 0.1389967347
H   H34       1.0  0.00460  0.29690  0.37370  1.0000 0.0897565249
H   H35       1.0  0.60450  0.42350  0.34170  1.0000 0.1389967347
H   H36       1.0  0.38840  0.51970  0.36390  1.0000 0.1389967347
H   H37       1.0  0.46870  0.52950  0.29620  1.0000 0.1081508523
H   H38       1.0  0.43690  0.45320  0.12070  1.0000 0.1475904802
H   H39       1.0  0.52850  0.74140  0.32140  1.0000 0.1014354293
H   H40       1.0  0.97780  0.49890  0.37130  1.0000 0.1475904802
H   H41       1.0  0.46460  0.58500  0.59450  1.0000 0.1475904802
H   H42       1.0  0.94320  0.74000  0.33300  1.0000 0.0897565249
H   H43       1.0  0.07810  0.44910  0.31570  1.0000 0.1014354293
H   H44       1.0  0.16060  0.66630  0.35030  1.0000 0.1389967347
H   H45       1.0  0.39940  0.33350  0.34880  1.0000 0.1014354293
H   H46       1.0  0.25510  0.63310  0.15190  1.0000 0.1081508523
H   H47       1.0  0.50090  0.50600  0.18110  1.0000 0.1081508523
H   H48       1.0  0.25740  0.67670  0.28460  1.0000 0.1014354293
H   H49       1.0  0.98920  0.37200  0.42220  1.0000 0.1389967347
H   H50       1.0  0.57950  0.65100  0.14000  1.0000 0.0897565249
H   H51       1.0  0.56040  0.59040  0.08150  1.0000 0.1323455741
H   H52       1.0  0.98210  0.67990  0.11480  1.0000 0.1014354293
H   H53       1.0  0.84910  0.64440  0.62910  1.0000 0.1389967347
H   H54       1.0  0.18430  0.58820  0.09020  1.0000 0.1323455741
H   H55       1.0  0.75990  0.66630  0.69520  1.0000 0.1014354293
H   H56       1.0  0.97110  0.62210  0.05300  1.0000 0.1389967347
H   H57       1.0  0.41910  0.81150  0.60220  1.0000 0.1389967347
H   H58       1.0  0.99890  0.81960  0.62160  1.0000 0.1323455741
H   H59       1.0  0.88530  0.89090  0.33850  1.0000 0.1014354293
H   H60       1.0  0.22250  0.12790  0.71040  1.0000 0.1081508523
H   H61       1.0  0.90110  0.09130  0.60210  1.0000 0.1389967347
H   H62       1.0  0.50460  0.20310  0.62630  1.0000 0.0897565249
H   H63       1.0  0.10450  0.07650  0.65830  1.0000 0.1389967347
H   H64       1.0  0.88840  0.98030  0.63610  1.0000 0.1389967347
H   H65       1.0  0.96870  0.97050  0.70380  1.0000 0.1081508523
H   H66       1.0  0.93690  0.04680  0.87930  1.0000 0.1475904802
H   H67       1.0  0.02850  0.75860  0.67860  1.0000 0.1014354293
H   H68       1.0  0.47780  0.00110  0.62870  1.0000 0.1475904802
H   H69       1.0  0.96460  0.91500  0.40550  1.0000 0.1475904802
H   H70       1.0  0.44320  0.76000  0.66700  1.0000 0.0897565249
H   H71       1.0  0.57810  0.05090  0.68430  1.0000 0.1014354293
H   H72       1.0  0.66060  0.83370  0.64970  1.0000 0.1389967347
H   H73       1.0  0.89940  0.16650  0.65120  1.0000 0.1014354293
H   H74       1.0  0.75510  0.86690  0.84810  1.0000 0.1081508523
H   H75       1.0  0.00090  0.99400  0.81890  1.0000 0.1081508523
H   H76       1.0  0.75740  0.82330  0.71540  1.0000 0.1014354293
H   H77       1.0  0.48920  0.12800  0.57780  1.0000 0.1389967347
H   H78       1.0  0.07950  0.84900  0.86000  1.0000 0.0897565249
H   H79       1.0  0.06040  0.90960  0.91850  1.0000 0.1323455741
H   H80       1.0  0.48210  0.82010  0.88520  1.0000 0.1014354293
H   H81       1.0  0.34910  0.85560  0.37090  1.0000 0.1389967347
H   H82       1.0  0.68430  0.91180  0.90980  1.0000 0.1323455741
H   H83       1.0  0.25990  0.83370  0.30480  1.0000 0.1014354293
H   H84       1.0  0.47110  0.87790  0.94700  1.0000 0.1389967347
H   H85       1.0  0.08090  0.18850  0.10220  1.0000 0.1389967347
H   H86       1.0  0.50110  0.18040  0.12160  1.0000 0.1323455741
H   H87       1.0  0.61470  0.10910  0.83850  1.0000 0.1014354293
H   H88       1.0  0.27750  0.87210  0.21040  1.0000 0.1081508523
H   H89       1.0  0.59890  0.90870  0.10210  1.0000 0.1389967347
H   H90       1.0  0.99540  0.79690  0.12630  1.0000 0.0897565249
H   H91       1.0  0.39550  0.92350  0.15830  1.0000 0.1389967347
H   H92       1.0  0.61160  0.01970  0.13610  1.0000 0.1389967347
H   H93       1.0  0.53130  0.02950  0.20380  1.0000 0.1081508523
H   H94       1.0  0.56310  0.95320  0.37930  1.0000 0.1475904802
H   H95       1.0  0.47150  0.24140  0.17860  1.0000 0.1014354293
H   H96       1.0  0.02220  0.99890  0.12870  1.0000 0.1475904802
H   H97       1.0  0.53540  0.08500  0.90550  1.0000 0.1475904802
H   H98       1.0  0.05680  0.24000  0.16700  1.0000 0.0897565249
H   H99       1.0  0.92190  0.94910  0.18430  1.0000 0.1014354293
H   H100      1.0  0.83940  0.16630  0.14970  1.0000 0.1389967347
H   H101      1.0  0.60060  0.83350  0.15120  1.0000 0.1014354293
H   H102      1.0  0.74490  0.13310  0.34810  1.0000 0.1081508523
H   H103      1.0  0.49910  0.00600  0.31890  1.0000 0.1081508523
H   H104      1.0  0.74260  0.17670  0.21540  1.0000 0.1014354293
H   H105      1.0  0.01080  0.87200  0.07780  1.0000 0.1389967347
H   H106      1.0  0.42050  0.15100  0.36000  1.0000 0.0897565249
H   H107      1.0  0.43960  0.09040  0.41850  1.0000 0.1323455741
H   H108      1.0  0.01790  0.17990  0.38520  1.0000 0.1014354293
H   H109      1.0  0.15090  0.14440  0.87090  1.0000 0.1389967347
H   H110      1.0  0.81570  0.08820  0.40980  1.0000 0.1323455741
H   H111      1.0  0.24010  0.16630  0.80480  1.0000 0.1014354293
H   H112      1.0  0.02890  0.12210  0.44700  1.0000 0.1389967347
C   C1        1.0  0.80320  0.36020  0.93530  1.0000 0.6384956198
C   C2        1.0  0.77490  0.40550  0.05880  1.0000 0.6312275598
C   C3        1.0  0.23590  0.51520  0.55740  1.0000 0.6384956198
C   C4        1.0  0.74190  0.44640  0.52640  1.0000 0.6384956198
C   C5        1.0  0.73340  0.40540  0.56340  1.0000 0.0091975604
C   C6        1.0  0.66090  0.30340  0.88120  1.0000 -0.1409992283
C   C7        1.0  0.91050  0.30700  0.87060  1.0000 -0.1508077146
C   C8        1.0  0.01860  0.38540  0.15520  1.0000 0.0634277713
C   C9        1.0  0.19830  0.48340  0.59710  1.0000 0.0091975604
C   C10       1.0  0.72700  0.60060  0.80570  1.0000 0.0502041706
C   C11       1.0  0.30160  0.55520  0.95050  1.0000 0.6384956198
C   C12       1.0  0.18080  0.61360  0.89400  1.0000 -0.1591229422
C   C13       1.0  0.23830  0.40910  0.86710  1.0000 0.0091975604
C   C14       1.0  0.41520  0.68020  0.87850  1.0000 0.067556447
C   C15       1.0  0.79760  0.57220  0.83820  1.0000 -0.1508077146
C   C16       1.0  0.29680  0.41770  0.91050  1.0000 0.6155925165
C   C17       1.0  0.14170  0.44830  0.84790  1.0000 -0.1508077146
C   C18       1.0  0.09050  0.44200  0.80770  1.0000 0.0502041706
C   C19       1.0  0.10100  0.51000  0.62580  1.0000 -0.1722591322
C   C20       1.0  0.89030  0.27140  0.83580  1.0000 0.0634277713
C   C21       1.0  0.72110  0.53730  0.86550  1.0000 0.0279335835
C   C22       1.0  0.57660  0.52710  0.85520  1.0000 -0.1508077146
C   C23       1.0  0.79190  0.32340  0.89370  1.0000 0.0238335663
C   C24       1.0  0.30350  0.60240  0.91760  1.0000 0.0091975604
C   C25       1.0  0.97260  0.39900  0.11440  1.0000 -0.1409992283
C   C26       1.0  0.64700  0.27020  0.84290  1.0000 0.067556447
C   C27       1.0  0.51850  0.55630  0.82120  1.0000 0.0784338769
C   C28       1.0  0.27490  0.36140  0.84050  1.0000 -0.1591229422
C   C29       1.0  0.18350  0.65890  0.86420  1.0000 0.0784338769
C   C30       1.0  0.20630  0.40310  0.64540  1.0000 0.0502041706
C   C31       1.0  0.06400  0.47720  0.66230  1.0000 0.0784338769
C   C32       1.0  0.21710  0.35560  0.80090  1.0000 0.067556447
C   C33       1.0  0.42480  0.63560  0.90840  1.0000 -0.1508077146
C   C34       1.0  0.84000  0.35550  0.62310  1.0000 0.067556447
C   C35       1.0  0.78740  0.50870  0.90540  1.0000 0.6130454311
C   C36       1.0  0.85200  0.39290  0.58820  1.0000 -0.1409992283
C   C37       1.0  0.60370  0.33820  0.60800  1.0000 0.067556447
C   C38       1.0  0.74580  0.36400  0.13510  1.0000 -0.1591229422
C   C39       1.0  0.83130  0.38870  0.10340  1.0000 0.0279335835
C   C40       1.0  0.25010  0.43020  0.60800  1.0000 -0.1508077146
C   C41       1.0  0.79920  0.35160  0.17520  1.0000 0.0502041706
C   C42       1.0  0.60720  0.37460  0.57120  1.0000 -0.1591229422
C   C43       1.0  0.69680  0.63980  0.43530  1.0000 0.6384956198
C   C44       1.0  0.72510  0.59450  0.55880  1.0000 0.6312275598
C   C45       1.0  0.26410  0.48480  0.05740  1.0000 0.6384956198
C   C46       1.0  0.75810  0.55360  0.02640  1.0000 0.6384956198
C   C47       1.0  0.76660  0.59460  0.06340  1.0000 0.0091975604
C   C48       1.0  0.83910  0.69660  0.38120  1.0000 -0.1409992283
C   C49       1.0  0.58950  0.69300  0.37060  1.0000 -0.1508077146
C   C50       1.0  0.48140  0.61460  0.65520  1.0000 0.0634277713
C   C51       1.0  0.30170  0.51660  0.09710  1.0000 0.0091975604
C   C52       1.0  0.77300  0.39940  0.30570  1.0000 0.0502041706
C   C53       1.0  0.19840  0.44480  0.45050  1.0000 0.6384956198
C   C54       1.0  0.31920  0.38640  0.39400  1.0000 -0.1591229422
C   C55       1.0  0.26170  0.59090  0.36710  1.0000 0.0091975604
C   C56       1.0  0.08480  0.31980  0.37850  1.0000 0.067556447
C   C57       1.0  0.70240  0.42780  0.33820  1.0000 -0.1508077146
C   C58       1.0  0.20320  0.58230  0.41050  1.0000 0.6155925165
C   C59       1.0  0.35830  0.55170  0.34790  1.0000 -0.1508077146
C   C60       1.0  0.40950  0.55800  0.30770  1.0000 0.0502041706
C   C61       1.0  0.39900  0.49000  0.12580  1.0000 -0.1722591322
C   C62       1.0  0.60970  0.72860  0.33580  1.0000 0.067556447
C   C63       1.0  0.77890  0.46270  0.36550  1.0000 0.0279335835
C   C64       1.0  0.92340  0.47290  0.35520  1.0000 -0.1508077146
C   C65       1.0  0.70810  0.67660  0.39370  1.0000 0.0238335663
C   C66       1.0  0.19650  0.39760  0.41760  1.0000 0.0091975604
C   C67       1.0  0.52740  0.60100  0.61440  1.0000 -0.1409992283
C   C68       1.0  0.85300  0.72980  0.34290  1.0000 0.067556447
C   C69       1.0  0.98150  0.44370  0.32120  1.0000 0.0784338769
C   C70       1.0  0.22510  0.63860  0.34050  1.0000 -0.1591229422
C   C71       1.0  0.31650  0.34110  0.36420  1.0000 0.0784338769
C   C72       1.0  0.29370  0.59690  0.14540  1.0000 0.0502041706
C   C73       1.0  0.43600  0.52280  0.16230  1.0000 0.0784338769
C   C74       1.0  0.28290  0.64440  0.30090  1.0000 0.067556447
C   C75       1.0  0.07520  0.36440  0.40840  1.0000 -0.1508077146
C   C76       1.0  0.66000  0.64450  0.12310  1.0000 0.067556447
C   C77       1.0  0.71260  0.49130  0.40540  1.0000 0.6130454311
C   C78       1.0  0.64800  0.60710  0.08820  1.0000 -0.1409992283
C   C79       1.0  0.89630  0.66180  0.10800  1.0000 0.067556447
C   C80       1.0  0.75420  0.63600  0.63510  1.0000 -0.1591229422
C   C81       1.0  0.66870  0.61130  0.60340  1.0000 0.0279335835
C   C82       1.0  0.24990  0.56980  0.10800  1.0000 -0.1508077146
C   C83       1.0  0.70080  0.64840  0.67520  1.0000 0.0502041706
C   C84       1.0  0.89280  0.62540  0.07120  1.0000 -0.1591229422
C   C85       1.0  0.19680  0.86020  0.56470  1.0000 0.6384956198
C   C86       1.0  0.22510  0.90550  0.44120  1.0000 0.6312275598
C   C87       1.0  0.76410  0.01520  0.94260  1.0000 0.6384956198
C   C88       1.0  0.25810  0.94640  0.97360  1.0000 0.6384956198
C   C89       1.0  0.26660  0.90540  0.93660  1.0000 0.0091975604
C   C90       1.0  0.33910  0.80340  0.61880  1.0000 -0.1409992283
C   C91       1.0  0.08950  0.80700  0.62940  1.0000 -0.1508077146
C   C92       1.0  0.98140  0.88540  0.34480  1.0000 0.0634277713
C   C93       1.0  0.80170  0.98340  0.90290  1.0000 0.0091975604
C   C94       1.0  0.27300  0.10060  0.69430  1.0000 0.0502041706
C   C95       1.0  0.69840  0.05520  0.54950  1.0000 0.6384956198
C   C96       1.0  0.81920  0.11360  0.60600  1.0000 -0.1591229422
C   C97       1.0  0.76170  0.90910  0.63290  1.0000 0.0091975604
C   C98       1.0  0.58480  0.18020  0.62150  1.0000 0.067556447
C   C99       1.0  0.20240  0.07220  0.66180  1.0000 -0.1508077146
C   C100      1.0  0.70320  0.91770  0.58950  1.0000 0.6155925165
C   C101      1.0  0.85830  0.94830  0.65210  1.0000 -0.1508077146
C   C102      1.0  0.90950  0.94200  0.69230  1.0000 0.0502041706
C   C103      1.0  0.89900  0.01000  0.87420  1.0000 -0.1591229422
C   C104      1.0  0.10970  0.77140  0.66420  1.0000 0.0634277713
C   C105      1.0  0.27890  0.03730  0.63450  1.0000 0.0279335835
C   C106      1.0  0.42340  0.02710  0.64480  1.0000 -0.1508077146
C   C107      1.0  0.20810  0.82340  0.60630  1.0000 0.0238335663
C   C108      1.0  0.69650  0.10240  0.58240  1.0000 0.0091975604
C   C109      1.0  0.02740  0.89900  0.38560  1.0000 -0.1409992283
C   C110      1.0  0.35300  0.77020  0.65710  1.0000 0.067556447
C   C111      1.0  0.48150  0.05630  0.67880  1.0000 0.0784338769
C   C112      1.0  0.72510  0.86140  0.65950  1.0000 -0.1591229422
C   C113      1.0  0.81650  0.15890  0.63580  1.0000 0.0784338769
C   C114      1.0  0.79370  0.90310  0.85460  1.0000 0.0502041706
C   C115      1.0  0.93600  0.97720  0.83770  1.0000 0.0784338769
C   C116      1.0  0.78290  0.85560  0.69910  1.0000 0.067556447
C   C117      1.0  0.57520  0.13560  0.59160  1.0000 -0.1508077146
C   C118      1.0  0.16000  0.85550  0.87690  1.0000 0.067556447
C   C119      1.0  0.21260  0.00870  0.59460  1.0000 0.6130454311
C   C120      1.0  0.14800  0.89290  0.91180  1.0000 -0.1409992283
C   C121      1.0  0.39630  0.83820  0.89200  1.0000 0.067556447
C   C122      1.0  0.25420  0.86400  0.36490  1.0000 -0.1591229422
C   C123      1.0  0.16870  0.88870  0.39660  1.0000 0.0279335835
C   C124      1.0  0.74990  0.93020  0.89200  1.0000 -0.1508077146
C   C125      1.0  0.20080  0.85160  0.32480  1.0000 0.0502041706
C   C126      1.0  0.39280  0.87460  0.92880  1.0000 -0.1591229422
C   C127      1.0  0.30320  0.13980  0.06470  1.0000 0.6384956198
C   C128      1.0  0.27490  0.09450  0.94120  1.0000 0.6312275598
C   C129      1.0  0.73590  0.98480  0.44260  1.0000 0.6384956198
C   C130      1.0  0.24190  0.05360  0.47360  1.0000 0.6384956198
C   C131      1.0  0.23340  0.09460  0.43660  1.0000 0.0091975604
C   C132      1.0  0.16090  0.19660  0.11880  1.0000 -0.1409992283
C   C133      1.0  0.41050  0.19300  0.12940  1.0000 -0.1508077146
C   C134      1.0  0.51860  0.11460  0.84480  1.0000 0.0634277713
C   C135      1.0  0.69830  0.01660  0.40290  1.0000 0.0091975604
C   C136      1.0  0.22700  0.89940  0.19430  1.0000 0.0502041706
C   C137      1.0  0.80160  0.94480  0.04950  1.0000 0.6384956198
C   C138      1.0  0.68080  0.88640  0.10600  1.0000 -0.1591229422
C   C139      1.0  0.73830  0.09090  0.13290  1.0000 0.0091975604
C   C140      1.0  0.91520  0.81980  0.12150  1.0000 0.067556447
C   C141      1.0  0.29760  0.92780  0.16180  1.0000 -0.1508077146
C   C142      1.0  0.79680  0.08230  0.08950  1.0000 0.6155925165
C   C143      1.0  0.64170  0.05170  0.15210  1.0000 -0.1508077146
C   C144      1.0  0.59050  0.05800  0.19230  1.0000 0.0502041706
C   C145      1.0  0.60100  0.99000  0.37420  1.0000 -0.1722591322
C   C146      1.0  0.39030  0.22860  0.16420  1.0000 0.0634277713
C   C147      1.0  0.22110  0.96270  0.13450  1.0000 0.0279335835
C   C148      1.0  0.07660  0.97290  0.14480  1.0000 -0.1508077146
C   C149      1.0  0.29190  0.17660  0.10630  1.0000 0.0238335663
C   C150      1.0  0.80350  0.89760  0.08240  1.0000 0.0091975604
C   C151      1.0  0.47260  0.10100  0.88560  1.0000 -0.1409992283
C   C152      1.0  0.14700  0.22980  0.15710  1.0000 0.067556447
C   C153      1.0  0.01850  0.94370  0.17880  1.0000 0.0784338769
C   C154      1.0  0.77490  0.13860  0.15950  1.0000 -0.1591229422
C   C155      1.0  0.68350  0.84110  0.13580  1.0000 0.0784338769
C   C156      1.0  0.70630  0.09690  0.35460  1.0000 0.0502041706
C   C157      1.0  0.56400  0.02280  0.33770  1.0000 0.0784338769
C   C158      1.0  0.71710  0.14440  0.19910  1.0000 0.067556447
C   C159      1.0  0.92480  0.86440  0.09160  1.0000 -0.1508077146
C   C160      1.0  0.34000  0.14450  0.37690  1.0000 0.067556447
C   C161      1.0  0.28740  0.99130  0.09460  1.0000 0.6130454311
C   C162      1.0  0.35200  0.10710  0.41180  1.0000 -0.1409992283
C   C163      1.0  0.10370  0.16180  0.39200  1.0000 0.067556447
C   C164      1.0  0.24580  0.13600  0.86490  1.0000 -0.1591229422
C   C165      1.0  0.33130  0.11130  0.89660  1.0000 0.0279335835
C   C166      1.0  0.75010  0.06980  0.39200  1.0000 -0.1508077146
C   C167      1.0  0.29920  0.14840  0.82480  1.0000 0.0502041706
C   C168      1.0  0.10720  0.12540  0.42880  1.0000 -0.1591229422
I   I1        1.0  0.48584  0.25502  0.72939  1.0000 -0.4057281842
I   I2        1.0  0.97431  0.27069  0.71749  1.0000 -0.4057281842
I   I3        1.0  0.79049  0.10528  0.75384  1.0000 -0.4453799059
I   I4        1.0  0.01416  0.74498  0.22939  1.0000 -0.4057281842
I   I5        1.0  0.52569  0.72931  0.21749  1.0000 -0.4057281842
I   I6        1.0  0.70951  0.89472  0.25384  1.0000 -0.4439125886
I   I7        1.0  0.51416  0.75502  0.77061  1.0000 -0.403949224
I   I8        1.0  0.02569  0.77069  0.78251  1.0000 -0.4057281842
I   I9        1.0  0.20951  0.60528  0.74616  1.0000 -0.4453799059
I   I10       1.0  0.98584  0.24498  0.27061  1.0000 -0.403949224
I   I11       1.0  0.47431  0.22931  0.28251  1.0000 -0.4057281842
I   I12       1.0  0.29049  0.39472  0.24616  1.0000 -0.4439125886
N   N1        1.0  0.58960  0.59140  0.79570  1.0000 -0.1722591322
N   N2        1.0  0.29740  0.69190  0.85650  1.0000 -0.1858221018
N   N3        1.0  0.93510  0.36470  0.18660  1.0000 -0.1858221018
N   N4        1.0  0.71690  0.32820  0.63360  1.0000 -0.1807246867
N   N5        1.0  0.76420  0.25340  0.82060  1.0000 -0.1722591322
N   N6        1.0  0.12460  0.39400  0.78360  1.0000 -0.1722591322
N   N7        1.0  0.11220  0.42580  0.67270  1.0000 -0.1807246867
N   N8        1.0  0.91040  0.40860  0.29570  1.0000 -0.1722591322
N   N9        1.0  0.20260  0.30810  0.35650  1.0000 -0.1858221018
N   N10       1.0  0.56490  0.63530  0.68660  1.0000 -0.1858221018
N   N11       1.0  0.78310  0.67180  0.13360  1.0000 -0.1807246867
N   N12       1.0  0.73580  0.74660  0.32060  1.0000 -0.1722591322
N   N13       1.0  0.37540  0.60600  0.28360  1.0000 -0.1722591322
N   N14       1.0  0.38780  0.57420  0.17270  1.0000 -0.1807246867
N   N15       1.0  0.41040  0.09140  0.70430  1.0000 -0.1722591322
N   N16       1.0  0.70260  0.19190  0.64350  1.0000 -0.1858221018
N   N17       1.0  0.06490  0.86470  0.31340  1.0000 -0.1858221018
N   N18       1.0  0.28310  0.82820  0.86640  1.0000 -0.1807246867
N   N19       1.0  0.23580  0.75340  0.67940  1.0000 -0.1722591322
N   N20       1.0  0.87540  0.89400  0.71640  1.0000 -0.1722591322
N   N21       1.0  0.88780  0.92580  0.82730  1.0000 -0.1807246867
N   N22       1.0  0.08960  0.90860  0.20430  1.0000 -0.1807246867
N   N23       1.0  0.79740  0.80810  0.14350  1.0000 -0.1858221018
N   N24       1.0  0.43510  0.13530  0.81340  1.0000 -0.1858221018
N   N25       1.0  0.21690  0.17180  0.36640  1.0000 -0.1807246867
N   N26       1.0  0.26420  0.24660  0.17940  1.0000 -0.1722591322
N   N27       1.0  0.62460  0.10600  0.21640  1.0000 -0.1722591322
N   N28       1.0  0.61220  0.07420  0.32730  1.0000 -0.1807246867
O   O1        1.0  0.64270  0.40170  0.05240  1.0000 -0.6502512454
O   O2        1.0  0.69540  0.36480  0.95760  1.0000 -0.631741338
O   O3        1.0  0.43000  0.41040  0.91520  1.0000 -0.6571754957
O   O4        1.0  0.92560  0.38290  0.94140  1.0000 -0.6693812093
O   O5        1.0  0.18190  0.54450  0.96680  1.0000 -0.6571754957
O   O6        1.0  0.70900  0.48180  0.93170  1.0000 -0.6885743221
O   O7        1.0  0.14060  0.54090  0.53700  1.0000 -0.6571754957
O   O8        1.0  0.41800  0.52920  0.95750  1.0000 -0.6502512454
O   O9        1.0  0.91950  0.51530  0.91050  1.0000 -0.6502512454
O   O10       1.0  0.85490  0.47590  0.52250  1.0000 -0.6571754957
O   O11       1.0  0.63090  0.45230  0.50370  1.0000 -0.6693812093
O   O12       1.0  0.20970  0.43040  0.94070  1.0000 -0.7100647768
O   O13       1.0  0.36960  0.51470  0.54660  1.0000 -0.6885743221
O   O14       1.0  0.86670  0.42190  0.03190  1.0000 -0.698904865
O   O15       1.0  0.85730  0.59830  0.55240  1.0000 -0.6502512454
O   O16       1.0  0.80460  0.63520  0.45760  1.0000 -0.631741338
O   O17       1.0  0.07000  0.58960  0.41520  1.0000 -0.6571754957
O   O18       1.0  0.57440  0.61710  0.44140  1.0000 -0.6693812093
O   O19       1.0  0.31810  0.45550  0.46680  1.0000 -0.6571754957
O   O20       1.0  0.79100  0.51820  0.43170  1.0000 -0.6885743221
O   O21       1.0  0.35940  0.45910  0.03700  1.0000 -0.6571754957
O   O22       1.0  0.08200  0.47080  0.45750  1.0000 -0.6502512454
O   O23       1.0  0.58050  0.48470  0.41050  1.0000 -0.6502512454
O   O24       1.0  0.64510  0.52410  0.02250  1.0000 -0.6571754957
O   O25       1.0  0.86910  0.54770  0.00370  1.0000 -0.6693812093
O   O26       1.0  0.29030  0.56960  0.44070  1.0000 -0.7100647768
O   O27       1.0  0.13040  0.48530  0.04660  1.0000 -0.6885743221
O   O28       1.0  0.63330  0.57810  0.53190  1.0000 -0.698904865
O   O29       1.0  0.35730  0.90170  0.44760  1.0000 -0.6502512454
O   O30       1.0  0.30460  0.86480  0.54240  1.0000 -0.631741338
O   O31       1.0  0.57000  0.91040  0.58480  1.0000 -0.6502512454
O   O32       1.0  0.07440  0.88290  0.55860  1.0000 -0.6693812093
O   O33       1.0  0.81810  0.04450  0.53320  1.0000 -0.6571754957
O   O34       1.0  0.29100  0.98180  0.56830  1.0000 -0.6885743221
O   O35       1.0  0.85940  0.04090  0.96300  1.0000 -0.6571754957
O   O36       1.0  0.58200  0.02920  0.54250  1.0000 -0.6502512454
O   O37       1.0  0.08050  0.01530  0.58950  1.0000 -0.6502512454
O   O38       1.0  0.14510  0.97590  0.97750  1.0000 -0.6571754957
O   O39       1.0  0.36910  0.95230  0.99630  1.0000 -0.6693812093
O   O40       1.0  0.79030  0.93040  0.55930  1.0000 -0.7100647768
O   O41       1.0  0.63040  0.01470  0.95340  1.0000 -0.6885743221
O   O42       1.0  0.13330  0.92190  0.46810  1.0000 -0.698904865
O   O43       1.0  0.14270  0.09830  0.94760  1.0000 -0.6502512454
O   O44       1.0  0.19540  0.13520  0.04240  1.0000 -0.631741338
O   O45       1.0  0.93000  0.08960  0.08480  1.0000 -0.6502512454
O   O46       1.0  0.42560  0.11710  0.05860  1.0000 -0.6693812093
O   O47       1.0  0.68190  0.95550  0.03320  1.0000 -0.6571754957
O   O48       1.0  0.20900  0.01820  0.06830  1.0000 -0.6885743221
O   O49       1.0  0.64060  0.95910  0.46300  1.0000 -0.6571754957
O   O50       1.0  0.91800  0.97080  0.04250  1.0000 -0.6502512454
O   O51       1.0  0.41950  0.98470  0.08950  1.0000 -0.6502512454
O   O52       1.0  0.35490  0.02410  0.47750  1.0000 -0.6571754957
O   O53       1.0  0.13090  0.04770  0.49630  1.0000 -0.6693812093
O   O54       1.0  0.70970  0.06960  0.05930  1.0000 -0.7100647768
O   O55       1.0  0.86960  0.98530  0.45340  1.0000 -0.6885743221
O   O56       1.0  0.36670  0.07810  0.96810  1.0000 -0.698904865
