# DDEC6 charges by PACMAN v1.1 (https://github.com/mtap-research/PACMAN-charge/)
data_2017[Cd][hcb]2[ASR]3
_chemical_formula_sum              "Cd4 H108 C72 S12 N24 Cl4"
_cell_length_a       14.0587
_cell_length_b       14.0587
_cell_length_c       15.964
_cell_angle_alpha    90
_cell_angle_beta     90
_cell_angle_gamma    120

_symmetry_space_group_name_H-M    "P 1"
_symmetry_Int_Tables_number       1

loop_
  _symmetry_equiv_pos_as_xyz
  'x, y, z'

loop_
  _atom_site_type_symbol
  _atom_site_label
  _atom_site_symmetry_multiplicity
  _atom_site_fract_x
  _atom_site_fract_y
  _atom_site_fract_z
  _atom_site_occupancy
  _atom_site_charge
Cd  Cd1       1.0  0.33333  0.66667  0.08485  1.0000 0.5443131847
Cd  Cd2       1.0  0.66667  0.33333  0.41515  1.0000 0.5443131847
Cd  Cd3       1.0  0.66667  0.33333  0.91515  1.0000 0.5443131847
Cd  Cd4       1.0  0.33333  0.66667  0.58485  1.0000 0.5443131847
H   H1        1.0  0.08030  0.86070  0.06020  1.0000 0.1184124752
H   H2        1.0  0.07980  0.82910  0.90760  1.0000 0.1184124752
H   H3        1.0  0.95920  0.70590  0.18310  1.0000 0.091839142
H   H4        1.0  0.95500  0.59000  0.18320  1.0000 0.1184124752
H   H5        1.0  0.15700  0.79530  0.18850  1.0000 0.1056479021
H   H6        1.0  0.14720  0.67730  0.17870  1.0000 0.1056479021
H   H7        1.0  0.17790  0.64500  0.85990  1.0000 0.144175194
H   H8        1.0  0.12620  0.71050  0.81500  1.0000 0.1311290225
H   H9        1.0  0.04770  0.58840  0.84880  1.0000 0.1311290225
H   H10       1.0  0.13930  0.21960  0.06020  1.0000 0.1184124752
H   H11       1.0  0.17090  0.25070  0.90760  1.0000 0.1184124752
H   H12       1.0  0.29410  0.25330  0.18310  1.0000 0.091839142
H   H13       1.0  0.41000  0.36500  0.18320  1.0000 0.1184124752
H   H14       1.0  0.20470  0.36170  0.18850  1.0000 0.1056479021
H   H15       1.0  0.32270  0.46990  0.17870  1.0000 0.1056479021
H   H16       1.0  0.35500  0.53290  0.85990  1.0000 0.144175194
H   H17       1.0  0.28950  0.41570  0.81500  1.0000 0.1311290225
H   H18       1.0  0.41160  0.45930  0.84880  1.0000 0.1311290225
H   H19       1.0  0.78040  0.91970  0.06020  1.0000 0.1184124752
H   H20       1.0  0.74930  0.92020  0.90760  1.0000 0.1184124752
H   H21       1.0  0.74670  0.04080  0.18310  1.0000 0.091839142
H   H22       1.0  0.63500  0.04500  0.18320  1.0000 0.1184124752
H   H23       1.0  0.63830  0.84300  0.18850  1.0000 0.1056479021
H   H24       1.0  0.53010  0.85280  0.17870  1.0000 0.1056479021
H   H25       1.0  0.46710  0.82210  0.85990  1.0000 0.144175194
H   H26       1.0  0.58430  0.87380  0.81500  1.0000 0.1311290225
H   H27       1.0  0.54070  0.95230  0.84880  1.0000 0.1311290225
H   H28       1.0  0.86070  0.08030  0.43980  1.0000 0.1184124752
H   H29       1.0  0.82910  0.07980  0.59240  1.0000 0.1184124752
H   H30       1.0  0.70590  0.95920  0.31690  1.0000 0.091839142
H   H31       1.0  0.59000  0.95500  0.31680  1.0000 0.1184124752
H   H32       1.0  0.79530  0.15700  0.31150  1.0000 0.1056479021
H   H33       1.0  0.67730  0.14720  0.32130  1.0000 0.1056479021
H   H34       1.0  0.64500  0.17790  0.64010  1.0000 0.144175194
H   H35       1.0  0.71050  0.12620  0.68500  1.0000 0.1311290225
H   H36       1.0  0.58840  0.04770  0.65120  1.0000 0.1311290225
H   H37       1.0  0.21960  0.13930  0.43980  1.0000 0.1184124752
H   H38       1.0  0.25070  0.17090  0.59240  1.0000 0.1184124752
H   H39       1.0  0.25330  0.29410  0.31690  1.0000 0.091839142
H   H40       1.0  0.36500  0.41000  0.31680  1.0000 0.1184124752
H   H41       1.0  0.36170  0.20470  0.31150  1.0000 0.1056479021
H   H42       1.0  0.46990  0.32270  0.32130  1.0000 0.1056479021
H   H43       1.0  0.53290  0.35500  0.64010  1.0000 0.144175194
H   H44       1.0  0.41570  0.28950  0.68500  1.0000 0.1311290225
H   H45       1.0  0.45930  0.41160  0.65120  1.0000 0.1311290225
H   H46       1.0  0.91970  0.78040  0.43980  1.0000 0.1184124752
H   H47       1.0  0.92020  0.74930  0.59240  1.0000 0.1184124752
H   H48       1.0  0.04080  0.74670  0.31690  1.0000 0.091839142
H   H49       1.0  0.04500  0.63500  0.31680  1.0000 0.1184124752
H   H50       1.0  0.84300  0.63830  0.31150  1.0000 0.1056479021
H   H51       1.0  0.85280  0.53010  0.32130  1.0000 0.1056479021
H   H52       1.0  0.82210  0.46710  0.64010  1.0000 0.144175194
H   H53       1.0  0.87380  0.58430  0.68500  1.0000 0.1311290225
H   H54       1.0  0.95230  0.54070  0.65120  1.0000 0.1311290225
H   H55       1.0  0.91970  0.13930  0.93980  1.0000 0.1184124752
H   H56       1.0  0.92020  0.17090  0.09240  1.0000 0.1184124752
H   H57       1.0  0.04080  0.29410  0.81690  1.0000 0.091839142
H   H58       1.0  0.04500  0.41000  0.81680  1.0000 0.1184124752
H   H59       1.0  0.84300  0.20470  0.81150  1.0000 0.1056479021
H   H60       1.0  0.85280  0.32270  0.82130  1.0000 0.1056479021
H   H61       1.0  0.82210  0.35500  0.14010  1.0000 0.144175194
H   H62       1.0  0.87380  0.28950  0.18500  1.0000 0.1311290225
H   H63       1.0  0.95230  0.41160  0.15120  1.0000 0.1311290225
H   H64       1.0  0.86070  0.78040  0.93980  1.0000 0.1184124752
H   H65       1.0  0.82910  0.74930  0.09240  1.0000 0.1184124752
H   H66       1.0  0.70590  0.74670  0.81690  1.0000 0.091839142
H   H67       1.0  0.59000  0.63500  0.81680  1.0000 0.1184124752
H   H68       1.0  0.79530  0.63830  0.81150  1.0000 0.1056479021
H   H69       1.0  0.67730  0.53010  0.82130  1.0000 0.1056479021
H   H70       1.0  0.64500  0.46710  0.14010  1.0000 0.144175194
H   H71       1.0  0.71050  0.58430  0.18500  1.0000 0.1311290225
H   H72       1.0  0.58840  0.54070  0.15120  1.0000 0.1311290225
H   H73       1.0  0.21960  0.08030  0.93980  1.0000 0.1184124752
H   H74       1.0  0.25070  0.07980  0.09240  1.0000 0.1184124752
H   H75       1.0  0.25330  0.95920  0.81690  1.0000 0.091839142
H   H76       1.0  0.36500  0.95500  0.81680  1.0000 0.1184124752
H   H77       1.0  0.36170  0.15700  0.81150  1.0000 0.1056479021
H   H78       1.0  0.46990  0.14720  0.82130  1.0000 0.1056479021
H   H79       1.0  0.53290  0.17790  0.14010  1.0000 0.144175194
H   H80       1.0  0.41570  0.12620  0.18500  1.0000 0.1311290225
H   H81       1.0  0.45930  0.04770  0.15120  1.0000 0.1311290225
H   H82       1.0  0.13930  0.91970  0.56020  1.0000 0.1184124752
H   H83       1.0  0.17090  0.92020  0.40760  1.0000 0.1184124752
H   H84       1.0  0.29410  0.04080  0.68310  1.0000 0.091839142
H   H85       1.0  0.41000  0.04500  0.68320  1.0000 0.1184124752
H   H86       1.0  0.20470  0.84300  0.68850  1.0000 0.1056479021
H   H87       1.0  0.32270  0.85280  0.67870  1.0000 0.1056479021
H   H88       1.0  0.35500  0.82210  0.35990  1.0000 0.144175194
H   H89       1.0  0.28950  0.87380  0.31500  1.0000 0.1311290225
H   H90       1.0  0.41160  0.95230  0.34880  1.0000 0.1311290225
H   H91       1.0  0.78040  0.86070  0.56020  1.0000 0.1184124752
H   H92       1.0  0.74930  0.82910  0.40760  1.0000 0.1184124752
H   H93       1.0  0.74670  0.70590  0.68310  1.0000 0.091839142
H   H94       1.0  0.63500  0.59000  0.68320  1.0000 0.1184124752
H   H95       1.0  0.63830  0.79530  0.68850  1.0000 0.1056479021
H   H96       1.0  0.53010  0.67730  0.67870  1.0000 0.1056479021
H   H97       1.0  0.46710  0.64500  0.35990  1.0000 0.144175194
H   H98       1.0  0.58430  0.71050  0.31500  1.0000 0.1311290225
H   H99       1.0  0.54070  0.58840  0.34880  1.0000 0.1311290225
H   H100      1.0  0.08030  0.21960  0.56020  1.0000 0.1184124752
H   H101      1.0  0.07980  0.25070  0.40760  1.0000 0.1184124752
H   H102      1.0  0.95920  0.25330  0.68310  1.0000 0.091839142
H   H103      1.0  0.95500  0.36500  0.68320  1.0000 0.1184124752
H   H104      1.0  0.15700  0.36170  0.68850  1.0000 0.1056479021
H   H105      1.0  0.14720  0.46990  0.67870  1.0000 0.1056479021
H   H106      1.0  0.17790  0.53290  0.35990  1.0000 0.144175194
H   H107      1.0  0.12620  0.41570  0.31500  1.0000 0.1311290225
H   H108      1.0  0.04770  0.45930  0.34880  1.0000 0.1311290225
C   C1        1.0  0.09040  0.80580  0.03390  1.0000 -0.1129188092
C   C2        1.0  0.11850  0.66530  0.01520  1.0000 0.2165513608
C   C3        1.0  0.09020  0.78870  0.95070  1.0000 -0.1199200233
C   C4        1.0  0.99760  0.66710  0.20250  1.0000 -0.1881751321
C   C5        1.0  0.11180  0.72100  0.16440  1.0000 -0.1199200233
C   C6        1.0  0.11560  0.65790  0.85930  1.0000 -0.3409419732
C   C7        1.0  0.19420  0.28460  0.03390  1.0000 -0.1129188092
C   C8        1.0  0.33470  0.45320  0.01520  1.0000 0.2165513608
C   C9        1.0  0.21130  0.30150  0.95070  1.0000 -0.1199200233
C   C10       1.0  0.33290  0.33050  0.20250  1.0000 -0.1881751321
C   C11       1.0  0.27900  0.39080  0.16440  1.0000 -0.1199200233
C   C12       1.0  0.34210  0.45770  0.85930  1.0000 -0.3409419732
C   C13       1.0  0.71540  0.90960  0.03390  1.0000 -0.1129188092
C   C14       1.0  0.54680  0.88150  0.01520  1.0000 0.2165513608
C   C15       1.0  0.69850  0.90980  0.95070  1.0000 -0.1199200233
C   C16       1.0  0.66950  0.00240  0.20250  1.0000 -0.1881751321
C   C17       1.0  0.60920  0.88820  0.16440  1.0000 -0.1199200233
C   C18       1.0  0.54230  0.88440  0.85930  1.0000 -0.3409419732
C   C19       1.0  0.80580  0.09040  0.46610  1.0000 -0.1129188092
C   C20       1.0  0.66530  0.11850  0.48480  1.0000 0.2165513608
C   C21       1.0  0.78870  0.09020  0.54930  1.0000 -0.1199200233
C   C22       1.0  0.66710  0.99760  0.29750  1.0000 -0.1881751321
C   C23       1.0  0.72100  0.11180  0.33560  1.0000 -0.1199200233
C   C24       1.0  0.65790  0.11560  0.64070  1.0000 -0.3409419732
C   C25       1.0  0.28460  0.19420  0.46610  1.0000 -0.1129188092
C   C26       1.0  0.45320  0.33470  0.48480  1.0000 0.2165513608
C   C27       1.0  0.30150  0.21130  0.54930  1.0000 -0.1199200233
C   C28       1.0  0.33050  0.33290  0.29750  1.0000 -0.1881751321
C   C29       1.0  0.39080  0.27900  0.33560  1.0000 -0.1199200233
C   C30       1.0  0.45770  0.34210  0.64070  1.0000 -0.3409419732
C   C31       1.0  0.90960  0.71540  0.46610  1.0000 -0.1129188092
C   C32       1.0  0.88150  0.54680  0.48480  1.0000 0.2165513608
C   C33       1.0  0.90980  0.69850  0.54930  1.0000 -0.1199200233
C   C34       1.0  0.00240  0.66950  0.29750  1.0000 -0.1881751321
C   C35       1.0  0.88820  0.60920  0.33560  1.0000 -0.1199200233
C   C36       1.0  0.88440  0.54230  0.64070  1.0000 -0.3409419732
C   C37       1.0  0.90960  0.19420  0.96610  1.0000 -0.1129188092
C   C38       1.0  0.88150  0.33470  0.98480  1.0000 0.2165513608
C   C39       1.0  0.90980  0.21130  0.04930  1.0000 -0.1199200233
C   C40       1.0  0.00240  0.33290  0.79750  1.0000 -0.1881751321
C   C41       1.0  0.88820  0.27900  0.83560  1.0000 -0.1199200233
C   C42       1.0  0.88440  0.34210  0.14070  1.0000 -0.3409419732
C   C43       1.0  0.80580  0.71540  0.96610  1.0000 -0.1129188092
C   C44       1.0  0.66530  0.54680  0.98480  1.0000 0.2165513608
C   C45       1.0  0.78870  0.69850  0.04930  1.0000 -0.1199200233
C   C46       1.0  0.66710  0.66950  0.79750  1.0000 -0.1881751321
C   C47       1.0  0.72100  0.60920  0.83560  1.0000 -0.1199200233
C   C48       1.0  0.65790  0.54230  0.14070  1.0000 -0.3409419732
C   C49       1.0  0.28460  0.09040  0.96610  1.0000 -0.1129188092
C   C50       1.0  0.45320  0.11850  0.98480  1.0000 0.2165513608
C   C51       1.0  0.30150  0.09020  0.04930  1.0000 -0.1199200233
C   C52       1.0  0.33050  0.99760  0.79750  1.0000 -0.1881751321
C   C53       1.0  0.39080  0.11180  0.83560  1.0000 -0.1199200233
C   C54       1.0  0.45770  0.11560  0.14070  1.0000 -0.3409419732
C   C55       1.0  0.19420  0.90960  0.53390  1.0000 -0.1129188092
C   C56       1.0  0.33470  0.88150  0.51520  1.0000 0.2165513608
C   C57       1.0  0.21130  0.90980  0.45070  1.0000 -0.1199200233
C   C58       1.0  0.33290  0.00240  0.70250  1.0000 -0.1881751321
C   C59       1.0  0.27900  0.88820  0.66440  1.0000 -0.1199200233
C   C60       1.0  0.34210  0.88440  0.35930  1.0000 -0.3409419732
C   C61       1.0  0.71540  0.80580  0.53390  1.0000 -0.1129188092
C   C62       1.0  0.54680  0.66530  0.51520  1.0000 0.2165513608
C   C63       1.0  0.69850  0.78870  0.45070  1.0000 -0.1199200233
C   C64       1.0  0.66950  0.66710  0.70250  1.0000 -0.1881751321
C   C65       1.0  0.60920  0.72100  0.66440  1.0000 -0.1199200233
C   C66       1.0  0.54230  0.65790  0.35930  1.0000 -0.3409419732
C   C67       1.0  0.09040  0.28460  0.53390  1.0000 -0.1129188092
C   C68       1.0  0.11850  0.45320  0.51520  1.0000 0.2165513608
C   C69       1.0  0.09020  0.30150  0.45070  1.0000 -0.1199200233
C   C70       1.0  0.99760  0.33050  0.70250  1.0000 -0.1881751321
C   C71       1.0  0.11180  0.39080  0.66440  1.0000 -0.1199200233
C   C72       1.0  0.11560  0.45770  0.35930  1.0000 -0.3409419732
S   S1        1.0  0.13976  0.55685  0.03231  1.0000 -0.4511914032
S   S2        1.0  0.44315  0.58291  0.03231  1.0000 -0.4511914032
S   S3        1.0  0.41709  0.86024  0.03231  1.0000 -0.4511914032
S   S4        1.0  0.55685  0.13976  0.46769  1.0000 -0.4511914032
S   S5        1.0  0.58291  0.44315  0.46769  1.0000 -0.4511914032
S   S6        1.0  0.86024  0.41709  0.46769  1.0000 -0.4511914032
S   S7        1.0  0.86024  0.44315  0.96769  1.0000 -0.4511914032
S   S8        1.0  0.55685  0.41709  0.96769  1.0000 -0.4511914032
S   S9        1.0  0.58291  0.13976  0.96769  1.0000 -0.4511914032
S   S10       1.0  0.44315  0.86024  0.53231  1.0000 -0.4511914032
S   S11       1.0  0.41709  0.55685  0.53231  1.0000 -0.4511914032
S   S12       1.0  0.13976  0.58291  0.53231  1.0000 -0.4511914032
N   N1        1.0  0.10780  0.72940  0.07310  1.0000 -0.00165071
N   N2        1.0  0.10790  0.70220  0.94030  1.0000 0.0520543007
N   N3        1.0  0.27060  0.37840  0.07310  1.0000 -0.00165071
N   N4        1.0  0.29780  0.40570  0.94030  1.0000 0.0520543007
N   N5        1.0  0.62160  0.89220  0.07310  1.0000 -0.00165071
N   N6        1.0  0.59430  0.89210  0.94030  1.0000 0.0520543007
N   N7        1.0  0.72940  0.10780  0.42690  1.0000 -0.00165071
N   N8        1.0  0.70220  0.10790  0.55970  1.0000 0.0520543007
N   N9        1.0  0.37840  0.27060  0.42690  1.0000 -0.00165071
N   N10       1.0  0.40570  0.29780  0.55970  1.0000 0.0520543007
N   N11       1.0  0.89220  0.62160  0.42690  1.0000 -0.00165071
N   N12       1.0  0.89210  0.59430  0.55970  1.0000 0.0520543007
N   N13       1.0  0.89220  0.27060  0.92690  1.0000 -0.00165071
N   N14       1.0  0.89210  0.29780  0.05970  1.0000 0.0520543007
N   N15       1.0  0.72940  0.62160  0.92690  1.0000 -0.00165071
N   N16       1.0  0.70220  0.59430  0.05970  1.0000 0.0520543007
N   N17       1.0  0.37840  0.10780  0.92690  1.0000 -0.00165071
N   N18       1.0  0.40570  0.10790  0.05970  1.0000 0.0520543007
N   N19       1.0  0.27060  0.89220  0.57310  1.0000 -0.00165071
N   N20       1.0  0.29780  0.89210  0.44030  1.0000 0.0520543007
N   N21       1.0  0.62160  0.72940  0.57310  1.0000 -0.00165071
N   N22       1.0  0.59430  0.70220  0.44030  1.0000 0.0520543007
N   N23       1.0  0.10780  0.37840  0.57310  1.0000 -0.00165071
N   N24       1.0  0.10790  0.40570  0.44030  1.0000 0.0520543007
Cl  Cl1       1.0  0.33333  0.66667  0.23801  1.0000 -0.540392779
Cl  Cl2       1.0  0.66667  0.33333  0.26199  1.0000 -0.540392779
Cl  Cl3       1.0  0.66667  0.33333  0.76199  1.0000 -0.540392779
Cl  Cl4       1.0  0.33333  0.66667  0.73801  1.0000 -0.540392779
