# DDEC6 charges by PACMAN v1.1 (https://github.com/mtap-research/PACMAN-charge/)
data_2017[ZnEu][pcu]3[ASR]1
_chemical_formula_sum              "Eu12 Zn2 H88 C144 O64"
_cell_length_a       16.8459
_cell_length_b       16.8459
_cell_length_c       16.8459
_cell_angle_alpha    86.7516
_cell_angle_beta     86.7516
_cell_angle_gamma    86.7516

_symmetry_space_group_name_H-M    "P 1"
_symmetry_Int_Tables_number       1

loop_
  _symmetry_equiv_pos_as_xyz
  'x, y, z'

loop_
  _atom_site_type_symbol
  _atom_site_label
  _atom_site_symmetry_multiplicity
  _atom_site_fract_x
  _atom_site_fract_y
  _atom_site_fract_z
  _atom_site_occupancy
  _atom_site_charge
Eu  Eu1       1.0  0.45564  0.49828  0.63966  1.0000 2.0892332075
Eu  Eu2       1.0  0.40235  0.24836  0.42180  1.0000 2.0892332075
Eu  Eu3       1.0  0.49828  0.63966  0.45564  1.0000 2.0892332075
Eu  Eu4       1.0  0.24836  0.42180  0.40235  1.0000 2.0892332075
Eu  Eu5       1.0  0.63966  0.45564  0.49828  1.0000 2.0892332075
Eu  Eu6       1.0  0.42180  0.40235  0.24836  1.0000 2.0892332075
Eu  Eu7       1.0  0.95564  0.13966  0.99828  1.0000 2.0892332075
Eu  Eu8       1.0  0.90235  0.92180  0.74836  1.0000 2.0892332075
Eu  Eu9       1.0  0.99828  0.95564  0.13966  1.0000 2.0892332075
Eu  Eu10      1.0  0.74836  0.90235  0.92180  1.0000 2.0892332075
Eu  Eu11      1.0  0.13966  0.99828  0.95564  1.0000 2.0892332075
Eu  Eu12      1.0  0.92180  0.74836  0.90235  1.0000 2.0892332075
Zn  Zn1       1.0  0.44473  0.44473  0.44473  1.0000 1.1730644781
Zn  Zn2       1.0  0.94473  0.94473  0.94473  1.0000 1.1730644781
H   H1        1.0  0.50612  0.36200  0.54472  1.0000 0.3832758147
H   H2        1.0  0.35123  0.37555  0.52861  1.0000 0.3832758147
H   H3        1.0  0.30721  0.26363  0.69938  1.0000 0.1201707885
H   H4        1.0  0.22779  0.17328  0.77175  1.0000 0.1201707885
H   H5        1.0  0.05248  0.33578  0.92453  1.0000 0.1251264292
H   H6        1.0  0.03194  0.46962  0.93472  1.0000 0.1201707885
H   H7        1.0  0.12037  0.55468  0.86169  1.0000 0.1100288297
H   H8        1.0  0.21656  0.51071  0.78014  1.0000 0.1201707885
H   H9        1.0  0.22264  0.09945  0.52971  1.0000 0.1201707885
H   H10       1.0  0.13796  0.01190  0.60480  1.0000 0.1201707885
H   H11       1.0  0.95125  0.17581  0.72779  1.0000 0.1201707885
H   H12       1.0  0.93303  0.30852  0.73763  1.0000 0.1100288297
H   H13       1.0  0.02024  0.39331  0.67655  1.0000 0.104196981
H   H14       1.0  0.12368  0.34880  0.59795  1.0000 0.1201707885
H   H15       1.0  0.36200  0.54472  0.50612  1.0000 0.3832758147
H   H16       1.0  0.37555  0.52861  0.35123  1.0000 0.3832758147
H   H17       1.0  0.26363  0.69938  0.30721  1.0000 0.1201707885
H   H18       1.0  0.17328  0.77175  0.22779  1.0000 0.1201707885
H   H19       1.0  0.33578  0.92453  0.05248  1.0000 0.1201707885
H   H20       1.0  0.46962  0.93472  0.03194  1.0000 0.1201707885
H   H21       1.0  0.55468  0.86169  0.12037  1.0000 0.1100288297
H   H22       1.0  0.51071  0.78014  0.21656  1.0000 0.1201707885
H   H23       1.0  0.09945  0.52971  0.22264  1.0000 0.1201707885
H   H24       1.0  0.01190  0.60480  0.13796  1.0000 0.1201707885
H   H25       1.0  0.17581  0.72779  0.95125  1.0000 0.1201707885
H   H26       1.0  0.30852  0.73763  0.93303  1.0000 0.1100288297
H   H27       1.0  0.39331  0.67655  0.02024  1.0000 0.104196981
H   H28       1.0  0.34880  0.59795  0.12368  1.0000 0.1201707885
H   H29       1.0  0.54472  0.50612  0.36200  1.0000 0.3832758147
H   H30       1.0  0.52861  0.35123  0.37555  1.0000 0.3832758147
H   H31       1.0  0.69938  0.30721  0.26363  1.0000 0.1201707885
H   H32       1.0  0.77175  0.22779  0.17328  1.0000 0.1201707885
H   H33       1.0  0.92453  0.05248  0.33578  1.0000 0.1201707885
H   H34       1.0  0.93472  0.03194  0.46962  1.0000 0.1201707885
H   H35       1.0  0.86169  0.12037  0.55468  1.0000 0.1100288297
H   H36       1.0  0.78014  0.21656  0.51071  1.0000 0.1201707885
H   H37       1.0  0.52971  0.22264  0.09945  1.0000 0.1201707885
H   H38       1.0  0.60480  0.13796  0.01190  1.0000 0.1201707885
H   H39       1.0  0.72779  0.95125  0.17581  1.0000 0.1201707885
H   H40       1.0  0.73763  0.93303  0.30852  1.0000 0.1100288297
H   H41       1.0  0.67655  0.02024  0.39331  1.0000 0.104196981
H   H42       1.0  0.59795  0.12368  0.34880  1.0000 0.1201707885
H   H43       1.0  0.00612  0.04472  0.86200  1.0000 0.3832758147
H   H44       1.0  0.85123  0.02861  0.87555  1.0000 0.3832758147
H   H45       1.0  0.80721  0.19938  0.76363  1.0000 0.1201707885
H   H46       1.0  0.72779  0.27175  0.67328  1.0000 0.1201707885
H   H47       1.0  0.55248  0.42453  0.83578  1.0000 0.1201707885
H   H48       1.0  0.53194  0.43472  0.96962  1.0000 0.1201707885
H   H49       1.0  0.62037  0.36169  0.05468  1.0000 0.1100288297
H   H50       1.0  0.71656  0.28014  0.01071  1.0000 0.1201707885
H   H51       1.0  0.72264  0.02971  0.59945  1.0000 0.1201707885
H   H52       1.0  0.63796  0.10480  0.51190  1.0000 0.1201707885
H   H53       1.0  0.45125  0.22779  0.67581  1.0000 0.1201707885
H   H54       1.0  0.43303  0.23763  0.80852  1.0000 0.1100288297
H   H55       1.0  0.52024  0.17655  0.89331  1.0000 0.104196981
H   H56       1.0  0.62368  0.09795  0.84880  1.0000 0.1201707885
H   H57       1.0  0.86200  0.00612  0.04472  1.0000 0.3832758147
H   H58       1.0  0.87555  0.85123  0.02861  1.0000 0.3832758147
H   H59       1.0  0.76363  0.80721  0.19938  1.0000 0.1201707885
H   H60       1.0  0.67328  0.72779  0.27175  1.0000 0.1201707885
H   H61       1.0  0.83578  0.55248  0.42453  1.0000 0.1201707885
H   H62       1.0  0.96962  0.53194  0.43472  1.0000 0.1201707885
H   H63       1.0  0.05468  0.62037  0.36169  1.0000 0.1100288297
H   H64       1.0  0.01071  0.71656  0.28014  1.0000 0.1201707885
H   H65       1.0  0.59945  0.72264  0.02971  1.0000 0.1201707885
H   H66       1.0  0.51190  0.63796  0.10480  1.0000 0.1201707885
H   H67       1.0  0.67581  0.45125  0.22779  1.0000 0.1201707885
H   H68       1.0  0.80852  0.43303  0.23763  1.0000 0.1100288297
H   H69       1.0  0.89331  0.52024  0.17655  1.0000 0.104196981
H   H70       1.0  0.84880  0.62368  0.09795  1.0000 0.1201707885
H   H71       1.0  0.04472  0.86200  0.00612  1.0000 0.3832758147
H   H72       1.0  0.02861  0.87555  0.85123  1.0000 0.3832758147
H   H73       1.0  0.19938  0.76363  0.80721  1.0000 0.1201707885
H   H74       1.0  0.27175  0.67328  0.72779  1.0000 0.1201707885
H   H75       1.0  0.42453  0.83578  0.55248  1.0000 0.1251264292
H   H76       1.0  0.43472  0.96962  0.53194  1.0000 0.1201707885
H   H77       1.0  0.36169  0.05468  0.62037  1.0000 0.1100288297
H   H78       1.0  0.28014  0.01071  0.71656  1.0000 0.1201707885
H   H79       1.0  0.02971  0.59945  0.72264  1.0000 0.1201707885
H   H80       1.0  0.10480  0.51190  0.63796  1.0000 0.1201707885
H   H81       1.0  0.22779  0.67581  0.45125  1.0000 0.1201707885
H   H82       1.0  0.23763  0.80852  0.43303  1.0000 0.1100288297
H   H83       1.0  0.17655  0.89331  0.52024  1.0000 0.104196981
H   H84       1.0  0.09795  0.84880  0.62368  1.0000 0.1201707885
H   H85       1.0  0.58898  0.58898  0.58898  1.0000 0.3832758147
H   H86       1.0  0.29750  0.29750  0.29750  1.0000 0.3917512673
H   H87       1.0  0.08898  0.08898  0.08898  1.0000 0.3832758147
H   H88       1.0  0.79750  0.79750  0.79750  1.0000 0.3917512673
C   C1        1.0  0.32850  0.40980  0.70780  1.0000 0.5541915972
C   C2        1.0  0.11550  0.18760  0.87630  1.0000 0.629194327
C   C3        1.0  0.26170  0.35840  0.74830  1.0000 -0.0326670759
C   C4        1.0  0.26860  0.28230  0.73650  1.0000 -0.1215842611
C   C5        1.0  0.21880  0.22740  0.77910  1.0000 -0.1102510383
C   C6        1.0  0.15970  0.25150  0.82910  1.0000 -0.0675759893
C   C7        1.0  0.14450  0.33740  0.84120  1.0000 0.0571596439
C   C8        1.0  0.08480  0.37010  0.89400  1.0000 -0.1382834131
C   C9        1.0  0.07320  0.44880  0.90160  1.0000 -0.0982661832
C   C10       1.0  0.12730  0.50000  0.85600  1.0000 -0.0942151941
C   C11       1.0  0.18430  0.47470  0.80840  1.0000 -0.1382834131
C   C12       1.0  0.19840  0.38960  0.79870  1.0000 0.0343082103
C   C13       1.0  0.23140  0.24980  0.52300  1.0000 0.629194327
C   C14       1.0  0.00620  0.03500  0.68010  1.0000 0.5632411915
C   C15       1.0  0.17010  0.19860  0.56740  1.0000 -0.0675759893
C   C16       1.0  0.18050  0.12010  0.56170  1.0000 -0.1102510383
C   C17       1.0  0.12670  0.06660  0.60480  1.0000 -0.1215842611
C   C18       1.0  0.06130  0.09510  0.64470  1.0000 -0.0501767766
C   C19       1.0  0.04620  0.17710  0.65250  1.0000 0.0508298201
C   C20       1.0  0.98630  0.20930  0.69970  1.0000 -0.1382834131
C   C21       1.0  0.97620  0.28830  0.70670  1.0000 -0.0982661832
C   C22       1.0  0.02790  0.33900  0.66940  1.0000 -0.0982661832
C   C23       1.0  0.08920  0.31280  0.62290  1.0000 -0.1298130926
C   C24       1.0  0.10170  0.23250  0.61150  1.0000 0.0571596439
C   C25       1.0  0.40980  0.70780  0.32850  1.0000 0.5541915972
C   C26       1.0  0.18760  0.87630  0.11550  1.0000 0.629194327
C   C27       1.0  0.35840  0.74830  0.26170  1.0000 -0.0326670759
C   C28       1.0  0.28230  0.73650  0.26860  1.0000 -0.1215842611
C   C29       1.0  0.22740  0.77910  0.21880  1.0000 -0.1102510383
C   C30       1.0  0.25150  0.82910  0.15970  1.0000 -0.0675759893
C   C31       1.0  0.33740  0.84120  0.14450  1.0000 0.0571596439
C   C32       1.0  0.37010  0.89400  0.08480  1.0000 -0.1382834131
C   C33       1.0  0.44880  0.90160  0.07320  1.0000 -0.0982661832
C   C34       1.0  0.50000  0.85600  0.12730  1.0000 -0.0942151941
C   C35       1.0  0.47470  0.80840  0.18430  1.0000 -0.1382834131
C   C36       1.0  0.38960  0.79870  0.19840  1.0000 0.0343082103
C   C37       1.0  0.24980  0.52300  0.23140  1.0000 0.629194327
C   C38       1.0  0.03500  0.68010  0.00620  1.0000 0.5632411915
C   C39       1.0  0.19860  0.56740  0.17010  1.0000 -0.0675759893
C   C40       1.0  0.12010  0.56170  0.18050  1.0000 -0.1102510383
C   C41       1.0  0.06660  0.60480  0.12670  1.0000 -0.1215842611
C   C42       1.0  0.09510  0.64470  0.06130  1.0000 -0.0501767766
C   C43       1.0  0.17710  0.65250  0.04620  1.0000 0.0508298201
C   C44       1.0  0.20930  0.69970  0.98630  1.0000 -0.1298130926
C   C45       1.0  0.28830  0.70670  0.97620  1.0000 -0.0982661832
C   C46       1.0  0.33900  0.66940  0.02790  1.0000 -0.0982661832
C   C47       1.0  0.31280  0.62290  0.08920  1.0000 -0.1298130926
C   C48       1.0  0.23250  0.61150  0.10170  1.0000 0.0571596439
C   C49       1.0  0.70780  0.32850  0.40980  1.0000 0.5541915972
C   C50       1.0  0.87630  0.11550  0.18760  1.0000 0.629194327
C   C51       1.0  0.74830  0.26170  0.35840  1.0000 -0.0326670759
C   C52       1.0  0.73650  0.26860  0.28230  1.0000 -0.1215842611
C   C53       1.0  0.77910  0.21880  0.22740  1.0000 -0.1102510383
C   C54       1.0  0.82910  0.15970  0.25150  1.0000 -0.0675759893
C   C55       1.0  0.84120  0.14450  0.33740  1.0000 0.0571596439
C   C56       1.0  0.89400  0.08480  0.37010  1.0000 -0.1382834131
C   C57       1.0  0.90160  0.07320  0.44880  1.0000 -0.0982661832
C   C58       1.0  0.85600  0.12730  0.50000  1.0000 -0.0942151941
C   C59       1.0  0.80840  0.18430  0.47470  1.0000 -0.1382834131
C   C60       1.0  0.79870  0.19840  0.38960  1.0000 0.0343082103
C   C61       1.0  0.52300  0.23140  0.24980  1.0000 0.629194327
C   C62       1.0  0.68010  0.00620  0.03500  1.0000 0.5632411915
C   C63       1.0  0.56740  0.17010  0.19860  1.0000 -0.0675759893
C   C64       1.0  0.56170  0.18050  0.12010  1.0000 -0.1102510383
C   C65       1.0  0.60480  0.12670  0.06660  1.0000 -0.1215842611
C   C66       1.0  0.64470  0.06130  0.09510  1.0000 -0.0501767766
C   C67       1.0  0.65250  0.04620  0.17710  1.0000 0.0508298201
C   C68       1.0  0.69970  0.98630  0.20930  1.0000 -0.1298130926
C   C69       1.0  0.70670  0.97620  0.28830  1.0000 -0.0982661832
C   C70       1.0  0.66940  0.02790  0.33900  1.0000 -0.0982661832
C   C71       1.0  0.62290  0.08920  0.31280  1.0000 -0.1298130926
C   C72       1.0  0.61150  0.10170  0.23250  1.0000 0.0571596439
C   C73       1.0  0.82850  0.20780  0.90980  1.0000 0.5541915972
C   C74       1.0  0.61550  0.37630  0.68760  1.0000 0.629194327
C   C75       1.0  0.76170  0.24830  0.85840  1.0000 -0.0326670759
C   C76       1.0  0.76860  0.23650  0.78230  1.0000 -0.1215842611
C   C77       1.0  0.71880  0.27910  0.72740  1.0000 -0.1102510383
C   C78       1.0  0.65970  0.32910  0.75150  1.0000 -0.0675759893
C   C79       1.0  0.64450  0.34120  0.83740  1.0000 0.0571596439
C   C80       1.0  0.58480  0.39400  0.87010  1.0000 -0.1382834131
C   C81       1.0  0.57320  0.40160  0.94880  1.0000 -0.0982661832
C   C82       1.0  0.62730  0.35600  0.00000  1.0000 -0.0942151941
C   C83       1.0  0.68430  0.30840  0.97470  1.0000 -0.1382834131
C   C84       1.0  0.69840  0.29870  0.88960  1.0000 0.0343082103
C   C85       1.0  0.73140  0.02300  0.74980  1.0000 0.629194327
C   C86       1.0  0.50620  0.18010  0.53500  1.0000 0.5632411915
C   C87       1.0  0.67010  0.06740  0.69860  1.0000 -0.0675759893
C   C88       1.0  0.68050  0.06170  0.62010  1.0000 -0.1102510383
C   C89       1.0  0.62670  0.10480  0.56660  1.0000 -0.1215842611
C   C90       1.0  0.56130  0.14470  0.59510  1.0000 -0.0501767766
C   C91       1.0  0.54620  0.15250  0.67710  1.0000 0.0508298201
C   C92       1.0  0.48630  0.19970  0.70930  1.0000 -0.1298130926
C   C93       1.0  0.47620  0.20670  0.78830  1.0000 -0.0982661832
C   C94       1.0  0.52790  0.16940  0.83900  1.0000 -0.0982661832
C   C95       1.0  0.58920  0.12290  0.81280  1.0000 -0.1298130926
C   C96       1.0  0.60170  0.11150  0.73250  1.0000 0.0571596439
C   C97       1.0  0.90980  0.82850  0.20780  1.0000 0.5541915972
C   C98       1.0  0.68760  0.61550  0.37630  1.0000 0.629194327
C   C99       1.0  0.85840  0.76170  0.24830  1.0000 -0.0326670759
C   C100      1.0  0.78230  0.76860  0.23650  1.0000 -0.1215842611
C   C101      1.0  0.72740  0.71880  0.27910  1.0000 -0.1102510383
C   C102      1.0  0.75150  0.65970  0.32910  1.0000 -0.0675759893
C   C103      1.0  0.83740  0.64450  0.34120  1.0000 0.0571596439
C   C104      1.0  0.87010  0.58480  0.39400  1.0000 -0.1382834131
C   C105      1.0  0.94880  0.57320  0.40160  1.0000 -0.0982661832
C   C106      1.0  0.00000  0.62730  0.35600  1.0000 -0.0942151941
C   C107      1.0  0.97470  0.68430  0.30840  1.0000 -0.1382834131
C   C108      1.0  0.88960  0.69840  0.29870  1.0000 0.0343082103
C   C109      1.0  0.74980  0.73140  0.02300  1.0000 0.629194327
C   C110      1.0  0.53500  0.50620  0.18010  1.0000 0.5632411915
C   C111      1.0  0.69860  0.67010  0.06740  1.0000 -0.0675759893
C   C112      1.0  0.62010  0.68050  0.06170  1.0000 -0.1102510383
C   C113      1.0  0.56660  0.62670  0.10480  1.0000 -0.1215842611
C   C114      1.0  0.59510  0.56130  0.14470  1.0000 -0.0501767766
C   C115      1.0  0.67710  0.54620  0.15250  1.0000 0.0508298201
C   C116      1.0  0.70930  0.48630  0.19970  1.0000 -0.1382834131
C   C117      1.0  0.78830  0.47620  0.20670  1.0000 -0.0982661832
C   C118      1.0  0.83900  0.52790  0.16940  1.0000 -0.0982661832
C   C119      1.0  0.81280  0.58920  0.12290  1.0000 -0.1298130926
C   C120      1.0  0.73250  0.60170  0.11150  1.0000 0.0571596439
C   C121      1.0  0.20780  0.90980  0.82850  1.0000 0.5541915972
C   C122      1.0  0.37630  0.68760  0.61550  1.0000 0.629194327
C   C123      1.0  0.24830  0.85840  0.76170  1.0000 -0.0326670759
C   C124      1.0  0.23650  0.78230  0.76860  1.0000 -0.1215842611
C   C125      1.0  0.27910  0.72740  0.71880  1.0000 -0.1102510383
C   C126      1.0  0.32910  0.75150  0.65970  1.0000 -0.0675759893
C   C127      1.0  0.34120  0.83740  0.64450  1.0000 0.0571596439
C   C128      1.0  0.39400  0.87010  0.58480  1.0000 -0.1382834131
C   C129      1.0  0.40160  0.94880  0.57320  1.0000 -0.0982661832
C   C130      1.0  0.35600  0.00000  0.62730  1.0000 -0.0942151941
C   C131      1.0  0.30840  0.97470  0.68430  1.0000 -0.1382834131
C   C132      1.0  0.29870  0.88960  0.69840  1.0000 0.0343082103
C   C133      1.0  0.02300  0.74980  0.73140  1.0000 0.629194327
C   C134      1.0  0.18010  0.53500  0.50620  1.0000 0.5632411915
C   C135      1.0  0.06740  0.69860  0.67010  1.0000 -0.0675759893
C   C136      1.0  0.06170  0.62010  0.68050  1.0000 -0.1102510383
C   C137      1.0  0.10480  0.56660  0.62670  1.0000 -0.1215842611
C   C138      1.0  0.14470  0.59510  0.56130  1.0000 -0.0501767766
C   C139      1.0  0.15250  0.67710  0.54620  1.0000 0.0508298201
C   C140      1.0  0.19970  0.70930  0.48630  1.0000 -0.1298130926
C   C141      1.0  0.20670  0.78830  0.47620  1.0000 -0.0982661832
C   C142      1.0  0.16940  0.83900  0.52790  1.0000 -0.0982661832
C   C143      1.0  0.12290  0.81280  0.58920  1.0000 -0.1298130926
C   C144      1.0  0.11150  0.73250  0.60170  1.0000 0.0571596439
O   O1        1.0  0.35670  0.46140  0.74770  1.0000 -0.6129710895
O   O2        1.0  0.35150  0.39830  0.63960  1.0000 -0.5706854087
O   O3        1.0  0.04490  0.20400  0.90500  1.0000 -0.6973590177
O   O4        1.0  0.14830  0.12100  0.88100  1.0000 -0.6477002461
O   O5        1.0  0.29880  0.21970  0.51540  1.0000 -0.6477002461
O   O6        1.0  0.20430  0.31220  0.48560  1.0000 -0.6900041622
O   O7        1.0  0.98190  0.98120  0.63730  1.0000 -0.6446483654
O   O8        1.0  0.98290  0.03580  0.75120  1.0000 -0.5874733847
O   O9        1.0  0.50710  0.41140  0.53180  1.0000 -1.0118248782
O   O10       1.0  0.36130  0.37830  0.47850  1.0000 -1.0167433939
O   O11       1.0  0.46140  0.74770  0.35670  1.0000 -0.6129710895
O   O12       1.0  0.39830  0.63960  0.35150  1.0000 -0.5706854087
O   O13       1.0  0.20400  0.90500  0.04490  1.0000 -0.6973590177
O   O14       1.0  0.12100  0.88100  0.14830  1.0000 -0.6477002461
O   O15       1.0  0.21970  0.51540  0.29880  1.0000 -0.6477002461
O   O16       1.0  0.31220  0.48560  0.20430  1.0000 -0.6900041622
O   O17       1.0  0.98120  0.63730  0.98190  1.0000 -0.6477002461
O   O18       1.0  0.03580  0.75120  0.98290  1.0000 -0.5874733847
O   O19       1.0  0.41140  0.53180  0.50710  1.0000 -1.0118248782
O   O20       1.0  0.37830  0.47850  0.36130  1.0000 -1.0167433939
O   O21       1.0  0.74770  0.35670  0.46140  1.0000 -0.6129710895
O   O22       1.0  0.63960  0.35150  0.39830  1.0000 -0.5706854087
O   O23       1.0  0.90500  0.04490  0.20400  1.0000 -0.6973590177
O   O24       1.0  0.88100  0.14830  0.12100  1.0000 -0.6477002461
O   O25       1.0  0.51540  0.29880  0.21970  1.0000 -0.6477002461
O   O26       1.0  0.48560  0.20430  0.31220  1.0000 -0.6900041622
O   O27       1.0  0.63730  0.98190  0.98120  1.0000 -0.6477002461
O   O28       1.0  0.75120  0.98290  0.03580  1.0000 -0.5874733847
O   O29       1.0  0.53180  0.50710  0.41140  1.0000 -1.0118248782
O   O30       1.0  0.47850  0.36130  0.37830  1.0000 -1.0167433939
O   O31       1.0  0.85670  0.24770  0.96140  1.0000 -0.6129710895
O   O32       1.0  0.85150  0.13960  0.89830  1.0000 -0.5706854087
O   O33       1.0  0.54490  0.40500  0.70400  1.0000 -0.6973590177
O   O34       1.0  0.64830  0.38100  0.62100  1.0000 -0.6477002461
O   O35       1.0  0.79880  0.01540  0.71970  1.0000 -0.6477002461
O   O36       1.0  0.70430  0.98560  0.81220  1.0000 -0.6900041622
O   O37       1.0  0.48190  0.13730  0.48120  1.0000 -0.6477002461
O   O38       1.0  0.48290  0.25120  0.53580  1.0000 -0.5874733847
O   O39       1.0  0.00710  0.03180  0.91140  1.0000 -1.0118248782
O   O40       1.0  0.86130  0.97850  0.87830  1.0000 -1.0167433939
O   O41       1.0  0.96140  0.85670  0.24770  1.0000 -0.6129710895
O   O42       1.0  0.89830  0.85150  0.13960  1.0000 -0.5706854087
O   O43       1.0  0.70400  0.54490  0.40500  1.0000 -0.6973590177
O   O44       1.0  0.62100  0.64830  0.38100  1.0000 -0.6477002461
O   O45       1.0  0.71970  0.79880  0.01540  1.0000 -0.6477002461
O   O46       1.0  0.81220  0.70430  0.98560  1.0000 -0.6900041622
O   O47       1.0  0.48120  0.48190  0.13730  1.0000 -0.6477002461
O   O48       1.0  0.53580  0.48290  0.25120  1.0000 -0.5874733847
O   O49       1.0  0.91140  0.00710  0.03180  1.0000 -1.0118248782
O   O50       1.0  0.87830  0.86130  0.97850  1.0000 -1.0167433939
O   O51       1.0  0.24770  0.96140  0.85670  1.0000 -0.6129710895
O   O52       1.0  0.13960  0.89830  0.85150  1.0000 -0.5706854087
O   O53       1.0  0.40500  0.70400  0.54490  1.0000 -0.6973590177
O   O54       1.0  0.38100  0.62100  0.64830  1.0000 -0.6477002461
O   O55       1.0  0.01540  0.71970  0.79880  1.0000 -0.6477002461
O   O56       1.0  0.98560  0.81220  0.70430  1.0000 -0.6900041622
O   O57       1.0  0.13730  0.48120  0.48190  1.0000 -0.6446483654
O   O58       1.0  0.25120  0.53580  0.48290  1.0000 -0.5874733847
O   O59       1.0  0.03180  0.91140  0.00710  1.0000 -1.0118248782
O   O60       1.0  0.97850  0.87830  0.86130  1.0000 -1.0167433939
O   O61       1.0  0.56133  0.56133  0.56133  1.0000 -1.2493165654
O   O62       1.0  0.32513  0.32513  0.32513  1.0000 -1.2662241381
O   O63       1.0  0.06133  0.06133  0.06133  1.0000 -1.2493165654
O   O64       1.0  0.82513  0.82513  0.82513  1.0000 -1.2647199553
