# DDEC6 charges by PACMAN v1.1 (https://github.com/mtap-research/PACMAN-charge/)
data_2017[Zr][flu]3[ASR]2
_chemical_formula_sum              "Zr6 H44 C80 O24"
_cell_length_a       24.3284
_cell_length_b       19.596
_cell_length_c       18.3778
_cell_angle_alpha    79.6118
_cell_angle_beta     52.3988
_cell_angle_gamma    47.9894

_symmetry_space_group_name_H-M    "P 1"
_symmetry_Int_Tables_number       1

loop_
  _symmetry_equiv_pos_as_xyz
  'x, y, z'

loop_
  _atom_site_type_symbol
  _atom_site_label
  _atom_site_symmetry_multiplicity
  _atom_site_fract_x
  _atom_site_fract_y
  _atom_site_fract_z
  _atom_site_occupancy
  _atom_site_charge
Zr  Zr1       1.0  0.56802  0.56802  0.43198  1.0000 2.327847716
Zr  Zr2       1.0  0.43198  0.43198  0.56802  1.0000 2.3233339755
Zr  Zr3       1.0  0.55563  0.44437  0.33668  1.0000 2.474799153
Zr  Zr4       1.0  0.44436  0.55564  0.66333  1.0000 2.4791197745
Zr  Zr5       1.0  0.33668  0.66333  0.55563  1.0000 2.474799153
Zr  Zr6       1.0  0.66333  0.33668  0.44437  1.0000 2.474799153
H   H1        1.0  0.70160  0.69000  0.73960  1.0000 0.1100250739
H   H2        1.0  0.55690  0.73190  0.79210  1.0000 0.1100250739
H   H3        1.0  0.50590  0.68090  0.76450  1.0000 0.1018471158
H   H4        1.0  0.67240  0.75260  0.52500  1.0000 0.1100250739
H   H5        1.0  0.62850  0.69510  0.49450  1.0000 0.1233557431
H   H6        1.0  0.69000  0.70160  0.86880  1.0000 0.1100250739
H   H7        1.0  0.73190  0.55690  0.91910  1.0000 0.1100250739
H   H8        1.0  0.68090  0.50590  0.04870  1.0000 0.1018471158
H   H9        1.0  0.75260  0.67240  0.05000  1.0000 0.1100250739
H   H10       1.0  0.69510  0.62850  0.18190  1.0000 0.1233557431
H   H11       1.0  0.73960  0.86880  0.70160  1.0000 0.1100250739
H   H12       1.0  0.79210  0.91910  0.55690  1.0000 0.1100250739
H   H13       1.0  0.76450  0.04870  0.50590  1.0000 0.1018471158
H   H14       1.0  0.52500  0.05000  0.67240  1.0000 0.1100250739
H   H15       1.0  0.49450  0.18190  0.62850  1.0000 0.1233557431
H   H16       1.0  0.86880  0.73960  0.69000  1.0000 0.1100250739
H   H17       1.0  0.91910  0.79210  0.73190  1.0000 0.1100250739
H   H18       1.0  0.04870  0.76450  0.68090  1.0000 0.1018471158
H   H19       1.0  0.05000  0.52500  0.75260  1.0000 0.1100250739
H   H20       1.0  0.18190  0.49450  0.69510  1.0000 0.1233557431
H   H21       1.0  0.29840  0.31000  0.26040  1.0000 0.1100250739
H   H22       1.0  0.44310  0.26810  0.20790  1.0000 0.1100250739
H   H23       1.0  0.49410  0.31910  0.23550  1.0000 0.1018471158
H   H24       1.0  0.32760  0.24740  0.47500  1.0000 0.1100250739
H   H25       1.0  0.37150  0.30490  0.50550  1.0000 0.1233557431
H   H26       1.0  0.31000  0.29840  0.13120  1.0000 0.1100250739
H   H27       1.0  0.26810  0.44310  0.08090  1.0000 0.1100250739
H   H28       1.0  0.31910  0.49410  0.95130  1.0000 0.1018471158
H   H29       1.0  0.24740  0.32760  0.95000  1.0000 0.1100250739
H   H30       1.0  0.30490  0.37150  0.81810  1.0000 0.1233557431
H   H31       1.0  0.26040  0.13120  0.29840  1.0000 0.1100250739
H   H32       1.0  0.20790  0.08090  0.44310  1.0000 0.1100250739
H   H33       1.0  0.23550  0.95130  0.49410  1.0000 0.1018471158
H   H34       1.0  0.47500  0.95000  0.32760  1.0000 0.1100250739
H   H35       1.0  0.50550  0.81810  0.37150  1.0000 0.1233557431
H   H36       1.0  0.13120  0.26040  0.31000  1.0000 0.1100250739
H   H37       1.0  0.08090  0.20790  0.26810  1.0000 0.1100250739
H   H38       1.0  0.95130  0.23550  0.31910  1.0000 0.1018471158
H   H39       1.0  0.95000  0.47500  0.24740  1.0000 0.1100250739
H   H40       1.0  0.81810  0.50550  0.30490  1.0000 0.1233557431
H   H41       1.0  0.61490  0.88510  0.61490  1.0000 0.1018471158
H   H42       1.0  0.88510  0.61490  0.88510  1.0000 0.1018471158
H   H43       1.0  0.38510  0.11490  0.38510  1.0000 0.1018471158
H   H44       1.0  0.11490  0.38510  0.11490  1.0000 0.1018471158
C   C1        1.0  0.69482  0.74080  0.71740  1.0000 -0.2031336644
C   C2        1.0  0.65294  0.78184  0.67556  1.0000 0.0709071035
C   C3        1.0  0.53191  0.64897  0.60503  1.0000 0.6285708142
C   C4        1.0  0.62103  0.74693  0.66047  1.0000 0.0709071035
C   C5        1.0  0.56120  0.68340  0.62800  1.0000 -0.0451427171
C   C6        1.0  0.57086  0.72546  0.73154  1.0000 -0.1609739684
C   C7        1.0  0.54100  0.69452  0.71468  1.0000 -0.0931192806
C   C8        1.0  0.63960  0.73654  0.57386  1.0000 -0.1609739684
C   C9        1.0  0.61243  0.70389  0.55611  1.0000 -0.0994831198
C   C10       1.0  0.74080  0.69482  0.84698  1.0000 -0.2031336644
C   C11       1.0  0.78184  0.65294  0.88966  1.0000 0.0709071035
C   C12       1.0  0.64897  0.53191  0.21409  1.0000 0.6285708142
C   C13       1.0  0.74693  0.62103  0.97157  1.0000 0.0709071035
C   C14       1.0  0.68340  0.56120  0.12740  1.0000 -0.0441844421
C   C15       1.0  0.72546  0.57086  0.97214  1.0000 -0.1609739684
C   C16       1.0  0.69452  0.54100  0.04980  1.0000 -0.0931192806
C   C17       1.0  0.73654  0.63960  0.05000  1.0000 -0.1609739684
C   C18       1.0  0.70389  0.61243  0.12757  1.0000 -0.0994831198
C   C19       1.0  0.71740  0.84698  0.69482  1.0000 -0.2031336644
C   C20       1.0  0.67556  0.88966  0.65294  1.0000 0.0709071035
C   C21       1.0  0.60503  0.21409  0.53191  1.0000 0.6285708142
C   C22       1.0  0.66047  0.97157  0.62103  1.0000 0.0709071035
C   C23       1.0  0.62800  0.12740  0.56120  1.0000 -0.0441844421
C   C24       1.0  0.73154  0.97214  0.57086  1.0000 -0.1609739684
C   C25       1.0  0.71468  0.04980  0.54100  1.0000 -0.0931192806
C   C26       1.0  0.57386  0.05000  0.63960  1.0000 -0.1609739684
C   C27       1.0  0.55611  0.12757  0.61243  1.0000 -0.0994831198
C   C28       1.0  0.84698  0.71740  0.74080  1.0000 -0.2031336644
C   C29       1.0  0.88966  0.67556  0.78184  1.0000 0.0709071035
C   C30       1.0  0.21409  0.60503  0.64897  1.0000 0.6285708142
C   C31       1.0  0.97157  0.66047  0.74693  1.0000 0.0709071035
C   C32       1.0  0.12740  0.62800  0.68340  1.0000 -0.0451427171
C   C33       1.0  0.97214  0.73154  0.72546  1.0000 -0.1609739684
C   C34       1.0  0.04980  0.71468  0.69452  1.0000 -0.0931192806
C   C35       1.0  0.05000  0.57386  0.73654  1.0000 -0.1609739684
C   C36       1.0  0.12757  0.55611  0.70389  1.0000 -0.0994831198
C   C37       1.0  0.30518  0.25920  0.28260  1.0000 -0.2031336644
C   C38       1.0  0.34706  0.21816  0.32444  1.0000 0.0709071035
C   C39       1.0  0.46809  0.35103  0.39497  1.0000 0.6285708142
C   C40       1.0  0.37897  0.25307  0.33953  1.0000 0.0709071035
C   C41       1.0  0.43880  0.31660  0.37200  1.0000 -0.0441844421
C   C42       1.0  0.42914  0.27454  0.26846  1.0000 -0.1609739684
C   C43       1.0  0.45900  0.30548  0.28532  1.0000 -0.0931192806
C   C44       1.0  0.36040  0.26346  0.42614  1.0000 -0.1609739684
C   C45       1.0  0.38757  0.29611  0.44389  1.0000 -0.0994831198
C   C46       1.0  0.25920  0.30518  0.15302  1.0000 -0.2031336644
C   C47       1.0  0.21816  0.34706  0.11034  1.0000 0.0709071035
C   C48       1.0  0.35103  0.46809  0.78591  1.0000 0.6285708142
C   C49       1.0  0.25307  0.37897  0.02843  1.0000 0.0709071035
C   C50       1.0  0.31660  0.43880  0.87260  1.0000 -0.0451427171
C   C51       1.0  0.27454  0.42914  0.02786  1.0000 -0.1609739684
C   C52       1.0  0.30548  0.45900  0.95020  1.0000 -0.0931192806
C   C53       1.0  0.26346  0.36040  0.95000  1.0000 -0.1609739684
C   C54       1.0  0.29611  0.38757  0.87243  1.0000 -0.0994831198
C   C55       1.0  0.28260  0.15302  0.30518  1.0000 -0.2031336644
C   C56       1.0  0.32444  0.11034  0.34706  1.0000 0.0709071035
C   C57       1.0  0.39497  0.78591  0.46809  1.0000 0.6285708142
C   C58       1.0  0.33953  0.02843  0.37897  1.0000 0.0709071035
C   C59       1.0  0.37200  0.87260  0.43880  1.0000 -0.0441844421
C   C60       1.0  0.26846  0.02786  0.42914  1.0000 -0.1609739684
C   C61       1.0  0.28532  0.95020  0.45900  1.0000 -0.0994831198
C   C62       1.0  0.42614  0.95000  0.36040  1.0000 -0.1609739684
C   C63       1.0  0.44389  0.87243  0.38757  1.0000 -0.0994831198
C   C64       1.0  0.15302  0.28260  0.25920  1.0000 -0.2031336644
C   C65       1.0  0.11034  0.32444  0.21816  1.0000 0.0709071035
C   C66       1.0  0.78591  0.39497  0.35103  1.0000 0.6285708142
C   C67       1.0  0.02843  0.33953  0.25307  1.0000 0.0709071035
C   C68       1.0  0.87260  0.37200  0.31660  1.0000 -0.0441844421
C   C69       1.0  0.02786  0.26846  0.27454  1.0000 -0.1609739684
C   C70       1.0  0.95020  0.28532  0.30548  1.0000 -0.0931192806
C   C71       1.0  0.95000  0.42614  0.26346  1.0000 -0.1609739684
C   C72       1.0  0.87243  0.44389  0.29611  1.0000 -0.0994831198
C   C73       1.0  0.72714  0.77286  0.72714  1.0000 0.0804739861
C   C74       1.0  0.64363  0.85637  0.64363  1.0000 -0.2031336644
C   C75       1.0  0.77286  0.72714  0.77286  1.0000 0.0804739861
C   C76       1.0  0.85637  0.64363  0.85637  1.0000 -0.2031336644
C   C77       1.0  0.27286  0.22714  0.27286  1.0000 0.0804739861
C   C78       1.0  0.35637  0.14363  0.35637  1.0000 -0.2031336644
C   C79       1.0  0.22714  0.27286  0.22714  1.0000 0.0804739861
C   C80       1.0  0.14363  0.35637  0.14363  1.0000 -0.2031336644
O   O1        1.0  0.55641  0.64165  0.52275  1.0000 -0.5631696614
O   O2        1.0  0.48309  0.63195  0.67145  1.0000 -0.619603801
O   O3        1.0  0.64165  0.55641  0.27919  1.0000 -0.5631696614
O   O4        1.0  0.63195  0.48309  0.21351  1.0000 -0.619603801
O   O5        1.0  0.52275  0.27919  0.55641  1.0000 -0.5631696614
O   O6        1.0  0.67145  0.21351  0.48309  1.0000 -0.619603801
O   O7        1.0  0.27919  0.52275  0.64165  1.0000 -0.5631696614
O   O8        1.0  0.21351  0.67145  0.63195  1.0000 -0.619603801
O   O9        1.0  0.44359  0.35835  0.47725  1.0000 -0.5631696614
O   O10       1.0  0.51691  0.36805  0.32855  1.0000 -0.619603801
O   O11       1.0  0.35835  0.44359  0.72081  1.0000 -0.5631696614
O   O12       1.0  0.36805  0.51691  0.78649  1.0000 -0.619603801
O   O13       1.0  0.47725  0.72081  0.44359  1.0000 -0.5631696614
O   O14       1.0  0.32855  0.78649  0.51691  1.0000 -0.619603801
O   O15       1.0  0.72081  0.47725  0.35835  1.0000 -0.5631696614
O   O16       1.0  0.78649  0.32855  0.36805  1.0000 -0.619603801
O   O17       1.0  0.64523  0.42063  0.35477  1.0000 -1.1903451415
O   O18       1.0  0.42063  0.64523  0.57937  1.0000 -1.1836303504
O   O19       1.0  0.35477  0.57937  0.64523  1.0000 -1.1836303504
O   O20       1.0  0.57937  0.35477  0.42063  1.0000 -1.1836303504
O   O21       1.0  0.47947  0.58809  0.41191  1.0000 -1.1903451415
O   O22       1.0  0.58809  0.47947  0.52053  1.0000 -1.198107961
O   O23       1.0  0.41191  0.52053  0.47947  1.0000 -1.1903451415
O   O24       1.0  0.52053  0.41191  0.58809  1.0000 -1.1903451415
