# DDEC6 charges by PACMAN v1.1 (https://github.com/mtap-research/PACMAN-charge/)
data_2017[Y][sql]2[ASR]1
_chemical_formula_sum              "Y4 H36 C36 O24"
_cell_length_a       9.347
_cell_length_b       14.851
_cell_length_c       11.112
_cell_angle_alpha    90
_cell_angle_beta     108.36
_cell_angle_gamma    90

_symmetry_space_group_name_H-M    "P 1"
_symmetry_Int_Tables_number       1

loop_
  _symmetry_equiv_pos_as_xyz
  'x, y, z'

loop_
  _atom_site_type_symbol
  _atom_site_label
  _atom_site_symmetry_multiplicity
  _atom_site_fract_x
  _atom_site_fract_y
  _atom_site_fract_z
  _atom_site_occupancy
  _atom_site_charge
Y   Y1        1.0  0.53112  0.37162  0.07811  1.0000 1.6939540912
Y   Y2        1.0  0.46888  0.62838  0.92189  1.0000 1.6939540912
Y   Y3        1.0  0.96888  0.87162  0.92189  1.0000 1.6939540912
Y   Y4        1.0  0.03112  0.12838  0.07811  1.0000 1.6939540912
H   H1        1.0  0.97050  0.34030  0.43260  1.0000 0.1402572987
H   H2        1.0  0.02490  0.40940  0.35000  1.0000 0.1348783334
H   H3        1.0  0.86860  0.46930  0.51300  1.0000 0.1016072591
H   H4        1.0  0.69130  0.48580  0.74310  1.0000 0.1477312331
H   H5        1.0  0.82770  0.52370  0.85280  1.0000 0.1477312331
H   H6        1.0  0.82710  0.34470  0.76540  1.0000 0.1104649787
H   H7        1.0  0.05000  0.46820  0.83040  1.0000 0.1104649787
H   H8        1.0  0.06720  0.28340  0.77000  1.0000 0.1402572987
H   H9        1.0  0.13050  0.35620  0.69770  1.0000 0.1402572987
H   H10       1.0  0.02950  0.65970  0.56740  1.0000 0.1402572987
H   H11       1.0  0.97510  0.59060  0.65000  1.0000 0.1348783334
H   H12       1.0  0.13140  0.53070  0.48700  1.0000 0.1016072591
H   H13       1.0  0.30870  0.51420  0.25690  1.0000 0.1477312331
H   H14       1.0  0.17230  0.47630  0.14720  1.0000 0.1477312331
H   H15       1.0  0.17290  0.65530  0.23460  1.0000 0.1104649787
H   H16       1.0  0.95000  0.53180  0.16960  1.0000 0.1104649787
H   H17       1.0  0.93280  0.71660  0.23000  1.0000 0.1402572987
H   H18       1.0  0.86950  0.64380  0.30230  1.0000 0.1402572987
H   H19       1.0  0.52950  0.84030  0.56740  1.0000 0.1402572987
H   H20       1.0  0.47510  0.90940  0.65000  1.0000 0.1348783334
H   H21       1.0  0.63140  0.96930  0.48700  1.0000 0.1016072591
H   H22       1.0  0.80870  0.98580  0.25690  1.0000 0.1477312331
H   H23       1.0  0.67230  0.02370  0.14720  1.0000 0.1477312331
H   H24       1.0  0.67290  0.84470  0.23460  1.0000 0.1104649787
H   H25       1.0  0.45000  0.96820  0.16960  1.0000 0.1104649787
H   H26       1.0  0.43280  0.78340  0.23000  1.0000 0.1402572987
H   H27       1.0  0.36950  0.85620  0.30230  1.0000 0.1402572987
H   H28       1.0  0.47050  0.15970  0.43260  1.0000 0.1402572987
H   H29       1.0  0.52490  0.09060  0.35000  1.0000 0.1348783334
H   H30       1.0  0.36860  0.03070  0.51300  1.0000 0.1016072591
H   H31       1.0  0.19130  0.01420  0.74310  1.0000 0.1477312331
H   H32       1.0  0.32770  0.97630  0.85280  1.0000 0.1477312331
H   H33       1.0  0.32710  0.15530  0.76540  1.0000 0.1104649787
H   H34       1.0  0.55000  0.03180  0.83040  1.0000 0.1104649787
H   H35       1.0  0.56720  0.21660  0.77000  1.0000 0.1402572987
H   H36       1.0  0.63050  0.14380  0.69770  1.0000 0.1402572987
C   C1        1.0  0.79840  0.38640  0.28200  1.0000 0.6180811931
C   C2        1.0  0.94630  0.39700  0.38750  1.0000 -0.3317468467
C   C3        1.0  0.94840  0.46850  0.47980  1.0000 -0.0860375877
C   C4        1.0  0.69400  0.44090  0.91660  1.0000 0.6619207074
C   C5        1.0  0.76880  0.47000  0.82140  1.0000 -0.3440451811
C   C6        1.0  0.86930  0.40070  0.79310  1.0000 -0.0728661309
C   C7        1.0  0.00910  0.41180  0.80380  1.0000 -0.077636246
C   C8        1.0  0.11370  0.34240  0.77750  1.0000 -0.3317468467
C   C9        1.0  0.26130  0.34100  0.88150  1.0000 0.6358580996
C   C10       1.0  0.20160  0.61360  0.71800  1.0000 0.6180811931
C   C11       1.0  0.05370  0.60300  0.61250  1.0000 -0.3317468467
C   C12       1.0  0.05160  0.53150  0.52020  1.0000 -0.0860375877
C   C13       1.0  0.30600  0.55910  0.08340  1.0000 0.6619207074
C   C14       1.0  0.23120  0.53000  0.17860  1.0000 -0.3440451811
C   C15       1.0  0.13070  0.59930  0.20690  1.0000 -0.0728661309
C   C16       1.0  0.99090  0.58820  0.19620  1.0000 -0.077636246
C   C17       1.0  0.88630  0.65760  0.22250  1.0000 -0.3317468467
C   C18       1.0  0.73870  0.65900  0.11850  1.0000 0.6358580996
C   C19       1.0  0.70160  0.88640  0.71800  1.0000 0.6180811931
C   C20       1.0  0.55370  0.89700  0.61250  1.0000 -0.3317468467
C   C21       1.0  0.55160  0.96850  0.52020  1.0000 -0.0860375877
C   C22       1.0  0.80600  0.94090  0.08340  1.0000 0.6619207074
C   C23       1.0  0.73120  0.97000  0.17860  1.0000 -0.3440451811
C   C24       1.0  0.63070  0.90070  0.20690  1.0000 -0.0728661309
C   C25       1.0  0.49090  0.91180  0.19620  1.0000 -0.077636246
C   C26       1.0  0.38630  0.84240  0.22250  1.0000 -0.3317468467
C   C27       1.0  0.23870  0.84100  0.11850  1.0000 0.6358580996
C   C28       1.0  0.29840  0.11360  0.28200  1.0000 0.6180811931
C   C29       1.0  0.44630  0.10300  0.38750  1.0000 -0.3317468467
C   C30       1.0  0.44840  0.03150  0.47980  1.0000 -0.0860375877
C   C31       1.0  0.19400  0.05910  0.91660  1.0000 0.6619207074
C   C32       1.0  0.26880  0.03000  0.82140  1.0000 -0.3440451811
C   C33       1.0  0.36930  0.09930  0.79310  1.0000 -0.0728661309
C   C34       1.0  0.50910  0.08820  0.80380  1.0000 -0.077636246
C   C35       1.0  0.61370  0.15760  0.77750  1.0000 -0.3317468467
C   C36       1.0  0.76130  0.15900  0.88150  1.0000 0.6358580996
O   O1        1.0  0.76150  0.30960  0.23200  1.0000 -0.6092909168
O   O2        1.0  0.71450  0.45300  0.24110  1.0000 -0.5881170919
O   O3        1.0  0.72500  0.36620  0.97190  1.0000 -0.5464072417
O   O4        1.0  0.59340  0.48910  0.93740  1.0000 -0.6193357299
O   O5        1.0  0.26270  0.34030  0.99640  1.0000 -0.5881170919
O   O6        1.0  0.38500  0.34240  0.85830  1.0000 -0.5881170919
O   O7        1.0  0.23850  0.69040  0.76800  1.0000 -0.6092909168
O   O8        1.0  0.28550  0.54700  0.75890  1.0000 -0.5881170919
O   O9        1.0  0.27500  0.63380  0.02810  1.0000 -0.5464072417
O   O10       1.0  0.40660  0.51090  0.06260  1.0000 -0.6193357299
O   O11       1.0  0.73730  0.65970  0.00360  1.0000 -0.5881170919
O   O12       1.0  0.61500  0.65760  0.14170  1.0000 -0.5881170919
O   O13       1.0  0.73850  0.80960  0.76800  1.0000 -0.6092909168
O   O14       1.0  0.78550  0.95300  0.75890  1.0000 -0.5881170919
O   O15       1.0  0.77500  0.86620  0.02810  1.0000 -0.5464072417
O   O16       1.0  0.90660  0.98910  0.06260  1.0000 -0.6193357299
O   O17       1.0  0.23730  0.84030  0.00360  1.0000 -0.5881170919
O   O18       1.0  0.11500  0.84240  0.14170  1.0000 -0.5881170919
O   O19       1.0  0.26150  0.19040  0.23200  1.0000 -0.6092909168
O   O20       1.0  0.21450  0.04700  0.24110  1.0000 -0.5881170919
O   O21       1.0  0.22500  0.13380  0.97190  1.0000 -0.5464072417
O   O22       1.0  0.09340  0.01090  0.93740  1.0000 -0.6193357299
O   O23       1.0  0.76270  0.15970  0.99640  1.0000 -0.5881170919
O   O24       1.0  0.88500  0.15760  0.85830  1.0000 -0.5881170919
