# DDEC6 charges by PACMAN v1.1 (https://github.com/mtap-research/PACMAN-charge/)
data_2017[Cd][sql]2[ASR]15
_chemical_formula_sum              "Cd4 H80 C68 N16 O16"
_cell_length_a       13.9242
_cell_length_b       11.2
_cell_length_c       17.2396
_cell_angle_alpha    90
_cell_angle_beta     104.642
_cell_angle_gamma    90

_symmetry_space_group_name_H-M    "P 1"
_symmetry_Int_Tables_number       1

loop_
  _symmetry_equiv_pos_as_xyz
  'x, y, z'

loop_
  _atom_site_type_symbol
  _atom_site_label
  _atom_site_symmetry_multiplicity
  _atom_site_fract_x
  _atom_site_fract_y
  _atom_site_fract_z
  _atom_site_occupancy
  _atom_site_charge
Cd  Cd1       1.0  0.87192  0.30998  0.65874  1.0000 0.7698204864
Cd  Cd2       1.0  0.12808  0.80998  0.84126  1.0000 0.7698204864
Cd  Cd3       1.0  0.12808  0.69002  0.34126  1.0000 0.7698204864
Cd  Cd4       1.0  0.87192  0.19002  0.15874  1.0000 0.7698204864
H   H1        1.0  0.90500  0.39000  0.25500  1.0000 0.2455720056
H   H2        1.0  0.74600  0.30400  0.05900  1.0000 0.2433313925
H   H3        1.0  0.87380  0.25640  0.48020  1.0000 0.1076266766
H   H4        1.0  0.89480  0.54600  0.35050  1.0000 0.1298500832
H   H5        1.0  0.87710  0.66070  0.45830  1.0000 0.1298500832
H   H6        1.0  0.86340  0.56990  0.57450  1.0000 0.1076266766
H   H7        1.0  0.86740  0.22650  0.34520  1.0000 0.1175571593
H   H8        1.0  0.96870  0.28690  0.34590  1.0000 0.1298500832
H   H9        1.0  0.71600  0.31180  0.25250  1.0000 0.1076266766
H   H10       1.0  0.74690  0.44670  0.26600  1.0000 0.0996049343
H   H11       1.0  0.75750  0.45980  0.13090  1.0000 0.1298500832
H   H12       1.0  0.64950  0.42620  0.13470  1.0000 0.1076266766
H   H13       1.0  0.57020  0.27010  0.06560  1.0000 0.1076266766
H   H14       1.0  0.62140  0.18690  0.13740  1.0000 0.1175571593
H   H15       1.0  0.63760  0.98750  0.10940  1.0000 0.1076266766
H   H16       1.0  0.60490  0.21310  0.92910  1.0000 0.1175571593
H   H17       1.0  0.60330  0.04740  0.84410  1.0000 0.1175571593
H   H18       1.0  0.62040  0.85760  0.90390  1.0000 0.0937946096
H   H19       1.0  0.85100  0.56260  0.86650  1.0000 0.1586155083
H   H20       1.0  0.80560  0.65350  0.79770  1.0000 0.1586155083
H   H21       1.0  0.09500  0.89000  0.24500  1.0000 0.2455720056
H   H22       1.0  0.25400  0.80400  0.44100  1.0000 0.2433313925
H   H23       1.0  0.12620  0.75640  0.01980  1.0000 0.1076266766
H   H24       1.0  0.10520  0.04600  0.14950  1.0000 0.1298500832
H   H25       1.0  0.12290  0.16070  0.04170  1.0000 0.1298500832
H   H26       1.0  0.13660  0.06990  0.92550  1.0000 0.0996049343
H   H27       1.0  0.13260  0.72650  0.15480  1.0000 0.1175571593
H   H28       1.0  0.03130  0.78690  0.15410  1.0000 0.1298500832
H   H29       1.0  0.28400  0.81180  0.24750  1.0000 0.1076266766
H   H30       1.0  0.25310  0.94670  0.23400  1.0000 0.0996049343
H   H31       1.0  0.24250  0.95980  0.36910  1.0000 0.1298500832
H   H32       1.0  0.35050  0.92620  0.36530  1.0000 0.1076266766
H   H33       1.0  0.42980  0.77010  0.43440  1.0000 0.1076266766
H   H34       1.0  0.37860  0.68690  0.36260  1.0000 0.1175571593
H   H35       1.0  0.36240  0.48750  0.39060  1.0000 0.1076266766
H   H36       1.0  0.39510  0.71310  0.57090  1.0000 0.1175571593
H   H37       1.0  0.39670  0.54740  0.65590  1.0000 0.1175571593
H   H38       1.0  0.37960  0.35760  0.59610  1.0000 0.0937946096
H   H39       1.0  0.14900  0.06260  0.63350  1.0000 0.1586155083
H   H40       1.0  0.19440  0.15350  0.70230  1.0000 0.1586155083
H   H41       1.0  0.09500  0.61000  0.74500  1.0000 0.2455720056
H   H42       1.0  0.25400  0.69600  0.94100  1.0000 0.2433313925
H   H43       1.0  0.12620  0.74360  0.51980  1.0000 0.1076266766
H   H44       1.0  0.10520  0.45400  0.64950  1.0000 0.1298500832
H   H45       1.0  0.12290  0.33930  0.54170  1.0000 0.1298500832
H   H46       1.0  0.13660  0.43010  0.42550  1.0000 0.0996049343
H   H47       1.0  0.13260  0.77350  0.65480  1.0000 0.1175571593
H   H48       1.0  0.03130  0.71310  0.65410  1.0000 0.1298500832
H   H49       1.0  0.28400  0.68820  0.74750  1.0000 0.1076266766
H   H50       1.0  0.25310  0.55330  0.73400  1.0000 0.0996049343
H   H51       1.0  0.24250  0.54020  0.86910  1.0000 0.1298500832
H   H52       1.0  0.35050  0.57380  0.86530  1.0000 0.1076266766
H   H53       1.0  0.42980  0.72990  0.93440  1.0000 0.1076266766
H   H54       1.0  0.37860  0.81310  0.86260  1.0000 0.1175571593
H   H55       1.0  0.36240  0.01250  0.89060  1.0000 0.1076266766
H   H56       1.0  0.39510  0.78690  0.07090  1.0000 0.1175571593
H   H57       1.0  0.39670  0.95260  0.15590  1.0000 0.1175571593
H   H58       1.0  0.37960  0.14240  0.09610  1.0000 0.0937946096
H   H59       1.0  0.14900  0.43740  0.13350  1.0000 0.1586155083
H   H60       1.0  0.19440  0.34650  0.20230  1.0000 0.1586155083
H   H61       1.0  0.90500  0.11000  0.75500  1.0000 0.2455720056
H   H62       1.0  0.74600  0.19600  0.55900  1.0000 0.2433313925
H   H63       1.0  0.87380  0.24360  0.98020  1.0000 0.1076266766
H   H64       1.0  0.89480  0.95400  0.85050  1.0000 0.1298500832
H   H65       1.0  0.87710  0.83930  0.95830  1.0000 0.1298500832
H   H66       1.0  0.86340  0.93010  0.07450  1.0000 0.1076266766
H   H67       1.0  0.86740  0.27350  0.84520  1.0000 0.1175571593
H   H68       1.0  0.96870  0.21310  0.84590  1.0000 0.1298500832
H   H69       1.0  0.71600  0.18820  0.75250  1.0000 0.1076266766
H   H70       1.0  0.74690  0.05330  0.76600  1.0000 0.0996049343
H   H71       1.0  0.75750  0.04020  0.63090  1.0000 0.1298500832
H   H72       1.0  0.64950  0.07380  0.63470  1.0000 0.1076266766
H   H73       1.0  0.57020  0.22990  0.56560  1.0000 0.1076266766
H   H74       1.0  0.62140  0.31310  0.63740  1.0000 0.1175571593
H   H75       1.0  0.63760  0.51250  0.60940  1.0000 0.1076266766
H   H76       1.0  0.60490  0.28690  0.42910  1.0000 0.1175571593
H   H77       1.0  0.60330  0.45260  0.34410  1.0000 0.1175571593
H   H78       1.0  0.62040  0.64240  0.40390  1.0000 0.0937946096
H   H79       1.0  0.85100  0.93740  0.36650  1.0000 0.1586155083
H   H80       1.0  0.80560  0.84650  0.29770  1.0000 0.1586155083
C   C1        1.0  0.87610  0.33900  0.47540  1.0000 0.003484823
C   C2        1.0  0.88560  0.38550  0.40260  1.0000 0.0497342844
C   C3        1.0  0.88740  0.50950  0.39710  1.0000 -0.0992327619
C   C4        1.0  0.87790  0.57790  0.46190  1.0000 -0.1413354974
C   C5        1.0  0.86950  0.52310  0.53140  1.0000 0.0574986797
C   C6        1.0  0.89830  0.30190  0.33810  1.0000 -0.149673241
C   C7        1.0  0.75480  0.37500  0.23660  1.0000 -0.1108913392
C   C8        1.0  0.71740  0.39770  0.14630  1.0000 -0.0992327619
C   C9        1.0  0.62680  0.21830  0.08620  1.0000 -0.149673241
C   C10       1.0  0.62960  0.99960  0.05480  1.0000 0.0178210095
C   C11       1.0  0.62400  0.11730  0.02920  1.0000 0.0325777728
C   C12       1.0  0.61190  0.13590  0.94970  1.0000 -0.1108913392
C   C13       1.0  0.60990  0.03830  0.89880  1.0000 -0.1793882202
C   C14       1.0  0.61880  0.92370  0.93620  1.0000 0.0667420004
C   C15       1.0  0.86560  0.50520  0.75610  1.0000 0.6207877744
C   C16       1.0  0.86130  0.60070  0.81880  1.0000 -0.4863118779
C   C17       1.0  0.95460  0.67160  0.84010  1.0000 0.6295540679
C   C18       1.0  0.12390  0.83900  0.02460  1.0000 0.003484823
C   C19       1.0  0.11440  0.88550  0.09740  1.0000 0.0497342844
C   C20       1.0  0.11260  0.00950  0.10290  1.0000 -0.0992327619
C   C21       1.0  0.12210  0.07790  0.03810  1.0000 -0.1413354974
C   C22       1.0  0.13050  0.02310  0.96860  1.0000 0.0574986797
C   C23       1.0  0.10170  0.80190  0.16190  1.0000 -0.149673241
C   C24       1.0  0.24520  0.87500  0.26340  1.0000 -0.1108913392
C   C25       1.0  0.28260  0.89770  0.35370  1.0000 -0.0992327619
C   C26       1.0  0.37320  0.71830  0.41380  1.0000 -0.149673241
C   C27       1.0  0.37040  0.49960  0.44520  1.0000 0.0178210095
C   C28       1.0  0.37600  0.61730  0.47080  1.0000 0.0325777728
C   C29       1.0  0.38810  0.63590  0.55030  1.0000 -0.1108913392
C   C30       1.0  0.39010  0.53830  0.60120  1.0000 -0.1793882202
C   C31       1.0  0.38120  0.42370  0.56380  1.0000 0.0667420004
C   C32       1.0  0.13440  0.00520  0.74390  1.0000 0.6207877744
C   C33       1.0  0.13870  0.10070  0.68120  1.0000 -0.4863118779
C   C34       1.0  0.04540  0.17160  0.65990  1.0000 0.6295540679
C   C35       1.0  0.12390  0.66100  0.52460  1.0000 0.003484823
C   C36       1.0  0.11440  0.61450  0.59740  1.0000 0.0497342844
C   C37       1.0  0.11260  0.49050  0.60290  1.0000 -0.0992327619
C   C38       1.0  0.12210  0.42210  0.53810  1.0000 -0.1413354974
C   C39       1.0  0.13050  0.47690  0.46860  1.0000 0.0574986797
C   C40       1.0  0.10170  0.69810  0.66190  1.0000 -0.149673241
C   C41       1.0  0.24520  0.62500  0.76340  1.0000 -0.1108913392
C   C42       1.0  0.28260  0.60230  0.85370  1.0000 -0.0992327619
C   C43       1.0  0.37320  0.78170  0.91380  1.0000 -0.149673241
C   C44       1.0  0.37040  0.00040  0.94520  1.0000 0.0178210095
C   C45       1.0  0.37600  0.88270  0.97080  1.0000 0.0325777728
C   C46       1.0  0.38810  0.86410  0.05030  1.0000 -0.1108913392
C   C47       1.0  0.39010  0.96170  0.10120  1.0000 -0.1793882202
C   C48       1.0  0.38120  0.07630  0.06380  1.0000 0.0667420004
C   C49       1.0  0.13440  0.49480  0.24390  1.0000 0.6207877744
C   C50       1.0  0.13870  0.39930  0.18120  1.0000 -0.4863118779
C   C51       1.0  0.04540  0.32840  0.15990  1.0000 0.6295540679
C   C52       1.0  0.87610  0.16100  0.97540  1.0000 0.003484823
C   C53       1.0  0.88560  0.11450  0.90260  1.0000 0.0497342844
C   C54       1.0  0.88740  0.99050  0.89710  1.0000 -0.0992327619
C   C55       1.0  0.87790  0.92210  0.96190  1.0000 -0.1413354974
C   C56       1.0  0.86950  0.97690  0.03140  1.0000 0.0574986797
C   C57       1.0  0.89830  0.19810  0.83810  1.0000 -0.149673241
C   C58       1.0  0.75480  0.12500  0.73660  1.0000 -0.1108913392
C   C59       1.0  0.71740  0.10230  0.64630  1.0000 -0.0992327619
C   C60       1.0  0.62680  0.28170  0.58620  1.0000 -0.149673241
C   C61       1.0  0.62960  0.50040  0.55480  1.0000 0.0178210095
C   C62       1.0  0.62400  0.38270  0.52920  1.0000 0.0325777728
C   C63       1.0  0.61190  0.36410  0.44970  1.0000 -0.1108913392
C   C64       1.0  0.60990  0.46170  0.39880  1.0000 -0.1793882202
C   C65       1.0  0.61880  0.57630  0.43620  1.0000 0.0667420004
C   C66       1.0  0.86560  0.99480  0.25610  1.0000 0.6207877744
C   C67       1.0  0.86130  0.89930  0.31880  1.0000 -0.4863118779
C   C68       1.0  0.95460  0.82840  0.34010  1.0000 0.6295540679
N   N1        1.0  0.87020  0.40450  0.53840  1.0000 -0.2463202875
N   N2        1.0  0.85810  0.34100  0.25560  1.0000 -0.2963268112
N   N3        1.0  0.72140  0.29060  0.09860  1.0000 -0.2805561375
N   N4        1.0  0.62480  0.90410  0.01100  1.0000 -0.2734301489
N   N5        1.0  0.12980  0.90450  0.96160  1.0000 -0.2463202875
N   N6        1.0  0.14190  0.84100  0.24440  1.0000 -0.2963268112
N   N7        1.0  0.27860  0.79060  0.40140  1.0000 -0.2805561375
N   N8        1.0  0.37520  0.40410  0.48900  1.0000 -0.2734301489
N   N9        1.0  0.12980  0.59550  0.46160  1.0000 -0.2463202875
N   N10       1.0  0.14190  0.65900  0.74440  1.0000 -0.2963268112
N   N11       1.0  0.27860  0.70940  0.90140  1.0000 -0.2805561375
N   N12       1.0  0.37520  0.09590  0.98900  1.0000 -0.2734301489
N   N13       1.0  0.87020  0.09550  0.03840  1.0000 -0.2463202875
N   N14       1.0  0.85810  0.15900  0.75560  1.0000 -0.2963268112
N   N15       1.0  0.72140  0.20940  0.59860  1.0000 -0.2805561375
N   N16       1.0  0.62480  0.59590  0.51100  1.0000 -0.2734301489
O   O1        1.0  0.02690  0.63600  0.89370  1.0000 -0.5927907836
O   O2        1.0  0.96070  0.76320  0.80030  1.0000 -0.5564952742
O   O3        1.0  0.93870  0.49220  0.73180  1.0000 -0.5117785584
O   O4        1.0  0.78980  0.43880  0.73250  1.0000 -0.5952093851
O   O5        1.0  0.97310  0.13600  0.60630  1.0000 -0.5927907836
O   O6        1.0  0.03930  0.26320  0.69970  1.0000 -0.5564952742
O   O7        1.0  0.06130  0.99220  0.76820  1.0000 -0.5117785584
O   O8        1.0  0.21020  0.93880  0.76750  1.0000 -0.5952093851
O   O9        1.0  0.97310  0.36400  0.10630  1.0000 -0.5927907836
O   O10       1.0  0.03930  0.23680  0.19970  1.0000 -0.5564952742
O   O11       1.0  0.06130  0.50780  0.26820  1.0000 -0.5117785584
O   O12       1.0  0.21020  0.56120  0.26750  1.0000 -0.5952093851
O   O13       1.0  0.02690  0.86400  0.39370  1.0000 -0.5927907836
O   O14       1.0  0.96070  0.73680  0.30030  1.0000 -0.5564952742
O   O15       1.0  0.93870  0.00780  0.23180  1.0000 -0.5117785584
O   O16       1.0  0.78980  0.06120  0.23250  1.0000 -0.5927907836
