# DDEC6 charges by PACMAN v1.1 (https://github.com/mtap-research/PACMAN-charge/)
data_2017[PrCu][nan]3[ASR]2
_chemical_formula_sum              "Pr8 Cu16 H112 C168 I12 N28 O56"
_cell_length_a       9.357
_cell_length_b       22.932
_cell_length_c       31.089
_cell_angle_alpha    90
_cell_angle_beta     90
_cell_angle_gamma    90

_symmetry_space_group_name_H-M    "P 1"
_symmetry_Int_Tables_number       1

loop_
  _symmetry_equiv_pos_as_xyz
  'x, y, z'

loop_
  _atom_site_type_symbol
  _atom_site_label
  _atom_site_symmetry_multiplicity
  _atom_site_fract_x
  _atom_site_fract_y
  _atom_site_fract_z
  _atom_site_occupancy
  _atom_site_charge
Pr  Pr1       1.0  0.99246  0.47085  0.52209  1.0000 2.1911549887
Pr  Pr2       1.0  0.46138  0.44150  0.51521  1.0000 2.1911549887
Pr  Pr3       1.0  0.50754  0.52915  0.02209  1.0000 2.1911549887
Pr  Pr4       1.0  0.03862  0.55850  0.01521  1.0000 2.1911549887
Pr  Pr5       1.0  0.00754  0.97085  0.97791  1.0000 2.1911549887
Pr  Pr6       1.0  0.53862  0.94150  0.98479  1.0000 2.1911549887
Pr  Pr7       1.0  0.49246  0.02915  0.47791  1.0000 2.1911549887
Pr  Pr8       1.0  0.96138  0.05850  0.48479  1.0000 2.1911549887
Cu  Cu1       1.0  0.21590  0.73412  0.31825  1.0000 0.2063385537
Cu  Cu2       1.0  0.25640  0.21629  0.73936  1.0000 0.1864168367
Cu  Cu3       1.0  0.51290  0.63974  0.75139  1.0000 0.2039901911
Cu  Cu4       1.0  0.54040  0.61667  0.27497  1.0000 0.2039901911
Cu  Cu5       1.0  0.28410  0.26588  0.81825  1.0000 0.2063385537
Cu  Cu6       1.0  0.24360  0.78371  0.23936  1.0000 0.1864168367
Cu  Cu7       1.0  0.98710  0.36026  0.25139  1.0000 0.2039901911
Cu  Cu8       1.0  0.95960  0.38333  0.77497  1.0000 0.2063385537
Cu  Cu9       1.0  0.78410  0.23412  0.18175  1.0000 0.2063385537
Cu  Cu10      1.0  0.74360  0.71629  0.76064  1.0000 0.1864168367
Cu  Cu11      1.0  0.48710  0.13974  0.74861  1.0000 0.2039901911
Cu  Cu12      1.0  0.45960  0.11667  0.22503  1.0000 0.2039901911
Cu  Cu13      1.0  0.71590  0.76588  0.68175  1.0000 0.2063385537
Cu  Cu14      1.0  0.75640  0.28371  0.26064  1.0000 0.1864168367
Cu  Cu15      1.0  0.01290  0.86026  0.24861  1.0000 0.2039901911
Cu  Cu16      1.0  0.04040  0.88333  0.72503  1.0000 0.2039901911
H   H1        1.0  0.43810  0.59220  0.42060  1.0000 0.1321308084
H   H2        1.0  0.03090  0.62270  0.44940  1.0000 0.1397439214
H   H3        1.0  0.00060  0.31960  0.62260  1.0000 0.1321308084
H   H4        1.0  0.42250  0.31170  0.60230  1.0000 0.1397439214
H   H5        1.0  0.10560  0.57940  0.65960  1.0000 0.1397439214
H   H6        1.0  0.47730  0.50290  0.62800  1.0000 0.146329775
H   H7        1.0  0.41640  0.64520  0.35870  1.0000 0.0928081236
H   H8        1.0  0.01680  0.67740  0.38200  1.0000 0.0928081236
H   H9        1.0  0.03130  0.25810  0.67960  1.0000 0.100581845
H   H10       1.0  0.44680  0.26020  0.66610  1.0000 0.0928081236
H   H11       1.0  0.22450  0.62850  0.71050  1.0000 0.1196927188
H   H12       1.0  0.57470  0.54580  0.68830  1.0000 0.100581845
H   H13       1.0  0.55640  0.45440  0.38020  1.0000 0.146329775
H   H14       1.0  0.82450  0.58810  0.40760  1.0000 0.1321308084
H   H15       1.0  0.88380  0.48030  0.63920  1.0000 0.1397439214
H   H16       1.0  0.65730  0.33530  0.65210  1.0000 0.1321308084
H   H17       1.0  0.48850  0.62860  0.57770  1.0000 0.1397439214
H   H18       1.0  0.90080  0.59030  0.60260  1.0000 0.1397439214
H   H19       1.0  0.50120  0.50610  0.31990  1.0000 0.1081869422
H   H20       1.0  0.74250  0.63330  0.34790  1.0000 0.1081869422
H   H21       1.0  0.97660  0.46880  0.70330  1.0000 0.1081869422
H   H22       1.0  0.75550  0.32090  0.71480  1.0000 0.1081869422
H   H23       1.0  0.50400  0.70410  0.62520  1.0000 0.0928081236
H   H24       1.0  0.89850  0.66470  0.65220  1.0000 0.100581845
H   H25       1.0  0.61430  0.60600  0.83740  1.0000 0.100581845
H   H26       1.0  0.23810  0.66320  0.80490  1.0000 0.1081869422
H   H27       1.0  0.53500  0.58070  0.90490  1.0000 0.146329775
H   H28       1.0  0.15030  0.64210  0.87040  1.0000 0.1397439214
H   H29       1.0  0.06190  0.40780  0.92060  1.0000 0.1321308084
H   H30       1.0  0.46910  0.37730  0.94940  1.0000 0.1397439214
H   H31       1.0  0.49940  0.68040  0.12260  1.0000 0.1321308084
H   H32       1.0  0.07750  0.68830  0.10230  1.0000 0.1397439214
H   H33       1.0  0.39440  0.42060  0.15960  1.0000 0.1397439214
H   H34       1.0  0.02270  0.49710  0.12800  1.0000 0.146329775
H   H35       1.0  0.08360  0.35480  0.85870  1.0000 0.0928081236
H   H36       1.0  0.48320  0.32260  0.88200  1.0000 0.0928081236
H   H37       1.0  0.46870  0.74190  0.17960  1.0000 0.100581845
H   H38       1.0  0.05320  0.73980  0.16610  1.0000 0.0928081236
H   H39       1.0  0.27550  0.37150  0.21050  1.0000 0.1196927188
H   H40       1.0  0.92530  0.45420  0.18830  1.0000 0.100581845
H   H41       1.0  0.94360  0.54560  0.88020  1.0000 0.146329775
H   H42       1.0  0.67550  0.41190  0.90760  1.0000 0.1321308084
H   H43       1.0  0.61620  0.51970  0.13920  1.0000 0.1397439214
H   H44       1.0  0.84270  0.66470  0.15210  1.0000 0.1321308084
H   H45       1.0  0.01150  0.37140  0.07770  1.0000 0.1397439214
H   H46       1.0  0.59920  0.40970  0.10260  1.0000 0.1397439214
H   H47       1.0  0.99880  0.49390  0.81990  1.0000 0.1081869422
H   H48       1.0  0.75750  0.36670  0.84790  1.0000 0.1081869422
H   H49       1.0  0.52340  0.53120  0.20330  1.0000 0.1081869422
H   H50       1.0  0.74450  0.67910  0.21480  1.0000 0.1081869422
H   H51       1.0  0.99600  0.29590  0.12520  1.0000 0.0928081236
H   H52       1.0  0.60150  0.33530  0.15220  1.0000 0.100581845
H   H53       1.0  0.88570  0.39400  0.33740  1.0000 0.100581845
H   H54       1.0  0.26190  0.33680  0.30490  1.0000 0.1081869422
H   H55       1.0  0.96500  0.41930  0.40490  1.0000 0.146329775
H   H56       1.0  0.34970  0.35790  0.37040  1.0000 0.1397439214
H   H57       1.0  0.56190  0.09220  0.07940  1.0000 0.1321308084
H   H58       1.0  0.96910  0.12270  0.05060  1.0000 0.1397439214
H   H59       1.0  0.99940  0.81960  0.87740  1.0000 0.1321308084
H   H60       1.0  0.57750  0.81170  0.89770  1.0000 0.1397439214
H   H61       1.0  0.89440  0.07940  0.84040  1.0000 0.1397439214
H   H62       1.0  0.52270  0.00290  0.87200  1.0000 0.146329775
H   H63       1.0  0.58360  0.14520  0.14130  1.0000 0.0928081236
H   H64       1.0  0.98320  0.17740  0.11800  1.0000 0.0928081236
H   H65       1.0  0.96870  0.75810  0.82040  1.0000 0.100581845
H   H66       1.0  0.55320  0.76020  0.83390  1.0000 0.0928081236
H   H67       1.0  0.77550  0.12850  0.78950  1.0000 0.1196927188
H   H68       1.0  0.42530  0.04580  0.81170  1.0000 0.100581845
H   H69       1.0  0.44360  0.95440  0.11980  1.0000 0.146329775
H   H70       1.0  0.17550  0.08810  0.09240  1.0000 0.1321308084
H   H71       1.0  0.11620  0.98030  0.86080  1.0000 0.1397439214
H   H72       1.0  0.34270  0.83530  0.84790  1.0000 0.1321308084
H   H73       1.0  0.51150  0.12860  0.92230  1.0000 0.1397439214
H   H74       1.0  0.09920  0.09030  0.89740  1.0000 0.1397439214
H   H75       1.0  0.49880  0.00610  0.18010  1.0000 0.1081869422
H   H76       1.0  0.25750  0.13330  0.15210  1.0000 0.1081869422
H   H77       1.0  0.02340  0.96880  0.79670  1.0000 0.1081869422
H   H78       1.0  0.24450  0.82090  0.78520  1.0000 0.1081869422
H   H79       1.0  0.49600  0.20410  0.87480  1.0000 0.0928081236
H   H80       1.0  0.10150  0.16470  0.84780  1.0000 0.100581845
H   H81       1.0  0.38570  0.10600  0.66260  1.0000 0.100581845
H   H82       1.0  0.76190  0.16320  0.69510  1.0000 0.1081869422
H   H83       1.0  0.46500  0.08070  0.59510  1.0000 0.146329775
H   H84       1.0  0.84970  0.14210  0.62960  1.0000 0.1397439214
H   H85       1.0  0.93810  0.90780  0.57940  1.0000 0.1321308084
H   H86       1.0  0.53090  0.87730  0.55060  1.0000 0.1397439214
H   H87       1.0  0.50060  0.18040  0.37740  1.0000 0.1321308084
H   H88       1.0  0.92250  0.18830  0.39770  1.0000 0.1397439214
H   H89       1.0  0.60560  0.92060  0.34040  1.0000 0.1397439214
H   H90       1.0  0.97730  0.99710  0.37200  1.0000 0.146329775
H   H91       1.0  0.91640  0.85480  0.64130  1.0000 0.0928081236
H   H92       1.0  0.51680  0.82260  0.61800  1.0000 0.0928081236
H   H93       1.0  0.53130  0.24190  0.32040  1.0000 0.100581845
H   H94       1.0  0.94680  0.23980  0.33390  1.0000 0.0928081236
H   H95       1.0  0.72450  0.87150  0.28950  1.0000 0.1196927188
H   H96       1.0  0.07470  0.95420  0.31170  1.0000 0.100581845
H   H97       1.0  0.05640  0.04560  0.61980  1.0000 0.146329775
H   H98       1.0  0.32450  0.91190  0.59240  1.0000 0.1321308084
H   H99       1.0  0.38380  0.01970  0.36080  1.0000 0.1397439214
H   H100      1.0  0.15730  0.16470  0.34790  1.0000 0.1321308084
H   H101      1.0  0.98850  0.87140  0.42230  1.0000 0.1397439214
H   H102      1.0  0.40080  0.90970  0.39740  1.0000 0.1397439214
H   H103      1.0  0.00120  0.99390  0.68010  1.0000 0.1081869422
H   H104      1.0  0.24250  0.86670  0.65210  1.0000 0.1081869422
H   H105      1.0  0.47660  0.03120  0.29670  1.0000 0.1081869422
H   H106      1.0  0.25550  0.17910  0.28520  1.0000 0.1081869422
H   H107      1.0  0.00400  0.79590  0.37480  1.0000 0.0928081236
H   H108      1.0  0.39850  0.83530  0.34780  1.0000 0.100581845
H   H109      1.0  0.11430  0.89400  0.16260  1.0000 0.100581845
H   H110      1.0  0.73810  0.83680  0.19510  1.0000 0.1081869422
H   H111      1.0  0.03500  0.91930  0.09510  1.0000 0.146329775
H   H112      1.0  0.65030  0.85790  0.12960  1.0000 0.1397439214
C   C1        1.0  0.24270  0.55420  0.47400  1.0000 0.6404651945
C   C2        1.0  0.19870  0.35950  0.56460  1.0000 0.6404651945
C   C3        1.0  0.21100  0.50940  0.59600  1.0000 0.6156869253
C   C4        1.0  0.23500  0.59450  0.43650  1.0000 0.0128161178
C   C5        1.0  0.21000  0.32210  0.60650  1.0000 0.0270864562
C   C6        1.0  0.28000  0.53740  0.63430  1.0000 0.0246629233
C   C7        1.0  0.34900  0.60710  0.41280  1.0000 -0.1267490813
C   C8        1.0  0.10700  0.62490  0.43030  1.0000 -0.1608260291
C   C9        1.0  0.09100  0.30650  0.63010  1.0000 -0.1485646421
C   C10       1.0  0.34250  0.30300  0.61880  1.0000 -0.1421983035
C   C11       1.0  0.20400  0.57410  0.66280  1.0000 -0.1608260291
C   C12       1.0  0.42170  0.52750  0.64490  1.0000 -0.1485646421
C   C13       1.0  0.33800  0.64200  0.37690  1.0000 0.0427775161
C   C14       1.0  0.10400  0.66150  0.39040  1.0000 0.0928081236
C   C15       1.0  0.11210  0.27090  0.66500  1.0000 0.0606327503
C   C16       1.0  0.35600  0.27040  0.65660  1.0000 0.0606327503
C   C17       1.0  0.27400  0.60110  0.69430  1.0000 0.0514901624
C   C18       1.0  0.48100  0.55450  0.68070  1.0000 0.0928081236
C   C19       1.0  0.73670  0.48630  0.44280  1.0000 0.630565094
C   C20       1.0  0.70110  0.41680  0.58930  1.0000 0.6044410786
C   C21       1.0  0.69730  0.55580  0.54980  1.0000 0.630565094
C   C22       1.0  0.69800  0.51570  0.40350  1.0000 -0.0192595187
C   C23       1.0  0.76200  0.41010  0.63270  1.0000 0.0128161178
C   C24       1.0  0.69570  0.60170  0.58240  1.0000 -0.0192595187
C   C25       1.0  0.59800  0.49050  0.37510  1.0000 -0.1608260291
C   C26       1.0  0.75400  0.57020  0.39100  1.0000 -0.1608260291
C   C27       1.0  0.85700  0.44700  0.65420  1.0000 -0.1608260291
C   C28       1.0  0.72500  0.36210  0.66150  1.0000 -0.1608260291
C   C29       1.0  0.57500  0.63600  0.59160  1.0000 -0.1485646421
C   C30       1.0  0.81880  0.61260  0.60650  1.0000 -0.1485646421
C   C31       1.0  0.56500  0.52360  0.33890  1.0000 0.0718406981
C   C32       1.0  0.70500  0.59670  0.35440  1.0000 0.0427775161
C   C33       1.0  0.91300  0.44140  0.69260  1.0000 0.0514901624
C   C34       1.0  0.78000  0.35410  0.69920  1.0000 0.0514901624
C   C35       1.0  0.58400  0.68060  0.62110  1.0000 0.0606327503
C   C36       1.0  0.81600  0.65780  0.63650  1.0000 0.0718406981
C   C37       1.0  0.51900  0.61290  0.84400  1.0000 0.0750652721
C   C38       1.0  0.29900  0.64660  0.82510  1.0000 0.0270864562
C   C39       1.0  0.47370  0.59870  0.88550  1.0000 -0.1485646421
C   C40       1.0  0.24600  0.63490  0.86460  1.0000 -0.1485646421
C   C41       1.0  0.33240  0.61250  0.89670  1.0000 0.0270864562
C   C42       1.0  0.27290  0.59530  0.94130  1.0000 0.630565094
C   C43       1.0  0.25730  0.44580  0.97400  1.0000 0.6404651945
C   C44       1.0  0.30130  0.64050  0.06460  1.0000 0.6404651945
C   C45       1.0  0.28900  0.49060  0.09600  1.0000 0.6156869253
C   C46       1.0  0.26500  0.40550  0.93650  1.0000 0.0128161178
C   C47       1.0  0.29000  0.67790  0.10650  1.0000 0.0270864562
C   C48       1.0  0.22000  0.46260  0.13430  1.0000 0.0270864562
C   C49       1.0  0.15100  0.39290  0.91280  1.0000 -0.1267490813
C   C50       1.0  0.39300  0.37510  0.93030  1.0000 -0.1608260291
C   C51       1.0  0.40900  0.69350  0.13010  1.0000 -0.1485646421
C   C52       1.0  0.15750  0.69700  0.11880  1.0000 -0.1421983035
C   C53       1.0  0.29600  0.42590  0.16280  1.0000 -0.1608260291
C   C54       1.0  0.07830  0.47250  0.14490  1.0000 -0.1485646421
C   C55       1.0  0.16200  0.35800  0.87690  1.0000 0.0427775161
C   C56       1.0  0.39600  0.33850  0.89040  1.0000 0.0928081236
C   C57       1.0  0.38790  0.72910  0.16500  1.0000 0.0606327503
C   C58       1.0  0.14400  0.72960  0.15660  1.0000 0.0606327503
C   C59       1.0  0.22600  0.39890  0.19430  1.0000 0.0514901624
C   C60       1.0  0.01900  0.44550  0.18070  1.0000 0.0928081236
C   C61       1.0  0.76330  0.51370  0.94280  1.0000 0.630565094
C   C62       1.0  0.79890  0.58320  0.08930  1.0000 0.6044410786
C   C63       1.0  0.80270  0.44420  0.04980  1.0000 0.630565094
C   C64       1.0  0.80200  0.48430  0.90350  1.0000 -0.0192595187
C   C65       1.0  0.73800  0.58990  0.13270  1.0000 0.0128161178
C   C66       1.0  0.80430  0.39830  0.08240  1.0000 -0.0192595187
C   C67       1.0  0.90200  0.50950  0.87510  1.0000 -0.1608260291
C   C68       1.0  0.74600  0.42980  0.89100  1.0000 -0.1608260291
C   C69       1.0  0.64300  0.55300  0.15420  1.0000 -0.1608260291
C   C70       1.0  0.77500  0.63790  0.16150  1.0000 -0.1608260291
C   C71       1.0  0.92500  0.36400  0.09160  1.0000 -0.1485646421
C   C72       1.0  0.68120  0.38740  0.10650  1.0000 -0.1485646421
C   C73       1.0  0.93500  0.47640  0.83890  1.0000 0.0718406981
C   C74       1.0  0.79500  0.40330  0.85440  1.0000 0.0427775161
C   C75       1.0  0.58700  0.55860  0.19260  1.0000 0.0514901624
C   C76       1.0  0.72000  0.64590  0.19920  1.0000 0.0514901624
C   C77       1.0  0.91600  0.31940  0.12110  1.0000 0.0606327503
C   C78       1.0  0.68400  0.34220  0.13650  1.0000 0.0718406981
C   C79       1.0  0.98100  0.38710  0.34400  1.0000 0.0750652721
C   C80       1.0  0.20100  0.35340  0.32510  1.0000 0.0270864562
C   C81       1.0  0.02630  0.40130  0.38550  1.0000 -0.1485646421
C   C82       1.0  0.25400  0.36510  0.36460  1.0000 -0.1485646421
C   C83       1.0  0.16760  0.38750  0.39670  1.0000 0.0270864562
C   C84       1.0  0.22710  0.40470  0.44130  1.0000 0.630565094
C   C85       1.0  0.75730  0.05420  0.02600  1.0000 0.6404651945
C   C86       1.0  0.80130  0.85950  0.93540  1.0000 0.6404651945
C   C87       1.0  0.78900  0.00940  0.90400  1.0000 0.6156869253
C   C88       1.0  0.76500  0.09450  0.06350  1.0000 0.0128161178
C   C89       1.0  0.79000  0.82210  0.89350  1.0000 0.0270864562
C   C90       1.0  0.72000  0.03740  0.86570  1.0000 0.0270864562
C   C91       1.0  0.65100  0.10710  0.08720  1.0000 -0.1267490813
C   C92       1.0  0.89300  0.12490  0.06970  1.0000 -0.1608260291
C   C93       1.0  0.90900  0.80650  0.86990  1.0000 -0.1485646421
C   C94       1.0  0.65750  0.80300  0.88120  1.0000 -0.1421983035
C   C95       1.0  0.79600  0.07410  0.83720  1.0000 -0.1608260291
C   C96       1.0  0.57830  0.02750  0.85510  1.0000 -0.1485646421
C   C97       1.0  0.66200  0.14200  0.12310  1.0000 0.0427775161
C   C98       1.0  0.89600  0.16150  0.10960  1.0000 0.0928081236
C   C99       1.0  0.88790  0.77090  0.83500  1.0000 0.0606327503
C   C100      1.0  0.64400  0.77040  0.84340  1.0000 0.0606327503
C   C101      1.0  0.72600  0.10110  0.80570  1.0000 0.0514901624
C   C102      1.0  0.51900  0.05450  0.81930  1.0000 0.0928081236
C   C103      1.0  0.26330  0.98630  0.05720  1.0000 0.630565094
C   C104      1.0  0.29890  0.91680  0.91070  1.0000 0.6044410786
C   C105      1.0  0.30270  0.05580  0.95020  1.0000 0.630565094
C   C106      1.0  0.30200  0.01570  0.09650  1.0000 -0.0192595187
C   C107      1.0  0.23800  0.91010  0.86730  1.0000 0.0128161178
C   C108      1.0  0.30430  0.10170  0.91760  1.0000 -0.0192595187
C   C109      1.0  0.40200  0.99050  0.12490  1.0000 -0.1608260291
C   C110      1.0  0.24600  0.07020  0.10900  1.0000 -0.1608260291
C   C111      1.0  0.14300  0.94700  0.84580  1.0000 -0.1608260291
C   C112      1.0  0.27500  0.86210  0.83850  1.0000 -0.1608260291
C   C113      1.0  0.42500  0.13600  0.90840  1.0000 -0.1485646421
C   C114      1.0  0.18120  0.11260  0.89350  1.0000 -0.1485646421
C   C115      1.0  0.43500  0.02360  0.16110  1.0000 0.0718406981
C   C116      1.0  0.29500  0.09670  0.14560  1.0000 0.0427775161
C   C117      1.0  0.08700  0.94140  0.80740  1.0000 0.0514901624
C   C118      1.0  0.22000  0.85410  0.80080  1.0000 0.0514901624
C   C119      1.0  0.41600  0.18060  0.87890  1.0000 0.0606327503
C   C120      1.0  0.18400  0.15780  0.86350  1.0000 0.0718406981
C   C121      1.0  0.48100  0.11290  0.65600  1.0000 0.0750652721
C   C122      1.0  0.70100  0.14660  0.67490  1.0000 0.0270864562
C   C123      1.0  0.52630  0.09870  0.61450  1.0000 -0.1485646421
C   C124      1.0  0.75400  0.13490  0.63540  1.0000 -0.1485646421
C   C125      1.0  0.66760  0.11250  0.60330  1.0000 0.0270864562
C   C126      1.0  0.72710  0.09530  0.55870  1.0000 0.630565094
C   C127      1.0  0.74270  0.94580  0.52600  1.0000 0.6404651945
C   C128      1.0  0.69870  0.14050  0.43540  1.0000 0.6404651945
C   C129      1.0  0.71100  0.99060  0.40400  1.0000 0.6156869253
C   C130      1.0  0.73500  0.90550  0.56350  1.0000 0.0128161178
C   C131      1.0  0.71000  0.17790  0.39350  1.0000 0.0270864562
C   C132      1.0  0.78000  0.96260  0.36570  1.0000 0.0270864562
C   C133      1.0  0.84900  0.89290  0.58720  1.0000 -0.1267490813
C   C134      1.0  0.60700  0.87510  0.56970  1.0000 -0.1608260291
C   C135      1.0  0.59100  0.19350  0.36990  1.0000 -0.1485646421
C   C136      1.0  0.84250  0.19700  0.38120  1.0000 -0.1421983035
C   C137      1.0  0.70400  0.92590  0.33720  1.0000 -0.1608260291
C   C138      1.0  0.92170  0.97250  0.35510  1.0000 -0.1485646421
C   C139      1.0  0.83800  0.85800  0.62310  1.0000 0.0427775161
C   C140      1.0  0.60400  0.83850  0.60960  1.0000 0.0928081236
C   C141      1.0  0.61210  0.22910  0.33500  1.0000 0.0606327503
C   C142      1.0  0.85600  0.22960  0.34340  1.0000 0.0606327503
C   C143      1.0  0.77400  0.89890  0.30570  1.0000 0.0514901624
C   C144      1.0  0.98100  0.94550  0.31930  1.0000 0.0928081236
C   C145      1.0  0.23670  0.01370  0.55720  1.0000 0.630565094
C   C146      1.0  0.20110  0.08320  0.41070  1.0000 0.6044410786
C   C147      1.0  0.19730  0.94420  0.45020  1.0000 0.630565094
C   C148      1.0  0.19800  0.98430  0.59650  1.0000 -0.0192595187
C   C149      1.0  0.26200  0.08990  0.36730  1.0000 0.0128161178
C   C150      1.0  0.19570  0.89830  0.41760  1.0000 -0.0192595187
C   C151      1.0  0.09800  0.00950  0.62490  1.0000 -0.1608260291
C   C152      1.0  0.25400  0.92980  0.60900  1.0000 -0.1608260291
C   C153      1.0  0.35700  0.05300  0.34580  1.0000 -0.1608260291
C   C154      1.0  0.22500  0.13790  0.33850  1.0000 -0.1608260291
C   C155      1.0  0.07500  0.86400  0.40840  1.0000 -0.1485646421
C   C156      1.0  0.31880  0.88740  0.39350  1.0000 -0.1485646421
C   C157      1.0  0.06500  0.97640  0.66110  1.0000 0.0718406981
C   C158      1.0  0.20500  0.90330  0.64560  1.0000 0.0427775161
C   C159      1.0  0.41300  0.05860  0.30740  1.0000 0.0514901624
C   C160      1.0  0.28000  0.14590  0.30080  1.0000 0.0514901624
C   C161      1.0  0.08400  0.81940  0.37890  1.0000 0.0606327503
C   C162      1.0  0.31600  0.84220  0.36350  1.0000 0.0718406981
C   C163      1.0  0.01900  0.88710  0.15600  1.0000 0.0750652721
C   C164      1.0  0.79900  0.85340  0.17490  1.0000 0.0270864562
C   C165      1.0  0.97370  0.90130  0.11450  1.0000 -0.1485646421
C   C166      1.0  0.74600  0.86510  0.13540  1.0000 -0.1485646421
C   C167      1.0  0.83240  0.88750  0.10330  1.0000 0.0270864562
C   C168      1.0  0.77290  0.90470  0.05870  1.0000 0.630565094
I   I1        1.0  0.79031  0.60525  0.75398  1.0000 -0.441318264
I   I2        1.0  0.48575  0.75487  0.72983  1.0000 -0.401099501
I   I3        1.0  0.97313  0.77080  0.71778  1.0000 -0.401099501
I   I4        1.0  0.70969  0.39475  0.25398  1.0000 -0.441318264
I   I5        1.0  0.01425  0.24513  0.22983  1.0000 -0.401099501
I   I6        1.0  0.52687  0.22920  0.21778  1.0000 -0.401099501
I   I7        1.0  0.20969  0.10525  0.74602  1.0000 -0.441318264
I   I8        1.0  0.51425  0.25487  0.77017  1.0000 -0.401099501
I   I9        1.0  0.02687  0.27080  0.78222  1.0000 -0.401099501
I   I10       1.0  0.29031  0.89475  0.24602  1.0000 -0.441318264
I   I11       1.0  0.98575  0.74513  0.27017  1.0000 -0.401099501
I   I12       1.0  0.47313  0.72920  0.28222  1.0000 -0.401099501
N   N1        1.0  0.21500  0.67230  0.36680  1.0000 -0.1700692529
N   N2        1.0  0.24020  0.25300  0.67990  1.0000 -0.1700692529
N   N3        1.0  0.40990  0.59160  0.70410  1.0000 -0.1700692529
N   N4        1.0  0.43800  0.63530  0.81300  1.0000 -0.1891767797
N   N5        1.0  0.60910  0.57480  0.32730  1.0000 -0.1891767797
N   N6        1.0  0.87360  0.39330  0.71690  1.0000 -0.1825026253
N   N7        1.0  0.70170  0.69220  0.64450  1.0000 -0.1891767797
N   N8        1.0  0.28500  0.32770  0.86680  1.0000 -0.1700692529
N   N9        1.0  0.25980  0.74700  0.17990  1.0000 -0.1700692529
N   N10       1.0  0.09010  0.40840  0.20410  1.0000 -0.1700692529
N   N11       1.0  0.06200  0.36470  0.31300  1.0000 -0.1891767797
N   N12       1.0  0.89090  0.42520  0.82730  1.0000 -0.1891767797
N   N13       1.0  0.62640  0.60670  0.21690  1.0000 -0.1825026253
N   N14       1.0  0.79830  0.30780  0.14450  1.0000 -0.1891767797
N   N15       1.0  0.78500  0.17230  0.13320  1.0000 -0.1700692529
N   N16       1.0  0.75980  0.75300  0.82010  1.0000 -0.1700692529
N   N17       1.0  0.59010  0.09160  0.79590  1.0000 -0.1700692529
N   N18       1.0  0.56200  0.13530  0.68700  1.0000 -0.1891767797
N   N19       1.0  0.39090  0.07480  0.17270  1.0000 -0.1891767797
N   N20       1.0  0.12640  0.89330  0.78310  1.0000 -0.1825026253
N   N21       1.0  0.29830  0.19220  0.85550  1.0000 -0.1891767797
N   N22       1.0  0.71500  0.82770  0.63320  1.0000 -0.1700692529
N   N23       1.0  0.74020  0.24700  0.32010  1.0000 -0.1700692529
N   N24       1.0  0.90990  0.90840  0.29590  1.0000 -0.1700692529
N   N25       1.0  0.93800  0.86470  0.18700  1.0000 -0.1891767797
N   N26       1.0  0.10910  0.92520  0.67270  1.0000 -0.1891767797
N   N27       1.0  0.37360  0.10670  0.28310  1.0000 -0.1825026253
N   N28       1.0  0.20170  0.80780  0.35550  1.0000 -0.1891767797
O   O1        1.0  0.13120  0.54880  0.49630  1.0000 -0.6624930778
O   O2        1.0  0.07370  0.38310  0.55870  1.0000 -0.6912593672
O   O3        1.0  0.07970  0.51670  0.59000  1.0000 -0.6392694319
O   O4        1.0  0.81630  0.54500  0.53370  1.0000 -0.6392694319
O   O5        1.0  0.86890  0.48570  0.45310  1.0000 -0.6706116477
O   O6        1.0  0.78590  0.42970  0.55930  1.0000 -0.6912593672
O   O7        1.0  0.13480  0.42230  0.46780  1.0000 -0.6990198771
O   O8        1.0  0.35230  0.52350  0.47710  1.0000 -0.6291719697
O   O9        1.0  0.30480  0.36360  0.54270  1.0000 -0.5939485112
O   O10       1.0  0.28830  0.48190  0.56860  1.0000 -0.7182251493
O   O11       1.0  0.35800  0.40170  0.44680  1.0000 -0.6291719697
O   O12       1.0  0.64310  0.45870  0.46410  1.0000 -0.6990198771
O   O13       1.0  0.57020  0.41070  0.58520  1.0000 -0.6243715921
O   O14       1.0  0.57920  0.52980  0.54300  1.0000 -0.6624930778
O   O15       1.0  0.36880  0.45120  0.99630  1.0000 -0.6624930778
O   O16       1.0  0.42630  0.61690  0.05870  1.0000 -0.6912593672
O   O17       1.0  0.42030  0.48330  0.09000  1.0000 -0.6392694319
O   O18       1.0  0.68370  0.45500  0.03370  1.0000 -0.6392694319
O   O19       1.0  0.63110  0.51430  0.95310  1.0000 -0.6706116477
O   O20       1.0  0.71410  0.57030  0.05930  1.0000 -0.6912593672
O   O21       1.0  0.36520  0.57770  0.96780  1.0000 -0.6990198771
O   O22       1.0  0.14770  0.47650  0.97710  1.0000 -0.6291719697
O   O23       1.0  0.19520  0.63640  0.04270  1.0000 -0.5939485112
O   O24       1.0  0.21170  0.51810  0.06860  1.0000 -0.7182251493
O   O25       1.0  0.14200  0.59830  0.94680  1.0000 -0.6291719697
O   O26       1.0  0.85690  0.54130  0.96410  1.0000 -0.6990198771
O   O27       1.0  0.92980  0.58930  0.08520  1.0000 -0.6243715921
O   O28       1.0  0.92080  0.47020  0.04300  1.0000 -0.6624930778
O   O29       1.0  0.86880  0.04880  0.00370  1.0000 -0.6624930778
O   O30       1.0  0.92630  0.88310  0.94130  1.0000 -0.6912593672
O   O31       1.0  0.92030  0.01670  0.91000  1.0000 -0.6392694319
O   O32       1.0  0.18370  0.04500  0.96630  1.0000 -0.6392694319
O   O33       1.0  0.13110  0.98570  0.04690  1.0000 -0.6706116477
O   O34       1.0  0.21410  0.92970  0.94070  1.0000 -0.6912593672
O   O35       1.0  0.86520  0.92230  0.03220  1.0000 -0.6990198771
O   O36       1.0  0.64770  0.02350  0.02290  1.0000 -0.6291719697
O   O37       1.0  0.69520  0.86360  0.95730  1.0000 -0.5939485112
O   O38       1.0  0.71170  0.98190  0.93140  1.0000 -0.7182251493
O   O39       1.0  0.64200  0.90170  0.05320  1.0000 -0.6243715921
O   O40       1.0  0.35690  0.95870  0.03590  1.0000 -0.6990198771
O   O41       1.0  0.42980  0.91070  0.91480  1.0000 -0.6243715921
O   O42       1.0  0.42080  0.02980  0.95700  1.0000 -0.6624930778
O   O43       1.0  0.63120  0.95120  0.50370  1.0000 -0.6624930778
O   O44       1.0  0.57370  0.11690  0.44130  1.0000 -0.6912593672
O   O45       1.0  0.57970  0.98330  0.41000  1.0000 -0.6392694319
O   O46       1.0  0.31630  0.95500  0.46630  1.0000 -0.6392694319
O   O47       1.0  0.36890  0.01430  0.54690  1.0000 -0.6706116477
O   O48       1.0  0.28590  0.07030  0.44070  1.0000 -0.6912593672
O   O49       1.0  0.63480  0.07770  0.53220  1.0000 -0.6990198771
O   O50       1.0  0.85230  0.97650  0.52290  1.0000 -0.6291719697
O   O51       1.0  0.80480  0.13640  0.45730  1.0000 -0.5939485112
O   O52       1.0  0.78830  0.01810  0.43140  1.0000 -0.7182251493
O   O53       1.0  0.85800  0.09830  0.55320  1.0000 -0.6291719697
O   O54       1.0  0.14310  0.04130  0.53590  1.0000 -0.6990198771
O   O55       1.0  0.07020  0.08930  0.41480  1.0000 -0.6243715921
O   O56       1.0  0.07920  0.97020  0.45700  1.0000 -0.6624930778
