# DDEC6 charges by PACMAN v1.1 (https://github.com/mtap-research/PACMAN-charge/)
data_2017[CuTb][nan]3[ASR]1
_chemical_formula_sum              "Tb4 Cu16 H48 C72 I16 N12 O24"
_cell_length_a       15.4107
_cell_length_b       8.0701
_cell_length_c       29.5149
_cell_angle_alpha    90
_cell_angle_beta     108.66
_cell_angle_gamma    90

_symmetry_space_group_name_H-M    "P 1"
_symmetry_Int_Tables_number       1

loop_
  _symmetry_equiv_pos_as_xyz
  'x, y, z'

loop_
  _atom_site_type_symbol
  _atom_site_label
  _atom_site_symmetry_multiplicity
  _atom_site_fract_x
  _atom_site_fract_y
  _atom_site_fract_z
  _atom_site_occupancy
  _atom_site_charge
Tb  Tb1       1.0  0.53621  0.75501  0.98798  1.0000 2.1035192162
Tb  Tb2       1.0  0.46379  0.25501  0.51202  1.0000 2.1035192162
Tb  Tb3       1.0  0.46379  0.24499  0.01202  1.0000 2.1035192162
Tb  Tb4       1.0  0.53621  0.74499  0.48798  1.0000 2.1035192162
Cu  Cu1       1.0  0.06883  0.80581  0.21270  1.0000 0.1565055018
Cu  Cu2       1.0  0.03037  0.11970  0.17453  1.0000 0.1537768394
Cu  Cu3       1.0  0.16978  0.93725  0.16696  1.0000 0.1406642211
Cu  Cu4       1.0  0.17653  0.08034  0.24828  1.0000 0.1406642211
Cu  Cu5       1.0  0.93117  0.30581  0.28730  1.0000 0.1565055018
Cu  Cu6       1.0  0.96963  0.61970  0.32547  1.0000 0.1565055018
Cu  Cu7       1.0  0.83022  0.43725  0.33304  1.0000 0.1406642211
Cu  Cu8       1.0  0.82347  0.58034  0.25172  1.0000 0.1406642211
Cu  Cu9       1.0  0.93117  0.19419  0.78730  1.0000 0.1565055018
Cu  Cu10      1.0  0.96963  0.88030  0.82547  1.0000 0.1565055018
Cu  Cu11      1.0  0.83022  0.06275  0.83304  1.0000 0.1406642211
Cu  Cu12      1.0  0.82347  0.91966  0.75172  1.0000 0.1406642211
Cu  Cu13      1.0  0.06883  0.69419  0.71270  1.0000 0.1565055018
Cu  Cu14      1.0  0.03037  0.38030  0.67453  1.0000 0.1565055018
Cu  Cu15      1.0  0.16978  0.56275  0.66696  1.0000 0.1406642211
Cu  Cu16      1.0  0.17653  0.41966  0.74828  1.0000 0.1406642211
H   H1        1.0  0.70130  0.24870  0.12350  1.0000 0.1300548636
H   H2        1.0  0.73430  0.86900  0.09490  1.0000 0.1300548636
H   H3        1.0  0.83760  0.12830  0.16650  1.0000 0.0994940755
H   H4        1.0  0.84030  0.54560  0.06190  1.0000 0.1300548636
H   H5        1.0  0.82570  0.71760  0.15870  1.0000 0.0931066909
H   H6        1.0  0.19280  0.61200  0.12470  1.0000 0.1079809206
H   H7        1.0  0.42290  0.90950  0.09760  1.0000 0.1300548636
H   H8        1.0  0.55940  0.94320  0.16870  1.0000 0.1300548636
H   H9        1.0  0.32660  0.02610  0.13380  1.0000 0.1079809206
H   H10       1.0  0.97320  0.41340  0.10600  1.0000 0.1079809206
H   H11       1.0  0.28780  0.48200  0.09000  1.0000 0.1406642211
H   H12       1.0  0.65200  0.77920  0.22870  1.0000 0.0994940755
H   H13       1.0  0.29870  0.74870  0.37650  1.0000 0.1300548636
H   H14       1.0  0.26570  0.36900  0.40510  1.0000 0.1300548636
H   H15       1.0  0.16240  0.62830  0.33350  1.0000 0.0994940755
H   H16       1.0  0.15970  0.04560  0.43810  1.0000 0.1300548636
H   H17       1.0  0.17430  0.21760  0.34130  1.0000 0.0931066909
H   H18       1.0  0.80720  0.11200  0.37530  1.0000 0.1079809206
H   H19       1.0  0.57710  0.40950  0.40240  1.0000 0.1300548636
H   H20       1.0  0.44060  0.44320  0.33130  1.0000 0.1300548636
H   H21       1.0  0.67340  0.52610  0.36620  1.0000 0.1079809206
H   H22       1.0  0.02680  0.91340  0.39400  1.0000 0.1079809206
H   H23       1.0  0.71220  0.98200  0.41000  1.0000 0.1406642211
H   H24       1.0  0.34800  0.27920  0.27130  1.0000 0.0994940755
H   H25       1.0  0.29870  0.75130  0.87650  1.0000 0.1300548636
H   H26       1.0  0.26570  0.13100  0.90510  1.0000 0.1300548636
H   H27       1.0  0.16240  0.87170  0.83350  1.0000 0.0994940755
H   H28       1.0  0.15970  0.45440  0.93810  1.0000 0.1300548636
H   H29       1.0  0.17430  0.28240  0.84130  1.0000 0.0931066909
H   H30       1.0  0.80720  0.38800  0.87530  1.0000 0.1079809206
H   H31       1.0  0.57710  0.09050  0.90240  1.0000 0.1300548636
H   H32       1.0  0.44060  0.05680  0.83130  1.0000 0.1300548636
H   H33       1.0  0.67340  0.97390  0.86620  1.0000 0.1079809206
H   H34       1.0  0.02680  0.58660  0.89400  1.0000 0.1079809206
H   H35       1.0  0.71220  0.51800  0.91000  1.0000 0.1406642211
H   H36       1.0  0.34800  0.22080  0.77130  1.0000 0.0994940755
H   H37       1.0  0.70130  0.25130  0.62350  1.0000 0.1300548636
H   H38       1.0  0.73430  0.63100  0.59490  1.0000 0.1300548636
H   H39       1.0  0.83760  0.37170  0.66650  1.0000 0.0994940755
H   H40       1.0  0.84030  0.95440  0.56190  1.0000 0.1300548636
H   H41       1.0  0.82570  0.78240  0.65870  1.0000 0.0931066909
H   H42       1.0  0.19280  0.88800  0.62470  1.0000 0.1079809206
H   H43       1.0  0.42290  0.59050  0.59760  1.0000 0.1300548636
H   H44       1.0  0.55940  0.55680  0.66870  1.0000 0.1300548636
H   H45       1.0  0.32660  0.47390  0.63380  1.0000 0.1079809206
H   H46       1.0  0.97320  0.08660  0.60600  1.0000 0.1079809206
H   H47       1.0  0.28780  0.01800  0.59000  1.0000 0.1406642211
H   H48       1.0  0.65200  0.72080  0.72870  1.0000 0.0994940755
C   C1        1.0  0.75560  0.28250  0.11890  1.0000 -0.1499595698
C   C2        1.0  0.36565  0.68180  0.08875  1.0000 0.0128684233
C   C3        1.0  0.66517  0.47930  0.05547  1.0000 0.6443573982
C   C4        1.0  0.63525  0.91980  0.12415  1.0000 0.0128684233
C   C5        1.0  0.42574  0.60500  0.06284  1.0000 0.6525571496
C   C6        1.0  0.71629  0.85250  0.12179  1.0000 -0.1341357417
C   C7        1.0  0.83774  0.21040  0.14444  1.0000 0.0698494315
C   C8        1.0  0.83798  0.45850  0.08218  1.0000 -0.1499595698
C   C9        1.0  0.75500  0.40660  0.08610  1.0000 0.0186324558
C   C10       1.0  0.77056  0.75990  0.16016  1.0000 0.0780136828
C   C11       1.0  0.57359  0.01960  0.08359  1.0000 0.5876921714
C   C12       1.0  0.23950  0.67280  0.11900  1.0000 0.0698494315
C   C13       1.0  0.37638  0.84630  0.10268  1.0000 -0.1499595698
C   C14       1.0  0.61188  0.89530  0.16538  1.0000 -0.1499595698
C   C15       1.0  0.31761  0.91600  0.12411  1.0000 0.0698494315
C   C16       1.0  0.91762  0.37870  0.10892  1.0000 0.0780136828
C   C17       1.0  0.29625  0.59370  0.09795  1.0000 -0.1441181823
C   C18       1.0  0.66872  0.79790  0.20152  1.0000 0.0780136828
C   C19       1.0  0.24440  0.78250  0.38110  1.0000 -0.1499595698
C   C20       1.0  0.63435  0.18180  0.41125  1.0000 0.0128684233
C   C21       1.0  0.33483  0.97930  0.44453  1.0000 0.6443573982
C   C22       1.0  0.36475  0.41980  0.37585  1.0000 0.0128684233
C   C23       1.0  0.57426  0.10500  0.43716  1.0000 0.6525571496
C   C24       1.0  0.28371  0.35250  0.37821  1.0000 -0.1341357417
C   C25       1.0  0.16226  0.71040  0.35556  1.0000 0.0698494315
C   C26       1.0  0.16202  0.95850  0.41782  1.0000 -0.1499595698
C   C27       1.0  0.24500  0.90660  0.41390  1.0000 0.0186324558
C   C28       1.0  0.22944  0.25990  0.33984  1.0000 0.0780136828
C   C29       1.0  0.42641  0.51960  0.41641  1.0000 0.5876921714
C   C30       1.0  0.76050  0.17280  0.38100  1.0000 0.0698494315
C   C31       1.0  0.62362  0.34630  0.39732  1.0000 -0.1499595698
C   C32       1.0  0.38812  0.39530  0.33462  1.0000 -0.1499595698
C   C33       1.0  0.68239  0.41600  0.37589  1.0000 0.0698494315
C   C34       1.0  0.08238  0.87870  0.39108  1.0000 0.0780136828
C   C35       1.0  0.70375  0.09370  0.40205  1.0000 -0.1441181823
C   C36       1.0  0.33128  0.29790  0.29848  1.0000 0.0780136828
C   C37       1.0  0.24440  0.71750  0.88110  1.0000 -0.1499595698
C   C38       1.0  0.63435  0.31820  0.91125  1.0000 0.0128684233
C   C39       1.0  0.33483  0.52070  0.94453  1.0000 0.6443573982
C   C40       1.0  0.36475  0.08020  0.87585  1.0000 0.0128684233
C   C41       1.0  0.57426  0.39500  0.93716  1.0000 0.6525571496
C   C42       1.0  0.28371  0.14750  0.87821  1.0000 -0.1341357417
C   C43       1.0  0.16226  0.78960  0.85556  1.0000 0.0698494315
C   C44       1.0  0.16202  0.54150  0.91782  1.0000 -0.1499595698
C   C45       1.0  0.24500  0.59340  0.91390  1.0000 0.0186324558
C   C46       1.0  0.22944  0.24010  0.83984  1.0000 0.0780136828
C   C47       1.0  0.42641  0.98040  0.91641  1.0000 0.5876921714
C   C48       1.0  0.76050  0.32720  0.88100  1.0000 0.0698494315
C   C49       1.0  0.62362  0.15370  0.89732  1.0000 -0.1499595698
C   C50       1.0  0.38812  0.10470  0.83462  1.0000 -0.1499595698
C   C51       1.0  0.68239  0.08400  0.87589  1.0000 0.0698494315
C   C52       1.0  0.08238  0.62130  0.89108  1.0000 0.0780136828
C   C53       1.0  0.70375  0.40630  0.90205  1.0000 -0.1441181823
C   C54       1.0  0.33128  0.20210  0.79848  1.0000 0.0780136828
C   C55       1.0  0.75560  0.21750  0.61890  1.0000 -0.1499595698
C   C56       1.0  0.36565  0.81820  0.58875  1.0000 0.0128684233
C   C57       1.0  0.66517  0.02070  0.55547  1.0000 0.6443573982
C   C58       1.0  0.63525  0.58020  0.62415  1.0000 0.0128684233
C   C59       1.0  0.42574  0.89500  0.56284  1.0000 0.6525571496
C   C60       1.0  0.71629  0.64750  0.62179  1.0000 -0.1341357417
C   C61       1.0  0.83774  0.28960  0.64444  1.0000 0.0698494315
C   C62       1.0  0.83798  0.04150  0.58218  1.0000 -0.1499595698
C   C63       1.0  0.75500  0.09340  0.58610  1.0000 0.0186324558
C   C64       1.0  0.77056  0.74010  0.66016  1.0000 0.0780136828
C   C65       1.0  0.57359  0.48040  0.58359  1.0000 0.5876921714
C   C66       1.0  0.23950  0.82720  0.61900  1.0000 0.0698494315
C   C67       1.0  0.37638  0.65370  0.60268  1.0000 -0.1499595698
C   C68       1.0  0.61188  0.60470  0.66538  1.0000 -0.1499595698
C   C69       1.0  0.31761  0.58400  0.62411  1.0000 0.0698494315
C   C70       1.0  0.91762  0.12130  0.60892  1.0000 0.0780136828
C   C71       1.0  0.29625  0.90630  0.59795  1.0000 -0.1441181823
C   C72       1.0  0.66872  0.70210  0.70152  1.0000 0.0780136828
I   I1        1.0  0.99737  0.83174  0.11877  1.0000 -0.287295846
I   I2        1.0  0.00990  0.04858  0.25984  1.0000 -0.2122125401
I   I3        1.0  0.24616  0.77690  0.25144  1.0000 -0.2703503817
I   I4        1.0  0.17993  0.26176  0.16850  1.0000 -0.2838403731
I   I5        1.0  0.00263  0.33174  0.38123  1.0000 -0.287295846
I   I6        1.0  0.99010  0.54858  0.24016  1.0000 -0.2122125401
I   I7        1.0  0.75384  0.27690  0.24856  1.0000 -0.2703503817
I   I8        1.0  0.82007  0.76176  0.33150  1.0000 -0.287295846
I   I9        1.0  0.00263  0.16826  0.88123  1.0000 -0.287295846
I   I10       1.0  0.99010  0.95142  0.74016  1.0000 -0.2122125401
I   I11       1.0  0.75384  0.22310  0.74856  1.0000 -0.2703503817
I   I12       1.0  0.82007  0.73824  0.83150  1.0000 -0.287295846
I   I13       1.0  0.99737  0.66826  0.61877  1.0000 -0.287295846
I   I14       1.0  0.00990  0.45142  0.75984  1.0000 -0.2122125401
I   I15       1.0  0.24616  0.72310  0.75144  1.0000 -0.2703503817
I   I16       1.0  0.17993  0.23824  0.66850  1.0000 -0.287295846
N   N1        1.0  0.91782  0.25330  0.13892  1.0000 -0.1591485117
N   N2        1.0  0.24860  0.83350  0.13170  1.0000 -0.1591485117
N   N3        1.0  0.74648  0.72930  0.19928  1.0000 -0.1591485117
N   N4        1.0  0.08218  0.75330  0.36108  1.0000 -0.1591485117
N   N5        1.0  0.75140  0.33350  0.36830  1.0000 -0.1591485117
N   N6        1.0  0.25352  0.22930  0.30072  1.0000 -0.1591485117
N   N7        1.0  0.08218  0.74670  0.86108  1.0000 -0.1591485117
N   N8        1.0  0.75140  0.16650  0.86830  1.0000 -0.1591485117
N   N9        1.0  0.25352  0.27070  0.80072  1.0000 -0.1591485117
N   N10       1.0  0.91782  0.24670  0.63892  1.0000 -0.1591485117
N   N11       1.0  0.24860  0.66650  0.63170  1.0000 -0.1591485117
N   N12       1.0  0.74648  0.77070  0.69928  1.0000 -0.1591485117
O   O1        1.0  0.41899  0.45110  0.05595  1.0000 -0.668233269
O   O2        1.0  0.57562  0.99530  0.04077  1.0000 -0.7519831508
O   O3        1.0  0.66526  0.62550  0.04079  1.0000 -0.6649666875
O   O4        1.0  0.52243  0.12710  0.09195  1.0000 -0.6058529913
O   O5        1.0  0.47704  0.70220  0.04942  1.0000 -0.6826292127
O   O6        1.0  0.59607  0.38760  0.04604  1.0000 -0.6887742728
O   O7        1.0  0.58101  0.95110  0.44405  1.0000 -0.668233269
O   O8        1.0  0.42438  0.49530  0.45923  1.0000 -0.7519831508
O   O9        1.0  0.33474  0.12550  0.45921  1.0000 -0.668233269
O   O10       1.0  0.47757  0.62710  0.40805  1.0000 -0.6058529913
O   O11       1.0  0.52296  0.20220  0.45058  1.0000 -0.6826292127
O   O12       1.0  0.40393  0.88760  0.45396  1.0000 -0.6887742728
O   O13       1.0  0.58101  0.54890  0.94405  1.0000 -0.668233269
O   O14       1.0  0.42438  0.00470  0.95923  1.0000 -0.7519831508
O   O15       1.0  0.33474  0.37450  0.95921  1.0000 -0.668233269
O   O16       1.0  0.47757  0.87290  0.90805  1.0000 -0.6058529913
O   O17       1.0  0.52296  0.29780  0.95058  1.0000 -0.6826292127
O   O18       1.0  0.40393  0.61240  0.95396  1.0000 -0.6887742728
O   O19       1.0  0.41899  0.04890  0.55595  1.0000 -0.668233269
O   O20       1.0  0.57562  0.50470  0.54077  1.0000 -0.7519831508
O   O21       1.0  0.66526  0.87450  0.54079  1.0000 -0.668233269
O   O22       1.0  0.52243  0.37290  0.59195  1.0000 -0.6058529913
O   O23       1.0  0.47704  0.79780  0.54942  1.0000 -0.6826292127
O   O24       1.0  0.59607  0.11240  0.54604  1.0000 -0.6887742728
