# DDEC6 charges by PACMAN v1.1 (https://github.com/mtap-research/PACMAN-charge/)
data_2017[Co][hex]3[ASR]1
_chemical_formula_sum              "Co6 H52 C68 N8 O24"
_cell_length_a       18.2649
_cell_length_b       18.2649
_cell_length_c       18.4395
_cell_angle_alpha    65.838
_cell_angle_beta     114.162
_cell_angle_gamma    149.698

_symmetry_space_group_name_H-M    "P 1"
_symmetry_Int_Tables_number       1

loop_
  _symmetry_equiv_pos_as_xyz
  'x, y, z'

loop_
  _atom_site_type_symbol
  _atom_site_label
  _atom_site_symmetry_multiplicity
  _atom_site_fract_x
  _atom_site_fract_y
  _atom_site_fract_z
  _atom_site_occupancy
  _atom_site_charge
Co  Co1       1.0  0.64687  0.94309  0.58137  1.0000 0.8647164754
Co  Co2       1.0  0.94309  0.64687  0.91863  1.0000 0.8663823358
Co  Co3       1.0  0.35313  0.05691  0.41863  1.0000 0.8647164754
Co  Co4       1.0  0.05691  0.35313  0.08137  1.0000 0.8663823358
Co  Co5       1.0  0.50000  0.00000  0.50000  1.0000 1.0609718911
Co  Co6       1.0  0.00000  0.50000  0.00000  1.0000 1.0609718911
H   H1        1.0  0.88000  0.05120  0.54890  1.0000 0.285924775
H   H2        1.0  0.37370  0.86770  0.28720  1.0000 0.1305264972
H   H3        1.0  0.26670  0.76130  0.17530  1.0000 0.1305264972
H   H4        1.0  0.34080  0.58740  0.28880  1.0000 0.1305264972
H   H5        1.0  0.45230  0.69770  0.39850  1.0000 0.1305264972
H   H6        1.0  0.04680  0.44880  0.44770  1.0000 0.1220233864
H   H7        1.0  0.80690  0.31590  0.57480  1.0000 0.1220233864
H   H8        1.0  0.08370  0.13350  0.56440  1.0000 0.1305264972
H   H9        1.0  0.12300  0.09620  0.64850  1.0000 0.1478994447
H   H10       1.0  0.99630  0.97970  0.58790  1.0000 0.1305264972
H   H11       1.0  0.61050  0.72670  0.76920  1.0000 0.1478994447
H   H12       1.0  0.75600  0.84180  0.82610  1.0000 0.1305264972
H   H13       1.0  0.68900  0.87020  0.77010  1.0000 0.137507265
H   H14       1.0  0.05120  0.88000  0.95110  1.0000 0.285924775
H   H15       1.0  0.86770  0.37370  0.21280  1.0000 0.1305264972
H   H16       1.0  0.76130  0.26670  0.32470  1.0000 0.1305264972
H   H17       1.0  0.58740  0.34080  0.21120  1.0000 0.1305264972
H   H18       1.0  0.69770  0.45230  0.10150  1.0000 0.1305264972
H   H19       1.0  0.44880  0.04680  0.05230  1.0000 0.1220233864
H   H20       1.0  0.31590  0.80690  0.92520  1.0000 0.1220233864
H   H21       1.0  0.13350  0.08370  0.93560  1.0000 0.1305264972
H   H22       1.0  0.09620  0.12300  0.85150  1.0000 0.1478994447
H   H23       1.0  0.97970  0.99630  0.91210  1.0000 0.1305264972
H   H24       1.0  0.72670  0.61050  0.73080  1.0000 0.1478994447
H   H25       1.0  0.84180  0.75600  0.67390  1.0000 0.1305264972
H   H26       1.0  0.87020  0.68900  0.72990  1.0000 0.137507265
H   H27       1.0  0.12000  0.94880  0.45110  1.0000 0.285924775
H   H28       1.0  0.62630  0.13230  0.71280  1.0000 0.1305264972
H   H29       1.0  0.73330  0.23870  0.82470  1.0000 0.1305264972
H   H30       1.0  0.65920  0.41260  0.71120  1.0000 0.1305264972
H   H31       1.0  0.54770  0.30230  0.60150  1.0000 0.1305264972
H   H32       1.0  0.95320  0.55120  0.55230  1.0000 0.1220233864
H   H33       1.0  0.19310  0.68410  0.42520  1.0000 0.1220233864
H   H34       1.0  0.91630  0.86650  0.43560  1.0000 0.1305264972
H   H35       1.0  0.87700  0.90380  0.35150  1.0000 0.1478994447
H   H36       1.0  0.00370  0.02030  0.41210  1.0000 0.1305264972
H   H37       1.0  0.38950  0.27330  0.23080  1.0000 0.1478994447
H   H38       1.0  0.24400  0.15820  0.17390  1.0000 0.1305264972
H   H39       1.0  0.31100  0.12980  0.22990  1.0000 0.137507265
H   H40       1.0  0.94880  0.12000  0.04890  1.0000 0.285924775
H   H41       1.0  0.13230  0.62630  0.78720  1.0000 0.1305264972
H   H42       1.0  0.23870  0.73330  0.67530  1.0000 0.1305264972
H   H43       1.0  0.41260  0.65920  0.78880  1.0000 0.1305264972
H   H44       1.0  0.30230  0.54770  0.89850  1.0000 0.1305264972
H   H45       1.0  0.55120  0.95320  0.94770  1.0000 0.1220233864
H   H46       1.0  0.68410  0.19310  0.07480  1.0000 0.1220233864
H   H47       1.0  0.86650  0.91630  0.06440  1.0000 0.1305264972
H   H48       1.0  0.90380  0.87700  0.14850  1.0000 0.1478994447
H   H49       1.0  0.02030  0.00370  0.08790  1.0000 0.1305264972
H   H50       1.0  0.27330  0.38950  0.26920  1.0000 0.1478994447
H   H51       1.0  0.15820  0.24400  0.32610  1.0000 0.1305264972
H   H52       1.0  0.12980  0.31100  0.27010  1.0000 0.137507265
C   C1        1.0  0.48673  0.85767  0.42901  1.0000 0.5877485327
C   C2        1.0  0.42150  0.79110  0.35599  1.0000 -0.0185166504
C   C3        1.0  0.36686  0.81074  0.28760  1.0000 -0.1019617998
C   C4        1.0  0.30260  0.74700  0.22050  1.0000 -0.1019617998
C   C5        1.0  0.29116  0.66224  0.21984  1.0000 -0.0185166504
C   C6        1.0  0.34779  0.64441  0.28820  1.0000 -0.1019617998
C   C7        1.0  0.41296  0.70904  0.35410  1.0000 -0.1019617998
C   C8        1.0  0.21307  0.58553  0.14919  1.0000 0.5877485327
C   C9        1.0  0.82200  0.21000  0.52773  1.0000 0.566685786
C   C10       1.0  0.91318  0.35982  0.51321  1.0000 -0.0062689331
C   C11       1.0  0.02759  0.46901  0.46890  1.0000 -0.1019617998
C   C12       1.0  0.88439  0.38961  0.54470  1.0000 -0.0900098257
C   C13       1.0  0.78837  0.90323  0.71131  1.0000 0.1947567961
C   C14       1.0  0.88840  0.92980  0.71550  1.0000 -0.1274578985
C   C15       1.0  0.93662  0.99938  0.64200  1.0000 0.1629891633
C   C16       1.0  0.04474  0.05746  0.60760  1.0000 -0.4615277448
C   C17       1.0  0.70359  0.82901  0.77470  1.0000 -0.4615277448
C   C18       1.0  0.85767  0.48673  0.07099  1.0000 0.5877485327
C   C19       1.0  0.79110  0.42150  0.14401  1.0000 -0.0185166504
C   C20       1.0  0.81074  0.36686  0.21240  1.0000 -0.1019617998
C   C21       1.0  0.74700  0.30260  0.27950  1.0000 -0.1019617998
C   C22       1.0  0.66224  0.29116  0.28016  1.0000 -0.0185166504
C   C23       1.0  0.64441  0.34779  0.21180  1.0000 -0.1019617998
C   C24       1.0  0.70904  0.41296  0.14590  1.0000 -0.1019617998
C   C25       1.0  0.58553  0.21307  0.35081  1.0000 0.5877485327
C   C26       1.0  0.21000  0.82200  0.97227  1.0000 0.566685786
C   C27       1.0  0.35982  0.91318  0.98679  1.0000 -0.0062689331
C   C28       1.0  0.46901  0.02759  0.03110  1.0000 -0.1019617998
C   C29       1.0  0.38961  0.88439  0.95530  1.0000 -0.0900098257
C   C30       1.0  0.90323  0.78837  0.78869  1.0000 0.1947567961
C   C31       1.0  0.92980  0.88840  0.78450  1.0000 -0.1274578985
C   C32       1.0  0.99938  0.93662  0.85800  1.0000 0.1629891633
C   C33       1.0  0.05746  0.04474  0.89240  1.0000 -0.4615277448
C   C34       1.0  0.82901  0.70359  0.72530  1.0000 -0.4615277448
C   C35       1.0  0.51327  0.14233  0.57099  1.0000 0.5877485327
C   C36       1.0  0.57850  0.20890  0.64401  1.0000 -0.0185166504
C   C37       1.0  0.63314  0.18926  0.71240  1.0000 -0.1019617998
C   C38       1.0  0.69740  0.25300  0.77950  1.0000 -0.1019617998
C   C39       1.0  0.70884  0.33776  0.78016  1.0000 -0.0185166504
C   C40       1.0  0.65221  0.35559  0.71180  1.0000 -0.1019617998
C   C41       1.0  0.58704  0.29096  0.64590  1.0000 -0.1019617998
C   C42       1.0  0.78693  0.41447  0.85081  1.0000 0.5877485327
C   C43       1.0  0.17800  0.79000  0.47227  1.0000 0.566685786
C   C44       1.0  0.08682  0.64018  0.48679  1.0000 -0.0062689331
C   C45       1.0  0.97241  0.53099  0.53110  1.0000 -0.1019617998
C   C46       1.0  0.11561  0.61039  0.45530  1.0000 -0.0900098257
C   C47       1.0  0.21163  0.09677  0.28869  1.0000 0.1947567961
C   C48       1.0  0.11160  0.07020  0.28450  1.0000 -0.1274578985
C   C49       1.0  0.06338  0.00062  0.35800  1.0000 0.1629891633
C   C50       1.0  0.95526  0.94254  0.39240  1.0000 -0.4615277448
C   C51       1.0  0.29641  0.17099  0.22530  1.0000 -0.4615277448
C   C52       1.0  0.14233  0.51327  0.92901  1.0000 0.5877485327
C   C53       1.0  0.20890  0.57850  0.85599  1.0000 -0.0185166504
C   C54       1.0  0.18926  0.63314  0.78760  1.0000 -0.1019617998
C   C55       1.0  0.25300  0.69740  0.72050  1.0000 -0.1019617998
C   C56       1.0  0.33776  0.70884  0.71984  1.0000 -0.0185166504
C   C57       1.0  0.35559  0.65221  0.78820  1.0000 -0.1019617998
C   C58       1.0  0.29096  0.58704  0.85410  1.0000 -0.1019617998
C   C59       1.0  0.41447  0.78693  0.64919  1.0000 0.5877485327
C   C60       1.0  0.79000  0.17800  0.02773  1.0000 0.566685786
C   C61       1.0  0.64018  0.08682  0.01321  1.0000 -0.0062689331
C   C62       1.0  0.53099  0.97241  0.96890  1.0000 -0.1019617998
C   C63       1.0  0.61039  0.11561  0.04470  1.0000 -0.0900098257
C   C64       1.0  0.09677  0.21163  0.21131  1.0000 0.1947567961
C   C65       1.0  0.07020  0.11160  0.21550  1.0000 -0.1274578985
C   C66       1.0  0.00062  0.06338  0.14200  1.0000 0.1629891633
C   C67       1.0  0.94254  0.95526  0.10760  1.0000 -0.4615277448
C   C68       1.0  0.17099  0.29641  0.27470  1.0000 -0.4615277448
N   N1        1.0  0.77575  0.95285  0.63917  1.0000 -0.2610312723
N   N2        1.0  0.86757  0.01123  0.59780  1.0000 -0.1371449777
N   N3        1.0  0.95285  0.77575  0.86083  1.0000 -0.2610312723
N   N4        1.0  0.01123  0.86757  0.90220  1.0000 -0.1371449777
N   N5        1.0  0.22425  0.04715  0.36083  1.0000 -0.2610312723
N   N6        1.0  0.13243  0.98877  0.40220  1.0000 -0.1371449777
N   N7        1.0  0.04715  0.22425  0.13917  1.0000 -0.2610312723
N   N8        1.0  0.98877  0.13243  0.09780  1.0000 -0.1371449777
O   O1        1.0  0.55390  0.85450  0.48450  1.0000 -0.5335052707
O   O2        1.0  0.46888  0.90872  0.43079  1.0000 -0.5614183792
O   O3        1.0  0.19284  0.49716  0.15626  1.0000 -0.5335052707
O   O4        1.0  0.17038  0.61062  0.08889  1.0000 -0.5520230927
O   O5        1.0  0.70377  0.10479  0.56163  1.0000 -0.5935893901
O   O6        1.0  0.85755  0.18525  0.51192  1.0000 -0.507075245
O   O7        1.0  0.85450  0.55390  0.01550  1.0000 -0.5335052707
O   O8        1.0  0.90872  0.46888  0.06921  1.0000 -0.5614183792
O   O9        1.0  0.49716  0.19284  0.34374  1.0000 -0.5335052707
O   O10       1.0  0.61062  0.17038  0.41111  1.0000 -0.5520230927
O   O11       1.0  0.10479  0.70377  0.93837  1.0000 -0.5935893901
O   O12       1.0  0.18525  0.85755  0.98808  1.0000 -0.507075245
O   O13       1.0  0.44610  0.14550  0.51550  1.0000 -0.5335052707
O   O14       1.0  0.53112  0.09128  0.56921  1.0000 -0.5614183792
O   O15       1.0  0.80716  0.50284  0.84374  1.0000 -0.5335052707
O   O16       1.0  0.82962  0.38938  0.91111  1.0000 -0.5520230927
O   O17       1.0  0.29623  0.89521  0.43837  1.0000 -0.5935893901
O   O18       1.0  0.14245  0.81475  0.48808  1.0000 -0.507075245
O   O19       1.0  0.14550  0.44610  0.98450  1.0000 -0.5335052707
O   O20       1.0  0.09128  0.53112  0.93079  1.0000 -0.5614183792
O   O21       1.0  0.50284  0.80716  0.65626  1.0000 -0.5335052707
O   O22       1.0  0.38938  0.82962  0.58889  1.0000 -0.5520230927
O   O23       1.0  0.89521  0.29623  0.06163  1.0000 -0.5935893901
O   O24       1.0  0.81475  0.14245  0.01192  1.0000 -0.507075245
