# DDEC6 charges by PACMAN v1.1 (https://github.com/mtap-research/PACMAN-charge/)
data_2017[Zn][nan]2[ASR]3
_chemical_formula_sum              "Zn4 H60 C100 O16"
_cell_length_a       10.802
_cell_length_b       14.229
_cell_length_c       16.886
_cell_angle_alpha    104.384
_cell_angle_beta     87.314
_cell_angle_gamma    101.28

_symmetry_space_group_name_H-M    "P 1"
_symmetry_Int_Tables_number       1

loop_
  _symmetry_equiv_pos_as_xyz
  'x, y, z'

loop_
  _atom_site_type_symbol
  _atom_site_label
  _atom_site_symmetry_multiplicity
  _atom_site_fract_x
  _atom_site_fract_y
  _atom_site_fract_z
  _atom_site_occupancy
  _atom_site_charge
Zn  Zn1       1.0  0.92628  0.74677  0.63420  1.0000 0.9459389594
Zn  Zn2       1.0  0.59409  0.69881  0.64852  1.0000 0.9989199188
Zn  Zn3       1.0  0.07372  0.25323  0.36580  1.0000 0.9459389594
Zn  Zn4       1.0  0.40591  0.30119  0.35148  1.0000 0.9989199188
H   H1        1.0  0.94610  0.48990  0.71420  1.0000 0.1289210515
H   H2        1.0  0.94860  0.36340  0.77700  1.0000 0.1207711417
H   H3        1.0  0.60910  0.39250  0.87180  1.0000 0.1207711417
H   H4        1.0  0.60360  0.51340  0.80360  1.0000 0.1207711417
H   H5        1.0  0.67580  0.16750  0.76780  1.0000 0.1207711417
H   H6        1.0  0.69580  0.00770  0.70430  1.0000 0.1289210515
H   H7        1.0  0.01220  0.04860  0.82980  1.0000 0.1126473413
H   H8        1.0  0.98020  0.19940  0.90340  1.0000 0.1126473413
H   H9        1.0  0.66970  0.15270  0.97440  1.0000 0.1126473413
H   H10       1.0  0.68910  0.05100  0.05940  1.0000 0.1126473413
H   H11       1.0  0.83310  0.10300  0.16310  1.0000 0.1207711417
H   H12       1.0  0.95960  0.25810  0.18470  1.0000 0.1207711417
H   H13       1.0  0.93730  0.36340  0.10220  1.0000 0.1126473413
H   H14       1.0  0.65270  0.40650  0.09550  1.0000 0.1207711417
H   H15       1.0  0.61730  0.56380  0.14940  1.0000 0.1126473413
H   H16       1.0  0.88020  0.66480  0.99890  1.0000 0.1126473413
H   H17       1.0  0.92110  0.51050  0.95270  1.0000 0.1126473413
H   H18       1.0  0.85970  0.88430  0.05130  1.0000 0.1126473413
H   H19       1.0  0.84810  0.93830  0.93410  1.0000 0.1126473413
H   H20       1.0  0.67850  0.86860  0.84590  1.0000 0.1207711417
H   H21       1.0  0.53260  0.74100  0.87110  1.0000 0.1207711417
H   H22       1.0  0.54560  0.68210  0.98540  1.0000 0.1126473413
H   H23       1.0  0.90330  0.75810  0.25460  1.0000 0.1207711417
H   H24       1.0  0.92570  0.74000  0.38560  1.0000 0.1207711417
H   H25       1.0  0.54580  0.67920  0.40340  1.0000 0.1289210515
H   H26       1.0  0.52950  0.71380  0.27810  1.0000 0.1207711417
H   H27       1.0  0.80090  0.93450  0.30230  1.0000 0.1126473413
H   H28       1.0  0.75570  0.08690  0.35600  1.0000 0.1207711417
H   H29       1.0  0.48860  0.03220  0.18490  1.0000 0.1126473413
H   H30       1.0  0.53620  0.87820  0.12940  1.0000 0.1126473413
H   H31       1.0  0.05390  0.51010  0.28580  1.0000 0.1289210515
H   H32       1.0  0.05140  0.63660  0.22300  1.0000 0.1207711417
H   H33       1.0  0.39090  0.60750  0.12820  1.0000 0.1207711417
H   H34       1.0  0.39640  0.48660  0.19640  1.0000 0.1207711417
H   H35       1.0  0.32420  0.83250  0.23220  1.0000 0.1207711417
H   H36       1.0  0.30420  0.99230  0.29570  1.0000 0.1289210515
H   H37       1.0  0.98780  0.95140  0.17020  1.0000 0.1126473413
H   H38       1.0  0.01980  0.80060  0.09660  1.0000 0.1126473413
H   H39       1.0  0.33030  0.84730  0.02560  1.0000 0.1126473413
H   H40       1.0  0.31090  0.94900  0.94060  1.0000 0.1126473413
H   H41       1.0  0.16690  0.89700  0.83690  1.0000 0.1207711417
H   H42       1.0  0.04040  0.74190  0.81530  1.0000 0.1207711417
H   H43       1.0  0.06270  0.63660  0.89780  1.0000 0.1126473413
H   H44       1.0  0.34730  0.59350  0.90450  1.0000 0.1207711417
H   H45       1.0  0.38270  0.43620  0.85060  1.0000 0.1126473413
H   H46       1.0  0.11980  0.33520  0.00110  1.0000 0.1126473413
H   H47       1.0  0.07890  0.48950  0.04730  1.0000 0.1126473413
H   H48       1.0  0.14030  0.11570  0.94870  1.0000 0.1126473413
H   H49       1.0  0.15190  0.06170  0.06590  1.0000 0.1126473413
H   H50       1.0  0.32150  0.13140  0.15410  1.0000 0.1207711417
H   H51       1.0  0.46740  0.25900  0.12890  1.0000 0.1207711417
H   H52       1.0  0.45440  0.31790  0.01460  1.0000 0.1126473413
H   H53       1.0  0.09670  0.24190  0.74540  1.0000 0.1207711417
H   H54       1.0  0.07430  0.26000  0.61440  1.0000 0.1207711417
H   H55       1.0  0.45420  0.32080  0.59660  1.0000 0.1289210515
H   H56       1.0  0.47050  0.28620  0.72190  1.0000 0.1207711417
H   H57       1.0  0.19910  0.06550  0.69770  1.0000 0.1207711417
H   H58       1.0  0.24430  0.91310  0.64400  1.0000 0.1207711417
H   H59       1.0  0.51140  0.96780  0.81510  1.0000 0.1126473413
H   H60       1.0  0.46380  0.12180  0.87060  1.0000 0.1126473413
C   C1        1.0  0.77730  0.59990  0.71190  1.0000 0.6086230722
C   C2        1.0  0.77510  0.51730  0.75420  1.0000 -0.0286960351
C   C3        1.0  0.87790  0.47080  0.74620  1.0000 -0.1029579771
C   C4        1.0  0.88060  0.39590  0.78530  1.0000 -0.1506283436
C   C5        1.0  0.78360  0.36940  0.83600  1.0000 0.0801352967
C   C6        1.0  0.67830  0.41250  0.84090  1.0000 -0.156560207
C   C7        1.0  0.67530  0.48550  0.79990  1.0000 -0.1029579771
C   C8        1.0  0.79860  0.30150  0.89080  1.0000 -0.0286960351
C   C9        1.0  0.82390  0.20220  0.84460  1.0000 0.0850342658
C   C10       1.0  0.74220  0.14260  0.78270  1.0000 -0.156560207
C   C11       1.0  0.75600  0.04700  0.74220  1.0000 -0.0912484208
C   C12       1.0  0.86050  0.01020  0.75870  1.0000 -0.0286960351
C   C13       1.0  0.94130  0.07080  0.81810  1.0000 -0.1195055995
C   C14       1.0  0.92390  0.16310  0.86190  1.0000 -0.1671853739
C   C15       1.0  0.87720  0.90910  0.71450  1.0000 0.5599701401
C   C16       1.0  0.79690  0.33460  0.97250  1.0000 -0.0238417763
C   C17       1.0  0.80480  0.26790  0.02790  1.0000 0.0726525358
C   C18       1.0  0.72880  0.17450  0.01650  1.0000 -0.1506283436
C   C19       1.0  0.74020  0.11340  0.06770  1.0000 -0.0912484208
C   C20       1.0  0.82530  0.14430  0.12940  1.0000 -0.0815570812
C   C21       1.0  0.90070  0.23710  0.14250  1.0000 -0.0815570812
C   C22       1.0  0.88860  0.30000  0.09210  1.0000 -0.156560207
C   C23       1.0  0.78510  0.43910  0.01420  1.0000 0.0726525358
C   C24       1.0  0.69800  0.45840  0.07550  1.0000 -0.1410430897
C   C25       1.0  0.67640  0.55320  0.10790  1.0000 -0.1506283436
C   C26       1.0  0.74280  0.63420  0.07900  1.0000 0.0801352967
C   C27       1.0  0.83380  0.61370  0.01920  1.0000 -0.1410430897
C   C28       1.0  0.85610  0.52050  0.99010  1.0000 -0.1410430897
C   C29       1.0  0.71300  0.73700  0.10510  1.0000 -0.0286960351
C   C30       1.0  0.70210  0.78000  0.03300  1.0000 0.0726525358
C   C31       1.0  0.79270  0.85510  0.01540  1.0000 -0.156560207
C   C32       1.0  0.78580  0.88810  0.94520  1.0000 -0.0912484208
C   C33       1.0  0.68590  0.84560  0.89210  1.0000 -0.0815570812
C   C34       1.0  0.59890  0.77030  0.90770  1.0000 -0.0815570812
C   C35       1.0  0.60550  0.73520  0.97680  1.0000 -0.156560207
C   C36       1.0  0.70120  0.78650  0.18210  1.0000 -0.0286960351
C   C37       1.0  0.71750  0.74400  0.25490  1.0000 0.0801352967
C   C38       1.0  0.83170  0.74690  0.28630  1.0000 -0.156560207
C   C39       1.0  0.84590  0.73360  0.36400  1.0000 -0.0912484208
C   C40       1.0  0.73780  0.71060  0.40870  1.0000 -0.0286960351
C   C41       1.0  0.61810  0.69930  0.37510  1.0000 -0.0815570812
C   C42       1.0  0.60870  0.71820  0.29970  1.0000 -0.156560207
C   C43       1.0  0.75060  0.70590  0.49570  1.0000 0.6172562387
C   C44       1.0  0.67350  0.88750  0.20960  1.0000 0.0801352967
C   C45       1.0  0.73770  0.95400  0.27820  1.0000 -0.1410430897
C   C46       1.0  0.71080  0.04570  0.31070  1.0000 -0.0912484208
C   C47       1.0  0.61620  0.07860  0.27660  1.0000 -0.0398316964
C   C48       1.0  0.55230  0.01290  0.20870  1.0000 -0.1029579771
C   C49       1.0  0.58030  0.91930  0.17500  1.0000 -0.1671853739
C   C50       1.0  0.58930  0.17840  0.31660  1.0000 0.5599701401
C   C51       1.0  0.22270  0.40010  0.28810  1.0000 0.6086230722
C   C52       1.0  0.22490  0.48270  0.24580  1.0000 -0.0286960351
C   C53       1.0  0.12210  0.52920  0.25380  1.0000 -0.1029579771
C   C54       1.0  0.11940  0.60410  0.21470  1.0000 -0.1506283436
C   C55       1.0  0.21640  0.63060  0.16400  1.0000 0.0801352967
C   C56       1.0  0.32170  0.58750  0.15910  1.0000 -0.156560207
C   C57       1.0  0.32470  0.51450  0.20010  1.0000 -0.1029579771
C   C58       1.0  0.20140  0.69850  0.10920  1.0000 -0.0286960351
C   C59       1.0  0.17610  0.79780  0.15540  1.0000 0.0850342658
C   C60       1.0  0.25780  0.85740  0.21730  1.0000 -0.156560207
C   C61       1.0  0.24400  0.95300  0.25780  1.0000 -0.0912484208
C   C62       1.0  0.13950  0.98980  0.24130  1.0000 -0.0286960351
C   C63       1.0  0.05870  0.92920  0.18190  1.0000 -0.1195055995
C   C64       1.0  0.07610  0.83690  0.13810  1.0000 -0.1671853739
C   C65       1.0  0.12280  0.09090  0.28550  1.0000 0.5599701401
C   C66       1.0  0.20310  0.66540  0.02750  1.0000 -0.0238417763
C   C67       1.0  0.19520  0.73210  0.97210  1.0000 0.0726525358
C   C68       1.0  0.27120  0.82550  0.98350  1.0000 -0.1506283436
C   C69       1.0  0.25980  0.88660  0.93230  1.0000 -0.0912484208
C   C70       1.0  0.17470  0.85570  0.87060  1.0000 -0.0815570812
C   C71       1.0  0.09930  0.76290  0.85750  1.0000 -0.0815570812
C   C72       1.0  0.11140  0.70000  0.90790  1.0000 -0.156560207
C   C73       1.0  0.21490  0.56090  0.98580  1.0000 0.0726525358
C   C74       1.0  0.30200  0.54160  0.92450  1.0000 -0.1410430897
C   C75       1.0  0.32360  0.44680  0.89210  1.0000 -0.1506283436
C   C76       1.0  0.25720  0.36580  0.92100  1.0000 0.0801352967
C   C77       1.0  0.16620  0.38630  0.98080  1.0000 -0.1410430897
C   C78       1.0  0.14390  0.47950  0.00990  1.0000 -0.1410430897
C   C79       1.0  0.28700  0.26300  0.89490  1.0000 -0.0286960351
C   C80       1.0  0.29790  0.22000  0.96700  1.0000 0.0726525358
C   C81       1.0  0.20730  0.14490  0.98460  1.0000 -0.156560207
C   C82       1.0  0.21420  0.11190  0.05480  1.0000 -0.0912484208
C   C83       1.0  0.31410  0.15440  0.10790  1.0000 -0.0815570812
C   C84       1.0  0.40110  0.22970  0.09230  1.0000 -0.0815570812
C   C85       1.0  0.39450  0.26480  0.02320  1.0000 -0.156560207
C   C86       1.0  0.29880  0.21350  0.81790  1.0000 -0.0286960351
C   C87       1.0  0.28250  0.25600  0.74510  1.0000 0.0801352967
C   C88       1.0  0.16830  0.25310  0.71370  1.0000 -0.156560207
C   C89       1.0  0.15410  0.26640  0.63600  1.0000 -0.1029579771
C   C90       1.0  0.26220  0.28940  0.59130  1.0000 -0.0286960351
C   C91       1.0  0.38190  0.30070  0.62490  1.0000 -0.0815570812
C   C92       1.0  0.39130  0.28180  0.70030  1.0000 -0.1506283436
C   C93       1.0  0.24940  0.29410  0.50430  1.0000 0.6172562387
C   C94       1.0  0.32650  0.11250  0.79040  1.0000 0.0801352967
C   C95       1.0  0.26230  0.04600  0.72180  1.0000 -0.1410430897
C   C96       1.0  0.28920  0.95430  0.68930  1.0000 -0.0912484208
C   C97       1.0  0.38380  0.92140  0.72340  1.0000 -0.0398316964
C   C98       1.0  0.44770  0.98710  0.79130  1.0000 -0.1029579771
C   C99       1.0  0.41970  0.08070  0.82500  1.0000 -0.1671853739
C   C100      1.0  0.41070  0.82160  0.68340  1.0000 0.5599701401
O   O1        1.0  0.67810  0.63340  0.71530  1.0000 -0.5606429829
O   O2        1.0  0.88100  0.63330  0.68270  1.0000 -0.5445040319
O   O3        1.0  0.78400  0.84730  0.67270  1.0000 -0.5929614756
O   O4        1.0  0.97520  0.87930  0.71860  1.0000 -0.5065798912
O   O5        1.0  0.85920  0.71280  0.52260  1.0000 -0.5606429829
O   O6        1.0  0.64930  0.69650  0.53530  1.0000 -0.5606429829
O   O7        1.0  0.66120  0.24040  0.36800  1.0000 -0.5457306359
O   O8        1.0  0.48350  0.19530  0.29130  1.0000 -0.6035373661
O   O9        1.0  0.32190  0.36660  0.28470  1.0000 -0.5606429829
O   O10       1.0  0.11900  0.36670  0.31730  1.0000 -0.5445040319
O   O11       1.0  0.21600  0.15270  0.32730  1.0000 -0.5929614756
O   O12       1.0  0.02480  0.12070  0.28140  1.0000 -0.5065798912
O   O13       1.0  0.14080  0.28720  0.47740  1.0000 -0.5606429829
O   O14       1.0  0.35070  0.30350  0.46470  1.0000 -0.5606429829
O   O15       1.0  0.33880  0.75960  0.63200  1.0000 -0.5445040319
O   O16       1.0  0.51650  0.80470  0.70870  1.0000 -0.6035373661
