# DDEC6 charges by PACMAN v1.1 (https://github.com/mtap-research/PACMAN-charge/)
data_2017[Gd][nan]3[ASR]4
_chemical_formula_sum              "Gd8 H48 C108 N12 O60"
_cell_length_a       16.437
_cell_length_b       17.223
_cell_length_c       20.74
_cell_angle_alpha    90
_cell_angle_beta     109.584
_cell_angle_gamma    90

_symmetry_space_group_name_H-M    "P 1"
_symmetry_Int_Tables_number       1

loop_
  _symmetry_equiv_pos_as_xyz
  'x, y, z'

loop_
  _atom_site_type_symbol
  _atom_site_label
  _atom_site_symmetry_multiplicity
  _atom_site_fract_x
  _atom_site_fract_y
  _atom_site_fract_z
  _atom_site_occupancy
  _atom_site_charge
Gd  Gd1       1.0  0.74035  0.83876  0.79310  1.0000 1.9786816395
Gd  Gd2       1.0  0.00176  0.82777  0.67468  1.0000 1.9994353509
Gd  Gd3       1.0  0.25965  0.33876  0.70690  1.0000 1.9786816395
Gd  Gd4       1.0  0.99824  0.32777  0.82532  1.0000 1.9994353509
Gd  Gd5       1.0  0.25965  0.16124  0.20690  1.0000 1.9786816395
Gd  Gd6       1.0  0.99824  0.17223  0.32532  1.0000 1.9994353509
Gd  Gd7       1.0  0.74035  0.66124  0.29310  1.0000 1.9786816395
Gd  Gd8       1.0  0.00176  0.67223  0.17468  1.0000 1.9994353509
H   H1        1.0  0.26510  0.79730  0.91370  1.0000 0.2869535989
H   H2        1.0  0.47180  0.69740  0.04520  1.0000 0.2869535989
H   H3        1.0  0.42480  0.93070  0.92670  1.0000 0.2819614268
H   H4        1.0  0.12360  0.81930  0.85430  1.0000 0.1309927696
H   H5        1.0  0.19440  0.73110  0.04490  1.0000 0.1383454173
H   H6        1.0  0.94900  0.79770  0.94910  1.0000 0.1383454173
H   H7        1.0  0.54500  0.77690  0.92150  1.0000 0.1383454173
H   H8        1.0  0.79540  0.75360  0.03190  1.0000 0.1383454173
H   H9        1.0  0.61380  0.69040  0.11150  1.0000 0.1309927696
H   H10       1.0  0.17220  0.06840  0.70780  1.0000 0.1383454173
H   H11       1.0  0.39740  0.11340  0.85670  1.0000 0.1309927696
H   H12       1.0  0.29210  0.90480  0.84580  1.0000 0.1198240711
H   H13       1.0  0.73490  0.29730  0.58630  1.0000 0.2869535989
H   H14       1.0  0.52820  0.19740  0.45480  1.0000 0.2869535989
H   H15       1.0  0.57520  0.43070  0.57330  1.0000 0.2819614268
H   H16       1.0  0.87640  0.31930  0.64570  1.0000 0.1309927696
H   H17       1.0  0.80560  0.23110  0.45510  1.0000 0.1383454173
H   H18       1.0  0.05100  0.29770  0.55090  1.0000 0.1383454173
H   H19       1.0  0.45500  0.27690  0.57850  1.0000 0.1383454173
H   H20       1.0  0.20460  0.25360  0.46810  1.0000 0.1383454173
H   H21       1.0  0.38620  0.19040  0.38850  1.0000 0.1309927696
H   H22       1.0  0.82780  0.56840  0.79220  1.0000 0.1383454173
H   H23       1.0  0.60260  0.61340  0.64330  1.0000 0.1309927696
H   H24       1.0  0.70790  0.40480  0.65420  1.0000 0.1198240711
H   H25       1.0  0.73490  0.20270  0.08630  1.0000 0.2869535989
H   H26       1.0  0.52820  0.30260  0.95480  1.0000 0.2869535989
H   H27       1.0  0.57520  0.06930  0.07330  1.0000 0.2819614268
H   H28       1.0  0.87640  0.18070  0.14570  1.0000 0.1309927696
H   H29       1.0  0.80560  0.26890  0.95510  1.0000 0.1383454173
H   H30       1.0  0.05100  0.20230  0.05090  1.0000 0.1383454173
H   H31       1.0  0.45500  0.22310  0.07850  1.0000 0.1383454173
H   H32       1.0  0.20460  0.24640  0.96810  1.0000 0.1383454173
H   H33       1.0  0.38620  0.30960  0.88850  1.0000 0.1309927696
H   H34       1.0  0.82780  0.93160  0.29220  1.0000 0.1383454173
H   H35       1.0  0.60260  0.88660  0.14330  1.0000 0.1309927696
H   H36       1.0  0.70790  0.09520  0.15420  1.0000 0.1198240711
H   H37       1.0  0.26510  0.70270  0.41370  1.0000 0.2869535989
H   H38       1.0  0.47180  0.80260  0.54520  1.0000 0.2869535989
H   H39       1.0  0.42480  0.56930  0.42670  1.0000 0.2819614268
H   H40       1.0  0.12360  0.68070  0.35430  1.0000 0.1309927696
H   H41       1.0  0.19440  0.76890  0.54490  1.0000 0.1383454173
H   H42       1.0  0.94900  0.70230  0.44910  1.0000 0.1383454173
H   H43       1.0  0.54500  0.72310  0.42150  1.0000 0.1383454173
H   H44       1.0  0.79540  0.74640  0.53190  1.0000 0.1383454173
H   H45       1.0  0.61380  0.80960  0.61150  1.0000 0.1309927696
H   H46       1.0  0.17220  0.43160  0.20780  1.0000 0.1383454173
H   H47       1.0  0.39740  0.38660  0.35670  1.0000 0.1309927696
H   H48       1.0  0.29210  0.59520  0.34580  1.0000 0.1198240711
C   C1        1.0  0.95960  0.84550  0.83000  1.0000 0.6694992936
C   C2        1.0  0.02460  0.81150  0.88880  1.0000 -0.071925497
C   C3        1.0  0.10840  0.80370  0.89170  1.0000 -0.1837321737
C   C4        1.0  0.17140  0.77320  0.94860  1.0000 0.211943465
C   C5        1.0  0.15200  0.75100  0.00650  1.0000 -0.1572490998
C   C6        1.0  0.06780  0.75940  0.00490  1.0000 -0.0003229969
C   C7        1.0  0.00470  0.79050  0.94820  1.0000 -0.08979522
C   C8        1.0  0.04610  0.73580  0.06700  1.0000 0.5592439777
C   C9        1.0  0.32640  0.73670  0.98950  1.0000 0.3742052622
C   C10       1.0  0.40520  0.75420  0.96890  1.0000 0.3814373842
C   C11       1.0  0.56480  0.73420  0.01600  1.0000 0.211943465
C   C12       1.0  0.58790  0.76200  0.96180  1.0000 -0.1695163429
C   C13       1.0  0.67290  0.76790  0.96660  1.0000 -0.0068917324
C   C14       1.0  0.73770  0.74770  0.02790  1.0000 -0.1033866027
C   C15       1.0  0.71630  0.71920  0.08240  1.0000 -0.0334320406
C   C16       1.0  0.62890  0.71120  0.07570  1.0000 -0.2016307407
C   C17       1.0  0.69700  0.79630  0.90800  1.0000 0.5592439777
C   C18       1.0  0.78390  0.69370  0.14680  1.0000 0.6557392783
C   C19       1.0  0.14610  0.92260  0.73940  1.0000 0.5712877369
C   C20       1.0  0.21930  0.97860  0.77220  1.0000 0.0157271775
C   C21       1.0  0.21740  0.05320  0.74650  1.0000 -0.1064894491
C   C22       1.0  0.28290  0.10470  0.77850  1.0000 -0.0068917324
C   C23       1.0  0.35220  0.07960  0.83550  1.0000 -0.1695163429
C   C24       1.0  0.35330  0.00750  0.85930  1.0000 0.1980421289
C   C25       1.0  0.28920  0.95510  0.82900  1.0000 -0.212621256
C   C26       1.0  0.27860  0.18500  0.75120  1.0000 0.55356066
C   C27       1.0  0.47600  0.02470  0.96930  1.0000 0.3742052622
C   C28       1.0  0.04040  0.34550  0.67000  1.0000 0.6694992936
C   C29       1.0  0.97540  0.31150  0.61120  1.0000 -0.071925497
C   C30       1.0  0.89160  0.30370  0.60830  1.0000 -0.1837321737
C   C31       1.0  0.82860  0.27320  0.55140  1.0000 0.211943465
C   C32       1.0  0.84800  0.25100  0.49350  1.0000 -0.1572490998
C   C33       1.0  0.93220  0.25940  0.49510  1.0000 -0.0003229969
C   C34       1.0  0.99530  0.29050  0.55180  1.0000 -0.08979522
C   C35       1.0  0.95390  0.23580  0.43300  1.0000 0.5592439777
C   C36       1.0  0.67360  0.23670  0.51050  1.0000 0.3742052622
C   C37       1.0  0.59480  0.25420  0.53110  1.0000 0.3814373842
C   C38       1.0  0.43520  0.23420  0.48400  1.0000 0.211943465
C   C39       1.0  0.41210  0.26200  0.53820  1.0000 -0.1695163429
C   C40       1.0  0.32710  0.26790  0.53340  1.0000 -0.0068917324
C   C41       1.0  0.26230  0.24770  0.47210  1.0000 -0.1033866027
C   C42       1.0  0.28370  0.21920  0.41760  1.0000 -0.0334320406
C   C43       1.0  0.37110  0.21120  0.42430  1.0000 -0.2016307407
C   C44       1.0  0.30300  0.29630  0.59200  1.0000 0.5592439777
C   C45       1.0  0.21610  0.19370  0.35320  1.0000 0.6557392783
C   C46       1.0  0.85390  0.42260  0.76060  1.0000 0.5712877369
C   C47       1.0  0.78070  0.47860  0.72780  1.0000 0.0157271775
C   C48       1.0  0.78260  0.55320  0.75350  1.0000 -0.1064894491
C   C49       1.0  0.71710  0.60470  0.72150  1.0000 -0.0068917324
C   C50       1.0  0.64780  0.57960  0.66450  1.0000 -0.1695163429
C   C51       1.0  0.64670  0.50750  0.64070  1.0000 0.1980421289
C   C52       1.0  0.71080  0.45510  0.67100  1.0000 -0.212621256
C   C53       1.0  0.72140  0.68500  0.74880  1.0000 0.55356066
C   C54       1.0  0.52400  0.52470  0.53070  1.0000 0.3742052622
C   C55       1.0  0.04040  0.15450  0.17000  1.0000 0.6694992936
C   C56       1.0  0.97540  0.18850  0.11120  1.0000 -0.071925497
C   C57       1.0  0.89160  0.19630  0.10830  1.0000 -0.1837321737
C   C58       1.0  0.82860  0.22680  0.05140  1.0000 0.211943465
C   C59       1.0  0.84800  0.24900  0.99350  1.0000 -0.1572490998
C   C60       1.0  0.93220  0.24060  0.99510  1.0000 0.0008480369
C   C61       1.0  0.99530  0.20950  0.05180  1.0000 -0.08979522
C   C62       1.0  0.95390  0.26420  0.93300  1.0000 0.5592439777
C   C63       1.0  0.67360  0.26330  0.01050  1.0000 0.3742052622
C   C64       1.0  0.59480  0.24580  0.03110  1.0000 0.3814373842
C   C65       1.0  0.43520  0.26580  0.98400  1.0000 0.211943465
C   C66       1.0  0.41210  0.23800  0.03820  1.0000 -0.1695163429
C   C67       1.0  0.32710  0.23210  0.03340  1.0000 -0.0068917324
C   C68       1.0  0.26230  0.25230  0.97210  1.0000 -0.1033866027
C   C69       1.0  0.28370  0.28080  0.91760  1.0000 -0.0334320406
C   C70       1.0  0.37110  0.28880  0.92430  1.0000 -0.2016307407
C   C71       1.0  0.30300  0.20370  0.09200  1.0000 0.5592439777
C   C72       1.0  0.21610  0.30630  0.85320  1.0000 0.6557392783
C   C73       1.0  0.85390  0.07740  0.26060  1.0000 0.5712877369
C   C74       1.0  0.78070  0.02140  0.22780  1.0000 0.0157271775
C   C75       1.0  0.78260  0.94680  0.25350  1.0000 -0.1064894491
C   C76       1.0  0.71710  0.89530  0.22150  1.0000 -0.0068917324
C   C77       1.0  0.64780  0.92040  0.16450  1.0000 -0.1695163429
C   C78       1.0  0.64670  0.99250  0.14070  1.0000 0.1980421289
C   C79       1.0  0.71080  0.04490  0.17100  1.0000 -0.212621256
C   C80       1.0  0.72140  0.81500  0.24880  1.0000 0.55356066
C   C81       1.0  0.52400  0.97530  0.03070  1.0000 0.3742052622
C   C82       1.0  0.95960  0.65450  0.33000  1.0000 0.6694992936
C   C83       1.0  0.02460  0.68850  0.38880  1.0000 -0.071925497
C   C84       1.0  0.10840  0.69630  0.39170  1.0000 -0.1837321737
C   C85       1.0  0.17140  0.72680  0.44860  1.0000 0.211943465
C   C86       1.0  0.15200  0.74900  0.50650  1.0000 -0.1572490998
C   C87       1.0  0.06780  0.74060  0.50490  1.0000 0.0008480369
C   C88       1.0  0.00470  0.70950  0.44820  1.0000 -0.08979522
C   C89       1.0  0.04610  0.76420  0.56700  1.0000 0.5592439777
C   C90       1.0  0.32640  0.76330  0.48950  1.0000 0.3742052622
C   C91       1.0  0.40520  0.74580  0.46890  1.0000 0.3814373842
C   C92       1.0  0.56480  0.76580  0.51600  1.0000 0.211943465
C   C93       1.0  0.58790  0.73800  0.46180  1.0000 -0.1695163429
C   C94       1.0  0.67290  0.73210  0.46660  1.0000 -0.0068917324
C   C95       1.0  0.73770  0.75230  0.52790  1.0000 -0.1033866027
C   C96       1.0  0.71630  0.78080  0.58240  1.0000 -0.0334320406
C   C97       1.0  0.62890  0.78880  0.57570  1.0000 -0.2016307407
C   C98       1.0  0.69700  0.70370  0.40800  1.0000 0.5592439777
C   C99       1.0  0.78390  0.80630  0.64680  1.0000 0.6557392783
C   C100      1.0  0.14610  0.57740  0.23940  1.0000 0.5712877369
C   C101      1.0  0.21930  0.52140  0.27220  1.0000 0.0157271775
C   C102      1.0  0.21740  0.44680  0.24650  1.0000 -0.1064894491
C   C103      1.0  0.28290  0.39530  0.27850  1.0000 -0.0068917324
C   C104      1.0  0.35220  0.42040  0.33550  1.0000 -0.1695163429
C   C105      1.0  0.35330  0.49250  0.35930  1.0000 0.1980421289
C   C106      1.0  0.28920  0.54490  0.32900  1.0000 -0.212621256
C   C107      1.0  0.27860  0.31500  0.25120  1.0000 0.55356066
C   C108      1.0  0.47600  0.47530  0.46930  1.0000 0.3742052622
N   N1        1.0  0.25690  0.77190  0.94680  1.0000 -0.3103222542
N   N2        1.0  0.47860  0.72560  0.01320  1.0000 -0.30403158
N   N3        1.0  0.42020  0.98010  0.92070  1.0000 -0.3470632651
N   N4        1.0  0.74310  0.27190  0.55320  1.0000 -0.3103222542
N   N5        1.0  0.52140  0.22560  0.48680  1.0000 -0.30403158
N   N6        1.0  0.57980  0.48010  0.57930  1.0000 -0.3470632651
N   N7        1.0  0.74310  0.22810  0.05320  1.0000 -0.3103222542
N   N8        1.0  0.52140  0.27440  0.98680  1.0000 -0.30403158
N   N9        1.0  0.57980  0.01990  0.07930  1.0000 -0.3470632651
N   N10       1.0  0.25690  0.72810  0.44680  1.0000 -0.3103222542
N   N11       1.0  0.47860  0.77440  0.51320  1.0000 -0.30403158
N   N12       1.0  0.42020  0.51990  0.42070  1.0000 -0.3470632651
O   O1        1.0  0.88580  0.86020  0.83190  1.0000 -0.6513317261
O   O2        1.0  0.98120  0.86000  0.77740  1.0000 -0.691768437
O   O3        1.0  0.97630  0.75470  0.07280  1.0000 -0.6193180276
O   O4        1.0  0.09910  0.69440  0.11160  1.0000 -0.6402510868
O   O5        1.0  0.32990  0.69630  0.03740  1.0000 -0.4041945183
O   O6        1.0  0.40130  0.79410  0.91900  1.0000 -0.4573316046
O   O7        1.0  0.63940  0.81300  0.85360  1.0000 -0.6193180276
O   O8        1.0  0.77410  0.80130  0.91230  1.0000 -0.5926529014
O   O9        1.0  0.76190  0.65470  0.18760  1.0000 -0.6513317261
O   O10       1.0  0.85930  0.71100  0.15210  1.0000 -0.6513317261
O   O11       1.0  0.07790  0.94890  0.69680  1.0000 -0.6402510868
O   O12       1.0  0.15500  0.85220  0.75680  1.0000 -0.6402510868
O   O13       1.0  0.21110  0.20780  0.70520  1.0000 -0.607867732
O   O14       1.0  0.34310  0.22860  0.77090  1.0000 -0.6193180276
O   O15       1.0  0.48990  0.09130  0.96540  1.0000 -0.4161372824
O   O16       1.0  0.11420  0.36020  0.66810  1.0000 -0.6513317261
O   O17       1.0  0.01880  0.36000  0.72260  1.0000 -0.691768437
O   O18       1.0  0.02370  0.25470  0.42720  1.0000 -0.6193180276
O   O19       1.0  0.90090  0.19440  0.38840  1.0000 -0.6402510868
O   O20       1.0  0.67010  0.19630  0.46260  1.0000 -0.4076567137
O   O21       1.0  0.59870  0.29410  0.58100  1.0000 -0.4573316046
O   O22       1.0  0.36060  0.31300  0.64640  1.0000 -0.6193180276
O   O23       1.0  0.22590  0.30130  0.58770  1.0000 -0.5926529014
O   O24       1.0  0.23810  0.15470  0.31240  1.0000 -0.6513317261
O   O25       1.0  0.14070  0.21100  0.34790  1.0000 -0.6513317261
O   O26       1.0  0.92210  0.44890  0.80320  1.0000 -0.6402510868
O   O27       1.0  0.84500  0.35220  0.74320  1.0000 -0.6402510868
O   O28       1.0  0.78890  0.70780  0.79480  1.0000 -0.607867732
O   O29       1.0  0.65690  0.72860  0.72910  1.0000 -0.6193180276
O   O30       1.0  0.51010  0.59130  0.53460  1.0000 -0.4076567137
O   O31       1.0  0.11420  0.13980  0.16810  1.0000 -0.6513317261
O   O32       1.0  0.01880  0.14000  0.22260  1.0000 -0.691768437
O   O33       1.0  0.02370  0.24530  0.92720  1.0000 -0.6193180276
O   O34       1.0  0.90090  0.30560  0.88840  1.0000 -0.6402510868
O   O35       1.0  0.67010  0.30370  0.96260  1.0000 -0.4076567137
O   O36       1.0  0.59870  0.20590  0.08100  1.0000 -0.4573316046
O   O37       1.0  0.36060  0.18700  0.14640  1.0000 -0.6193180276
O   O38       1.0  0.22590  0.19870  0.08770  1.0000 -0.5926529014
O   O39       1.0  0.23810  0.34530  0.81240  1.0000 -0.6513317261
O   O40       1.0  0.14070  0.28900  0.84790  1.0000 -0.6513317261
O   O41       1.0  0.92210  0.05110  0.30320  1.0000 -0.6402510868
O   O42       1.0  0.84500  0.14780  0.24320  1.0000 -0.6402510868
O   O43       1.0  0.78890  0.79220  0.29480  1.0000 -0.607867732
O   O44       1.0  0.65690  0.77140  0.22910  1.0000 -0.6193180276
O   O45       1.0  0.51010  0.90870  0.03460  1.0000 -0.4161372824
O   O46       1.0  0.88580  0.63980  0.33190  1.0000 -0.6513317261
O   O47       1.0  0.98120  0.64000  0.27740  1.0000 -0.691768437
O   O48       1.0  0.97630  0.74530  0.57280  1.0000 -0.6193180276
O   O49       1.0  0.09910  0.80560  0.61160  1.0000 -0.6402510868
O   O50       1.0  0.32990  0.80370  0.53740  1.0000 -0.4076567137
O   O51       1.0  0.40130  0.70590  0.41900  1.0000 -0.4573316046
O   O52       1.0  0.63940  0.68700  0.35360  1.0000 -0.6193180276
O   O53       1.0  0.77410  0.69870  0.41230  1.0000 -0.5926529014
O   O54       1.0  0.76190  0.84530  0.68760  1.0000 -0.6402510868
O   O55       1.0  0.85930  0.78900  0.65210  1.0000 -0.6513317261
O   O56       1.0  0.07790  0.55110  0.19680  1.0000 -0.6402510868
O   O57       1.0  0.15500  0.64780  0.25680  1.0000 -0.6402510868
O   O58       1.0  0.21110  0.29220  0.20520  1.0000 -0.607867732
O   O59       1.0  0.34310  0.27140  0.27090  1.0000 -0.6193180276
O   O60       1.0  0.48990  0.40870  0.46540  1.0000 -0.4161372824
