# DDEC6 charges by PACMAN v1.1 (https://github.com/mtap-research/PACMAN-charge/)
data_2017[Cu][lvt]3[ASR]1
_chemical_formula_sum              "Cu4 H36 C52 O16"
_cell_length_a       16.94
_cell_length_b       16.94
_cell_length_c       16.94
_cell_angle_alpha    143.034
_cell_angle_beta     127.655
_cell_angle_gamma    65.8014

_symmetry_space_group_name_H-M    "P 1"
_symmetry_Int_Tables_number       1

loop_
  _symmetry_equiv_pos_as_xyz
  'x, y, z'

loop_
  _atom_site_type_symbol
  _atom_site_label
  _atom_site_symmetry_multiplicity
  _atom_site_fract_x
  _atom_site_fract_y
  _atom_site_fract_z
  _atom_site_occupancy
  _atom_site_charge
Cu  Cu1       1.0  0.46710  0.05603  0.58893  1.0000 0.870391499
Cu  Cu2       1.0  0.03290  0.62183  0.58893  1.0000 0.870391499
Cu  Cu3       1.0  0.53290  0.94397  0.41107  1.0000 0.870391499
Cu  Cu4       1.0  0.96710  0.37817  0.41107  1.0000 0.870391499
H   H1        1.0  0.23210  0.73210  0.00000  1.0000 0.1379536823
H   H2        1.0  0.26790  0.26790  0.50000  1.0000 0.1379536823
H   H3        1.0  0.76790  0.26790  0.00000  1.0000 0.1379536823
H   H4        1.0  0.73210  0.73210  0.50000  1.0000 0.1379536823
H   H5        1.0  0.21320  0.73350  0.22590  1.0000 0.1379536823
H   H6        1.0  0.28680  0.51270  0.52030  1.0000 0.1379536823
H   H7        1.0  0.49240  0.26650  0.47970  1.0000 0.1379536823
H   H8        1.0  0.00760  0.48730  0.77410  1.0000 0.1379536823
H   H9        1.0  0.78680  0.26650  0.77410  1.0000 0.1379536823
H   H10       1.0  0.71320  0.48730  0.47970  1.0000 0.1379536823
H   H11       1.0  0.50760  0.73350  0.52030  1.0000 0.1379536823
H   H12       1.0  0.99240  0.51270  0.22590  1.0000 0.1379536823
H   H13       1.0  0.88640  0.68730  0.95670  1.0000 0.1265872529
H   H14       1.0  0.61360  0.57030  0.80090  1.0000 0.1265872529
H   H15       1.0  0.26940  0.31270  0.19910  1.0000 0.1265872529
H   H16       1.0  0.23060  0.42970  0.04330  1.0000 0.1265872529
H   H17       1.0  0.11360  0.31270  0.04330  1.0000 0.1265872529
H   H18       1.0  0.38640  0.42970  0.19910  1.0000 0.1265872529
H   H19       1.0  0.73060  0.68730  0.80090  1.0000 0.1265872529
H   H20       1.0  0.76940  0.57030  0.95670  1.0000 0.1265872529
H   H21       1.0  0.99500  0.77530  0.10790  1.0000 0.1203014308
H   H22       1.0  0.50500  0.61290  0.78030  1.0000 0.1203014308
H   H23       1.0  0.33260  0.22470  0.21970  1.0000 0.1203014308
H   H24       1.0  0.16740  0.38710  0.89210  1.0000 0.1203014308
H   H25       1.0  0.00500  0.22470  0.89210  1.0000 0.1203014308
H   H26       1.0  0.49500  0.38710  0.21970  1.0000 0.1203014308
H   H27       1.0  0.66740  0.77530  0.78030  1.0000 0.1203014308
H   H28       1.0  0.83260  0.61290  0.10790  1.0000 0.1203014308
H   H29       1.0  0.90680  0.77670  0.11850  1.0000 0.1203014308
H   H30       1.0  0.59320  0.71170  0.86990  1.0000 0.1203014308
H   H31       1.0  0.34180  0.22330  0.13010  1.0000 0.1203014308
H   H32       1.0  0.15820  0.28830  0.88150  1.0000 0.1203014308
H   H33       1.0  0.09320  0.22330  0.88150  1.0000 0.1203014308
H   H34       1.0  0.40680  0.28830  0.13010  1.0000 0.1203014308
H   H35       1.0  0.65820  0.77670  0.86990  1.0000 0.1203014308
H   H36       1.0  0.84180  0.71170  0.11850  1.0000 0.1203014308
C   C1        1.0  0.23850  0.74620  0.13370  1.0000 -0.0127210498
C   C2        1.0  0.26150  0.39520  0.50770  1.0000 -0.0127210498
C   C3        1.0  0.38750  0.25380  0.49230  1.0000 -0.0127210498
C   C4        1.0  0.11250  0.60480  0.86630  1.0000 -0.0127210498
C   C5        1.0  0.76150  0.25380  0.86630  1.0000 -0.0127210498
C   C6        1.0  0.73850  0.60480  0.49230  1.0000 -0.0127210498
C   C7        1.0  0.61250  0.74620  0.50770  1.0000 -0.0127210498
C   C8        1.0  0.88750  0.39520  0.13370  1.0000 -0.0127210498
C   C9        1.0  0.10180  0.60180  0.00000  1.0000 0.1068969628
C   C10       1.0  0.39820  0.39820  0.50000  1.0000 0.1068969628
C   C11       1.0  0.89820  0.39820  0.00000  1.0000 0.1068969628
C   C12       1.0  0.60180  0.60180  0.50000  1.0000 0.1068969628
C   C13       1.0  0.33530  0.84410  0.27420  1.0000 0.5841607263
C   C14       1.0  0.16470  0.43890  0.50880  1.0000 0.5841607263
C   C15       1.0  0.43010  0.15590  0.49120  1.0000 0.5841607263
C   C16       1.0  0.06990  0.56110  0.72580  1.0000 0.5841607263
C   C17       1.0  0.66470  0.15590  0.72580  1.0000 0.5841607263
C   C18       1.0  0.83530  0.56110  0.49120  1.0000 0.5841607263
C   C19       1.0  0.56990  0.84410  0.50880  1.0000 0.5841607263
C   C20       1.0  0.93010  0.43890  0.27420  1.0000 0.5841607263
C   C21       1.0  0.97060  0.60560  0.02620  1.0000 0.0648953354
C   C22       1.0  0.52940  0.55560  0.63500  1.0000 0.0648953354
C   C23       1.0  0.42060  0.39440  0.36500  1.0000 0.0652603989
C   C24       1.0  0.07940  0.44440  0.97380  1.0000 0.0648953354
C   C25       1.0  0.02940  0.39440  0.97380  1.0000 0.0652603989
C   C26       1.0  0.47060  0.44440  0.36500  1.0000 0.0652603989
C   C27       1.0  0.57940  0.60560  0.63500  1.0000 0.0648953354
C   C28       1.0  0.92060  0.55560  0.02620  1.0000 0.0652603989
C   C29       1.0  0.19870  0.69870  0.00000  1.0000 -0.1203435103
C   C30       1.0  0.30130  0.30130  0.50000  1.0000 -0.1203435103
C   C31       1.0  0.80130  0.30130  0.00000  1.0000 -0.1203435103
C   C32       1.0  0.69870  0.69870  0.50000  1.0000 -0.1203435103
C   C33       1.0  0.18850  0.69920  0.13370  1.0000 -0.1457658039
C   C34       1.0  0.31150  0.44520  0.51070  1.0000 -0.1457658039
C   C35       1.0  0.43450  0.30080  0.48930  1.0000 -0.1457658039
C   C36       1.0  0.06550  0.55480  0.86630  1.0000 -0.1457658039
C   C37       1.0  0.81150  0.30080  0.86630  1.0000 -0.1457658039
C   C38       1.0  0.68850  0.55480  0.48930  1.0000 -0.1457658039
C   C39       1.0  0.56550  0.69920  0.51070  1.0000 -0.1457658039
C   C40       1.0  0.93450  0.44520  0.13370  1.0000 -0.1457658039
C   C41       1.0  0.04920  0.54920  0.00000  1.0000 -0.0788908864
C   C42       1.0  0.45080  0.45080  0.50000  1.0000 -0.0788908864
C   C43       1.0  0.95080  0.45080  0.00000  1.0000 -0.0788908864
C   C44       1.0  0.54920  0.54920  0.50000  1.0000 -0.0788908864
C   C45       1.0  0.93670  0.72160  0.05490  1.0000 -0.4363326023
C   C46       1.0  0.56330  0.61820  0.78490  1.0000 -0.4363326023
C   C47       1.0  0.33333  0.27840  0.21510  1.0000 -0.4363326023
C   C48       1.0  0.16670  0.38180  0.94510  1.0000 -0.4363326023
C   C49       1.0  0.06330  0.27840  0.94510  1.0000 -0.4363326023
C   C50       1.0  0.43670  0.38180  0.21510  1.0000 -0.4363326023
C   C51       1.0  0.66667  0.72160  0.78490  1.0000 -0.4363326023
C   C52       1.0  0.83330  0.61820  0.05490  1.0000 -0.4363326023
O   O1        1.0  0.34454  0.92724  0.40210  1.0000 -0.508783404
O   O2        1.0  0.15546  0.55756  0.58270  1.0000 -0.508783404
O   O3        1.0  0.47486  0.07276  0.41730  1.0000 -0.508783404
O   O4        1.0  0.02514  0.44244  0.59790  1.0000 -0.508783404
O   O5        1.0  0.65546  0.07276  0.59790  1.0000 -0.508783404
O   O6        1.0  0.84454  0.44244  0.41730  1.0000 -0.508783404
O   O7        1.0  0.52514  0.92724  0.58270  1.0000 -0.508783404
O   O8        1.0  0.97486  0.55756  0.40210  1.0000 -0.508783404
O   O9        1.0  0.39781  0.83851  0.25530  1.0000 -0.508783404
O   O10       1.0  0.10219  0.35749  0.44070  1.0000 -0.508783404
O   O11       1.0  0.41679  0.16149  0.55930  1.0000 -0.508783404
O   O12       1.0  0.08321  0.64251  0.74470  1.0000 -0.508783404
O   O13       1.0  0.60219  0.16149  0.74470  1.0000 -0.508783404
O   O14       1.0  0.89781  0.64251  0.55930  1.0000 -0.508783404
O   O15       1.0  0.58321  0.83851  0.44070  1.0000 -0.508783404
O   O16       1.0  0.91679  0.35749  0.25530  1.0000 -0.508783404
