# DDEC6 charges by PACMAN v1.1 (https://github.com/mtap-research/PACMAN-charge/)
data_2017[Dy][sql]2[ASR]1
_chemical_formula_sum              "Dy2 H48 C78 N2 O12"
_cell_length_a       21.3003
_cell_length_b       21.3003
_cell_length_c       8.9856
_cell_angle_alpha    85.5029
_cell_angle_beta     94.4971
_cell_angle_gamma    35.5327

_symmetry_space_group_name_H-M    "P 1"
_symmetry_Int_Tables_number       1

loop_
  _symmetry_equiv_pos_as_xyz
  'x, y, z'

loop_
  _atom_site_type_symbol
  _atom_site_label
  _atom_site_symmetry_multiplicity
  _atom_site_fract_x
  _atom_site_fract_y
  _atom_site_fract_z
  _atom_site_occupancy
  _atom_site_charge
Dy  Dy1       1.0  0.87334  0.12666  0.67855  1.0000 1.9986834861
Dy  Dy2       1.0  0.12666  0.87334  0.32145  1.0000 1.9986834861
H   H1        1.0  0.18270  0.96330  0.89140  1.0000 0.1334721483
H   H2        1.0  0.27520  0.94980  0.74070  1.0000 0.1034263409
H   H3        1.0  0.55030  0.70990  0.08320  1.0000 0.1034263409
H   H4        1.0  0.45270  0.73010  0.23260  1.0000 0.1190617482
H   H5        1.0  0.42060  0.81040  0.59670  1.0000 0.1190617482
H   H6        1.0  0.52790  0.76330  0.43480  1.0000 0.1190617482
H   H7        1.0  0.68980  0.73220  0.77640  1.0000 0.1190617482
H   H8        1.0  0.57820  0.78380  0.93080  1.0000 0.1085512601
H   H9        1.0  0.58720  0.89240  0.50710  1.0000 0.1190617482
H   H10       1.0  0.64220  0.95080  0.50620  1.0000 0.1085512601
H   H11       1.0  0.74360  0.94800  0.63310  1.0000 0.1085512601
H   H12       1.0  0.80050  0.00490  0.63460  1.0000 0.1190617482
H   H13       1.0  0.96330  0.18270  0.10860  1.0000 0.1334721483
H   H14       1.0  0.94980  0.27520  0.25930  1.0000 0.1034263409
H   H15       1.0  0.70990  0.55030  0.91680  1.0000 0.1034263409
H   H16       1.0  0.73010  0.45270  0.76740  1.0000 0.1190617482
H   H17       1.0  0.81040  0.42060  0.40330  1.0000 0.1190617482
H   H18       1.0  0.76330  0.52790  0.56520  1.0000 0.1190617482
H   H19       1.0  0.73220  0.68980  0.22360  1.0000 0.1190617482
H   H20       1.0  0.78380  0.57820  0.06920  1.0000 0.1085512601
H   H21       1.0  0.89240  0.58720  0.49290  1.0000 0.1190617482
H   H22       1.0  0.95080  0.64220  0.49380  1.0000 0.1085512601
H   H23       1.0  0.94800  0.74360  0.36690  1.0000 0.1085512601
H   H24       1.0  0.00490  0.80050  0.36540  1.0000 0.1190617482
H   H25       1.0  0.81730  0.03670  0.10860  1.0000 0.1334721483
H   H26       1.0  0.72480  0.05020  0.25930  1.0000 0.1034263409
H   H27       1.0  0.44970  0.29010  0.91680  1.0000 0.1034263409
H   H28       1.0  0.54730  0.26990  0.76740  1.0000 0.1190617482
H   H29       1.0  0.57940  0.18960  0.40330  1.0000 0.1190617482
H   H30       1.0  0.47210  0.23670  0.56520  1.0000 0.1190617482
H   H31       1.0  0.31020  0.26780  0.22360  1.0000 0.1190617482
H   H32       1.0  0.42180  0.21620  0.06920  1.0000 0.1085512601
H   H33       1.0  0.41280  0.10760  0.49290  1.0000 0.1190617482
H   H34       1.0  0.35780  0.04920  0.49380  1.0000 0.1085512601
H   H35       1.0  0.25640  0.05200  0.36690  1.0000 0.1085512601
H   H36       1.0  0.19950  0.99510  0.36540  1.0000 0.1190617482
H   H37       1.0  0.03670  0.81730  0.89140  1.0000 0.1334721483
H   H38       1.0  0.05020  0.72480  0.74070  1.0000 0.1034263409
H   H39       1.0  0.29010  0.44970  0.08320  1.0000 0.1034263409
H   H40       1.0  0.26990  0.54730  0.23260  1.0000 0.1190617482
H   H41       1.0  0.18960  0.57940  0.59670  1.0000 0.1190617482
H   H42       1.0  0.23670  0.47210  0.43480  1.0000 0.1190617482
H   H43       1.0  0.26780  0.31020  0.77640  1.0000 0.1190617482
H   H44       1.0  0.21620  0.42180  0.93080  1.0000 0.1085512601
H   H45       1.0  0.10760  0.41280  0.50710  1.0000 0.1190617482
H   H46       1.0  0.04920  0.35780  0.50620  1.0000 0.1085512601
H   H47       1.0  0.05200  0.25640  0.63310  1.0000 0.1085512601
H   H48       1.0  0.99510  0.19950  0.63460  1.0000 0.1190617482
C   C1        1.0  0.24990  0.85250  0.16430  1.0000 0.5603599884
C   C2        1.0  0.30935  0.84495  0.06840  1.0000 -0.010339626
C   C3        1.0  0.25810  0.90970  0.92890  1.0000 -0.0869438238
C   C4        1.0  0.31421  0.89961  0.83600  1.0000 -0.14797323
C   C5        1.0  0.42803  0.81503  0.88500  1.0000 0.0702906288
C   C6        1.0  0.47758  0.75738  0.04040  1.0000 -0.1581669562
C   C7        1.0  0.41860  0.77080  0.13070  1.0000 -0.1100505227
C   C8        1.0  0.49073  0.79613  0.78150  1.0000 0.0446532806
C   C9        1.0  0.47665  0.79265  0.63450  1.0000 -0.1408055238
C   C10       1.0  0.54133  0.76393  0.53520  1.0000 -0.1899926103
C   C11       1.0  0.62583  0.73663  0.59110  1.0000 0.1672870852
C   C12       1.0  0.63625  0.74645  0.73910  1.0000 -0.1899926103
C   C13       1.0  0.56995  0.77655  0.83320  1.0000 -0.14797323
C   C14       1.0  0.66006  0.84226  0.50410  1.0000 -0.1899926103
C   C15       1.0  0.69292  0.87772  0.50390  1.0000 -0.14797323
C   C16       1.0  0.79632  0.91812  0.57960  1.0000 -0.14797323
C   C17       1.0  0.83001  0.95261  0.58050  1.0000 -0.1100505227
C   C18       1.0  0.85250  0.24990  0.83570  1.0000 0.5603599884
C   C19       1.0  0.84495  0.30935  0.93160  1.0000 -0.010339626
C   C20       1.0  0.90970  0.25810  0.07110  1.0000 -0.0869438238
C   C21       1.0  0.89961  0.31421  0.16400  1.0000 -0.14797323
C   C22       1.0  0.81503  0.42803  0.11500  1.0000 0.0702906288
C   C23       1.0  0.75738  0.47758  0.95960  1.0000 -0.1581669562
C   C24       1.0  0.77080  0.41860  0.86930  1.0000 -0.1100505227
C   C25       1.0  0.79613  0.49073  0.21850  1.0000 0.0446532806
C   C26       1.0  0.79265  0.47665  0.36550  1.0000 -0.1408055238
C   C27       1.0  0.76393  0.54133  0.46480  1.0000 -0.1899926103
C   C28       1.0  0.73663  0.62583  0.40890  1.0000 0.1672870852
C   C29       1.0  0.74645  0.63625  0.26090  1.0000 -0.1899926103
C   C30       1.0  0.77655  0.56995  0.16680  1.0000 -0.14797323
C   C31       1.0  0.84226  0.66006  0.49590  1.0000 -0.1899926103
C   C32       1.0  0.87772  0.69292  0.49610  1.0000 -0.1408055238
C   C33       1.0  0.91812  0.79632  0.42040  1.0000 -0.14797323
C   C34       1.0  0.95261  0.83001  0.41950  1.0000 -0.1100505227
C   C35       1.0  0.75010  0.14750  0.83570  1.0000 0.5603599884
C   C36       1.0  0.69065  0.15505  0.93160  1.0000 -0.010339626
C   C37       1.0  0.74190  0.09030  0.07110  1.0000 -0.0869438238
C   C38       1.0  0.68579  0.10039  0.16400  1.0000 -0.14797323
C   C39       1.0  0.57197  0.18497  0.11500  1.0000 0.0702906288
C   C40       1.0  0.52242  0.24262  0.95960  1.0000 -0.1581669562
C   C41       1.0  0.58140  0.22920  0.86930  1.0000 -0.1100505227
C   C42       1.0  0.50927  0.20387  0.21850  1.0000 0.0446532806
C   C43       1.0  0.52335  0.20735  0.36550  1.0000 -0.1408055238
C   C44       1.0  0.45867  0.23607  0.46480  1.0000 -0.1899926103
C   C45       1.0  0.37417  0.26337  0.40890  1.0000 0.1672870852
C   C46       1.0  0.36375  0.25355  0.26090  1.0000 -0.1899926103
C   C47       1.0  0.43005  0.22345  0.16680  1.0000 -0.14797323
C   C48       1.0  0.33994  0.15774  0.49590  1.0000 -0.1899926103
C   C49       1.0  0.30708  0.12228  0.49610  1.0000 -0.1408055238
C   C50       1.0  0.20368  0.08188  0.42040  1.0000 -0.14797323
C   C51       1.0  0.16999  0.04739  0.41950  1.0000 -0.1100505227
C   C52       1.0  0.14750  0.75010  0.16430  1.0000 0.5603599884
C   C53       1.0  0.15505  0.69065  0.06840  1.0000 -0.010339626
C   C54       1.0  0.09030  0.74190  0.92890  1.0000 -0.0869438238
C   C55       1.0  0.10039  0.68579  0.83600  1.0000 -0.14797323
C   C56       1.0  0.18497  0.57197  0.88500  1.0000 0.0702906288
C   C57       1.0  0.24262  0.52242  0.04040  1.0000 -0.1581669562
C   C58       1.0  0.22920  0.58140  0.13070  1.0000 -0.1100505227
C   C59       1.0  0.20387  0.50927  0.78150  1.0000 0.0446532806
C   C60       1.0  0.20735  0.52335  0.63450  1.0000 -0.1408055238
C   C61       1.0  0.23607  0.45867  0.53520  1.0000 -0.1899926103
C   C62       1.0  0.26337  0.37417  0.59110  1.0000 0.1672870852
C   C63       1.0  0.25355  0.36375  0.73910  1.0000 -0.1899926103
C   C64       1.0  0.22345  0.43005  0.83320  1.0000 -0.14797323
C   C65       1.0  0.15774  0.33994  0.50410  1.0000 -0.1899926103
C   C66       1.0  0.12228  0.30708  0.50390  1.0000 -0.1408055238
C   C67       1.0  0.08188  0.20368  0.57960  1.0000 -0.14797323
C   C68       1.0  0.04739  0.16999  0.58050  1.0000 -0.1100505227
C   C69       1.0  0.73351  0.73351  0.50000  1.0000 0.1672870852
C   C70       1.0  0.80311  0.80311  0.50000  1.0000 0.0527731851
C   C71       1.0  0.83958  0.83958  0.50000  1.0000 0.0702906288
C   C72       1.0  0.90844  0.90844  0.50000  1.0000 -0.0485771634
C   C73       1.0  0.94537  0.94537  0.50000  1.0000 0.65617368
C   C74       1.0  0.26649  0.26649  0.50000  1.0000 0.1672870852
C   C75       1.0  0.19689  0.19689  0.50000  1.0000 0.0527731851
C   C76       1.0  0.16042  0.16042  0.50000  1.0000 0.0702906288
C   C77       1.0  0.09156  0.09156  0.50000  1.0000 -0.0485771634
C   C78       1.0  0.05463  0.05463  0.50000  1.0000 0.65617368
N   N1        1.0  0.69873  0.69873  0.50000  1.0000 -0.1801419519
N   N2        1.0  0.30127  0.30127  0.50000  1.0000 -0.1801419519
O   O1        1.0  0.14690  0.92990  0.11520  1.0000 -0.583981242
O   O2        1.0  0.29330  0.79170  0.28830  1.0000 -0.5500545763
O   O3        1.0  0.89594  0.02294  0.55930  1.0000 -0.6742967926
O   O4        1.0  0.92990  0.14690  0.88480  1.0000 -0.583981242
O   O5        1.0  0.79170  0.29330  0.71170  1.0000 -0.5500545763
O   O6        1.0  0.02294  0.89594  0.44070  1.0000 -0.6742967926
O   O7        1.0  0.85310  0.07010  0.88480  1.0000 -0.583981242
O   O8        1.0  0.70670  0.20830  0.71170  1.0000 -0.5500545763
O   O9        1.0  0.10406  0.97706  0.44070  1.0000 -0.6742967926
O   O10       1.0  0.07010  0.85310  0.11520  1.0000 -0.583981242
O   O11       1.0  0.20830  0.70670  0.28830  1.0000 -0.5500545763
O   O12       1.0  0.97706  0.10406  0.55930  1.0000 -0.6742967926
