# DDEC6 charges by PACMAN v1.1 (https://github.com/mtap-research/PACMAN-charge/)
data_2017[CuMoMn][sql]2[ASR]1
_chemical_formula_sum              "Mn4 Cu2 Mo24 H80 C72 N8 O48"
_cell_length_a       13.338
_cell_length_b       23.136
_cell_length_c       26.444
_cell_angle_alpha    87.175
_cell_angle_beta     85.649
_cell_angle_gamma    87.712

_symmetry_space_group_name_H-M    "P 1"
_symmetry_Int_Tables_number       1

loop_
  _symmetry_equiv_pos_as_xyz
  'x, y, z'

loop_
  _atom_site_type_symbol
  _atom_site_label
  _atom_site_symmetry_multiplicity
  _atom_site_fract_x
  _atom_site_fract_y
  _atom_site_fract_z
  _atom_site_occupancy
  _atom_site_charge
Mn  Mn1       1.0  0.00000  0.00000  0.00000  1.0000 0.9095387505
Mn  Mn2       1.0  0.00000  0.00000  0.50000  1.0000 0.8979663696
Mn  Mn3       1.0  0.50000  0.50000  0.00000  1.0000 0.9095387505
Mn  Mn4       1.0  0.50000  0.50000  0.50000  1.0000 0.9095387505
Cu  Cu1       1.0  0.23036  0.74405  0.25089  1.0000 0.1865802777
Cu  Cu2       1.0  0.76964  0.25595  0.74911  1.0000 0.1865802777
Mo  Mo1       1.0  0.97383  0.11009  0.07760  1.0000 1.3982899633
Mo  Mo2       1.0  0.19496  0.08511  0.01192  1.0000 1.3818592674
Mo  Mo3       1.0  0.22019  0.97504  0.93383  1.0000 1.4213824716
Mo  Mo4       1.0  0.76932  0.95313  0.49393  1.0000 1.3372614827
Mo  Mo5       1.0  0.85119  0.06205  0.41382  1.0000 1.4081766453
Mo  Mo6       1.0  0.08456  0.10708  0.41794  1.0000 1.4532238689
Mo  Mo7       1.0  0.27858  0.43288  0.01281  1.0000 1.3710245934
Mo  Mo8       1.0  0.31305  0.54214  0.92638  1.0000 1.4312872376
Mo  Mo9       1.0  0.53243  0.60964  0.91471  1.0000 1.4312872376
Mo  Mo10      1.0  0.41316  0.60043  0.58223  1.0000 1.4081766453
Mo  Mo11      1.0  0.63965  0.61107  0.52155  1.0000 1.3570981469
Mo  Mo12      1.0  0.72655  0.51147  0.43836  1.0000 1.3880567994
Mo  Mo13      1.0  0.02617  0.88991  0.92240  1.0000 1.3880567994
Mo  Mo14      1.0  0.80504  0.91489  0.98808  1.0000 1.3818592674
Mo  Mo15      1.0  0.77981  0.02496  0.06617  1.0000 1.4312872376
Mo  Mo16      1.0  0.23068  0.04687  0.50607  1.0000 1.3372614827
Mo  Mo17      1.0  0.14881  0.93795  0.58618  1.0000 1.4081766453
Mo  Mo18      1.0  0.91544  0.89292  0.58206  1.0000 1.4567410197
Mo  Mo19      1.0  0.72142  0.56712  0.98719  1.0000 1.3710245934
Mo  Mo20      1.0  0.68695  0.45786  0.07362  1.0000 1.4312872376
Mo  Mo21      1.0  0.46757  0.39036  0.08529  1.0000 1.4312872376
Mo  Mo22      1.0  0.58684  0.39957  0.41777  1.0000 1.4081766453
Mo  Mo23      1.0  0.36035  0.38893  0.47845  1.0000 1.3570981469
Mo  Mo24      1.0  0.27345  0.48853  0.56164  1.0000 1.3818592674
H   H1        1.0  0.11148  0.74353  0.15983  1.0000 0.0961823423
H   H2        1.0  0.04742  0.80656  0.10315  1.0000 0.109860364
H   H3        1.0  0.16405  0.93613  0.16999  1.0000 0.109860364
H   H4        1.0  0.22451  0.86930  0.22777  1.0000 0.0892582988
H   H5        1.0  0.19492  0.90114  0.03647  1.0000 0.0892582988
H   H6        1.0  0.10679  0.85788  0.03003  1.0000 0.0815425055
H   H7        1.0  0.93982  0.87382  0.07519  1.0000 0.0892582988
H   H8        1.0  0.92146  0.92121  0.11716  1.0000 0.0892582988
H   H9        1.0  0.05745  0.99449  0.12649  1.0000 0.0815425055
H   H10       1.0  0.16616  0.98394  0.09793  1.0000 0.0815425055
H   H11       1.0  0.16456  0.68036  0.34561  1.0000 0.0892582988
H   H12       1.0  0.22709  0.61809  0.40546  1.0000 0.109860364
H   H13       1.0  0.49706  0.61891  0.32687  1.0000 0.109860364
H   H14       1.0  0.42642  0.68207  0.26841  1.0000 0.0961823423
H   H15       1.0  0.48757  0.51491  0.36451  1.0000 0.0892582988
H   H16       1.0  0.55681  0.56659  0.37673  1.0000 0.0815425055
H   H17       1.0  0.27542  0.55419  0.45304  1.0000 0.0815425055
H   H18       1.0  0.30972  0.50757  0.41192  1.0000 0.0892582988
H   H19       1.0  0.48761  0.64209  0.43896  1.0000 0.0892582988
H   H20       1.0  0.37854  0.63470  0.46732  1.0000 0.0892582988
H   H21       1.0  0.22707  0.62242  0.22257  1.0000 0.0892582988
H   H22       1.0  0.30144  0.56227  0.16368  1.0000 0.109860364
H   H23       1.0  0.42490  0.69822  0.08781  1.0000 0.109860364
H   H24       1.0  0.35430  0.75641  0.14877  1.0000 0.0961823423
H   H25       1.0  0.52115  0.54872  0.12217  1.0000 0.0892582988
H   H26       1.0  0.41973  0.51385  0.13040  1.0000 0.0815425055
H   H27       1.0  0.27260  0.54801  0.07424  1.0000 0.0892582988
H   H28       1.0  0.29254  0.60016  0.03341  1.0000 0.0961823423
H   H29       1.0  0.45793  0.64910  0.02361  1.0000 0.0815425055
H   H30       1.0  0.54424  0.62838  0.06001  1.0000 0.0892582988
H   H31       1.0  0.30734  0.79490  0.34144  1.0000 0.0892582988
H   H32       1.0  0.25413  0.85768  0.40369  1.0000 0.109860364
H   H33       1.0  0.98191  0.86830  0.35103  1.0000 0.109860364
H   H34       1.0  0.03582  0.80430  0.29068  1.0000 0.0892582988
H   H35       1.0  0.93568  0.88059  0.43077  1.0000 0.0815425055
H   H36       1.0  0.00794  0.85265  0.47172  1.0000 0.0892582988
H   H37       1.0  0.18495  0.88873  0.47069  1.0000 0.0892582988
H   H38       1.0  0.21770  0.94319  0.43444  1.0000 0.0892582988
H   H39       1.0  0.10374  0.98502  0.36908  1.0000 0.0892582988
H   H40       1.0  0.99250  0.96162  0.36992  1.0000 0.0892582988
H   H41       1.0  0.88852  0.25647  0.84017  1.0000 0.0961823423
H   H42       1.0  0.95258  0.19344  0.89685  1.0000 0.109860364
H   H43       1.0  0.83595  0.06387  0.83001  1.0000 0.109860364
H   H44       1.0  0.77549  0.13070  0.77223  1.0000 0.0892582988
H   H45       1.0  0.80508  0.09886  0.96353  1.0000 0.0892582988
H   H46       1.0  0.89321  0.14212  0.96997  1.0000 0.0815425055
H   H47       1.0  0.06018  0.12618  0.92481  1.0000 0.0892582988
H   H48       1.0  0.07854  0.07879  0.88284  1.0000 0.0892582988
H   H49       1.0  0.94255  0.00551  0.87351  1.0000 0.0892582988
H   H50       1.0  0.83384  0.01606  0.90207  1.0000 0.0815425055
H   H51       1.0  0.83544  0.31964  0.65439  1.0000 0.0892582988
H   H52       1.0  0.77291  0.38191  0.59454  1.0000 0.109860364
H   H53       1.0  0.50294  0.38109  0.67313  1.0000 0.109860364
H   H54       1.0  0.57358  0.31793  0.73159  1.0000 0.0961823423
H   H55       1.0  0.51243  0.48509  0.63549  1.0000 0.0892582988
H   H56       1.0  0.44319  0.43341  0.62327  1.0000 0.0815425055
H   H57       1.0  0.72458  0.44581  0.54696  1.0000 0.0815425055
H   H58       1.0  0.69028  0.49243  0.58808  1.0000 0.0892582988
H   H59       1.0  0.51239  0.35791  0.56104  1.0000 0.0892582988
H   H60       1.0  0.62146  0.36530  0.53268  1.0000 0.0892582988
H   H61       1.0  0.77293  0.37758  0.77743  1.0000 0.0892582988
H   H62       1.0  0.69856  0.43773  0.83632  1.0000 0.109860364
H   H63       1.0  0.57510  0.30178  0.91219  1.0000 0.109860364
H   H64       1.0  0.64570  0.24359  0.85123  1.0000 0.0961823423
H   H65       1.0  0.47885  0.45128  0.87783  1.0000 0.0892582988
H   H66       1.0  0.58027  0.48615  0.86960  1.0000 0.0815425055
H   H67       1.0  0.72740  0.45199  0.92576  1.0000 0.0892582988
H   H68       1.0  0.70746  0.39984  0.96659  1.0000 0.0961823423
H   H69       1.0  0.54207  0.35090  0.97639  1.0000 0.0815425055
H   H70       1.0  0.45576  0.37162  0.93999  1.0000 0.0892582988
H   H71       1.0  0.69266  0.20510  0.65856  1.0000 0.0892582988
H   H72       1.0  0.74587  0.14232  0.59631  1.0000 0.109860364
H   H73       1.0  0.01809  0.13170  0.64897  1.0000 0.109860364
H   H74       1.0  0.96418  0.19570  0.70932  1.0000 0.0892582988
H   H75       1.0  0.06432  0.11941  0.56923  1.0000 0.0815425055
H   H76       1.0  0.99206  0.14735  0.52828  1.0000 0.0892582988
H   H77       1.0  0.81505  0.11127  0.52931  1.0000 0.0892582988
H   H78       1.0  0.78230  0.05681  0.56556  1.0000 0.0892582988
H   H79       1.0  0.89626  0.01498  0.63092  1.0000 0.0892582988
H   H80       1.0  0.00750  0.03838  0.63008  1.0000 0.0892582988
C   C1        1.0  0.12210  0.78360  0.16220  1.0000 -0.0052436352
C   C2        1.0  0.08610  0.82100  0.12820  1.0000 -0.2289495874
C   C3        1.0  0.10120  0.88020  0.12670  1.0000 0.006876764
C   C4        1.0  0.15260  0.89630  0.16650  1.0000 -0.2476451028
C   C5        1.0  0.18780  0.85610  0.20140  1.0000 0.0294780437
C   C6        1.0  0.06530  0.92010  0.08340  1.0000 0.0406898401
C   C7        1.0  0.12160  0.89900  0.03360  1.0000 -0.0891652918
C   C8        1.0  0.95300  0.91420  0.08280  1.0000 -0.1001450855
C   C9        1.0  0.09300  0.98330  0.09400  1.0000 -0.078529429
C   C10       1.0  0.23350  0.66820  0.34140  1.0000 0.0406898401
C   C11       1.0  0.27060  0.63030  0.37720  1.0000 -0.2568935606
C   C12       1.0  0.37240  0.60830  0.37360  1.0000 0.006876764
C   C13       1.0  0.42790  0.63020  0.33200  1.0000 -0.2289495874
C   C14       1.0  0.38510  0.66880  0.29720  1.0000 -0.0180960822
C   C15       1.0  0.41530  0.57140  0.41540  1.0000 0.0294780437
C   C16       1.0  0.50810  0.53840  0.39200  1.0000 -0.0891652918
C   C17       1.0  0.33340  0.53050  0.43900  1.0000 -0.0891652918
C   C18       1.0  0.44110  0.61340  0.45540  1.0000 -0.0891652918
C   C19       1.0  0.26970  0.63840  0.19550  1.0000 0.0406898401
C   C20       1.0  0.31250  0.60260  0.15940  1.0000 -0.2388035336
C   C21       1.0  0.37100  0.62240  0.11710  1.0000 0.018264258
C   C22       1.0  0.38490  0.68140  0.11550  1.0000 -0.2194353271
C   C23       1.0  0.34340  0.71600  0.15200  1.0000 -0.0180960822
C   C24       1.0  0.41060  0.58180  0.07660  1.0000 0.0406898401
C   C25       1.0  0.46700  0.53230  0.10440  1.0000 -0.1001450855
C   C26       1.0  0.32350  0.56470  0.04910  1.0000 -0.0891652918
C   C27       1.0  0.49110  0.61470  0.03980  1.0000 -0.0891652918
C   C28       1.0  0.24030  0.81060  0.34250  1.0000 -0.0024450448
C   C29       1.0  0.20850  0.84850  0.37960  1.0000 -0.2289495874
C   C30       1.0  0.11310  0.87350  0.38290  1.0000 0.0294780437
C   C31       1.0  0.05010  0.85460  0.34930  1.0000 -0.2388035336
C   C32       1.0  0.08290  0.81630  0.31290  1.0000 0.0294780437
C   C33       1.0  0.07880  0.91670  0.42390  1.0000 0.0294780437
C   C34       1.0  0.98600  0.88950  0.45460  1.0000 -0.0603951312
C   C35       1.0  0.16100  0.92640  0.45590  1.0000 -0.1001450855
C   C36       1.0  0.04550  0.97220  0.39170  1.0000 -0.078529429
C   C37       1.0  0.87790  0.21640  0.83780  1.0000 -0.0052436352
C   C38       1.0  0.91390  0.17900  0.87180  1.0000 -0.2289495874
C   C39       1.0  0.89880  0.11980  0.87330  1.0000 0.006876764
C   C40       1.0  0.84740  0.10370  0.83350  1.0000 -0.2476451028
C   C41       1.0  0.81220  0.14390  0.79860  1.0000 0.0294780437
C   C42       1.0  0.93470  0.07990  0.91660  1.0000 0.0406898401
C   C43       1.0  0.87840  0.10100  0.96640  1.0000 -0.0891652918
C   C44       1.0  0.04700  0.08580  0.91720  1.0000 -0.1061529372
C   C45       1.0  0.90700  0.01670  0.90600  1.0000 -0.078529429
C   C46       1.0  0.76650  0.33180  0.65860  1.0000 0.0406898401
C   C47       1.0  0.72940  0.36970  0.62280  1.0000 -0.2568935606
C   C48       1.0  0.62760  0.39170  0.62640  1.0000 0.006876764
C   C49       1.0  0.57210  0.36980  0.66800  1.0000 -0.2289495874
C   C50       1.0  0.61490  0.33120  0.70280  1.0000 -0.0180960822
C   C51       1.0  0.58470  0.42860  0.58460  1.0000 0.0294780437
C   C52       1.0  0.49190  0.46160  0.60800  1.0000 -0.0891652918
C   C53       1.0  0.66667  0.46950  0.56100  1.0000 -0.0891652918
C   C54       1.0  0.55890  0.38660  0.54460  1.0000 -0.0891652918
C   C55       1.0  0.73030  0.36160  0.80450  1.0000 0.0406898401
C   C56       1.0  0.68750  0.39740  0.84060  1.0000 -0.2388035336
C   C57       1.0  0.62900  0.37760  0.88290  1.0000 0.018264258
C   C58       1.0  0.61510  0.31860  0.88450  1.0000 -0.2194353271
C   C59       1.0  0.65660  0.28400  0.84800  1.0000 -0.0180960822
C   C60       1.0  0.58940  0.41820  0.92340  1.0000 0.0406898401
C   C61       1.0  0.53300  0.46770  0.89560  1.0000 -0.1001450855
C   C62       1.0  0.67650  0.43530  0.95090  1.0000 -0.0891652918
C   C63       1.0  0.50890  0.38530  0.96020  1.0000 -0.0891652918
C   C64       1.0  0.75970  0.18940  0.65750  1.0000 -0.0024450448
C   C65       1.0  0.79150  0.15150  0.62040  1.0000 -0.2289495874
C   C66       1.0  0.88690  0.12650  0.61710  1.0000 0.0294780437
C   C67       1.0  0.94990  0.14540  0.65070  1.0000 -0.2388035336
C   C68       1.0  0.91710  0.18370  0.68710  1.0000 0.0294780437
C   C69       1.0  0.92120  0.08330  0.57610  1.0000 0.0294780437
C   C70       1.0  0.01400  0.11050  0.54540  1.0000 -0.0603951312
C   C71       1.0  0.83900  0.07360  0.54410  1.0000 -0.1001450855
C   C72       1.0  0.95450  0.02780  0.60830  1.0000 -0.078529429
N   N1        1.0  0.17350  0.80100  0.20030  1.0000 -0.2146339122
N   N2        1.0  0.28760  0.68880  0.30170  1.0000 -0.2289495874
N   N3        1.0  0.28590  0.69420  0.19360  1.0000 -0.2289495874
N   N4        1.0  0.17750  0.79500  0.30730  1.0000 -0.2388035336
N   N5        1.0  0.82650  0.19900  0.79970  1.0000 -0.2146339122
N   N6        1.0  0.71240  0.31120  0.69830  1.0000 -0.2289495874
N   N7        1.0  0.71410  0.30580  0.80640  1.0000 -0.2289495874
N   N8        1.0  0.82250  0.20500  0.69270  1.0000 -0.2388035336
O   O1        1.0  0.88190  0.05320  0.10570  1.0000 -0.9476982848
O   O2        1.0  0.07250  0.13050  0.02480  1.0000 -0.9315802965
O   O3        1.0  0.24820  0.01000  0.99590  1.0000 -0.9315802965
O   O4        1.0  0.81370  0.98340  0.42610  1.0000 -0.9476982848
O   O5        1.0  0.94150  0.11940  0.43000  1.0000 -0.9476982848
O   O6        1.0  0.19590  0.05990  0.43780  1.0000 -0.9193947865
O   O7        1.0  0.29660  0.46130  0.94390  1.0000 -0.9193947865
O   O8        1.0  0.39050  0.60870  0.93500  1.0000 -0.9603550289
O   O9        1.0  0.65800  0.57370  0.92330  1.0000 -0.9193947865
O   O10       1.0  0.30080  0.56970  0.55320  1.0000 -0.9476982848
O   O11       1.0  0.55450  0.59570  0.58320  1.0000 -0.9126104269
O   O12       1.0  0.67710  0.58730  0.45310  1.0000 -0.9315802965
O   O13       1.0  0.09560  0.93140  0.98870  1.0000 -0.6485990353
O   O14       1.0  0.90410  0.95340  0.04610  1.0000 -0.6485990353
O   O15       1.0  0.06800  0.02470  0.05520  1.0000 -0.6280589767
O   O16       1.0  0.36810  0.49080  0.47920  1.0000 -0.6280589767
O   O17       1.0  0.55690  0.50090  0.42840  1.0000 -0.6485990353
O   O18       1.0  0.48590  0.58680  0.49870  1.0000 -0.6485990353
O   O19       1.0  0.51150  0.48760  0.07110  1.0000 -0.6417825732
O   O20       1.0  0.34590  0.52400  0.01020  1.0000 -0.6634702835
O   O21       1.0  0.53780  0.57820  0.00020  1.0000 -0.6417825732
O   O22       1.0  0.94030  0.92630  0.49140  1.0000 -0.6280589767
O   O23       1.0  0.13160  0.96490  0.49670  1.0000 -0.6280589767
O   O24       1.0  0.00820  0.01940  0.42120  1.0000 -0.6677337441
O   O25       1.0  0.11810  0.94680  0.89430  1.0000 -0.9401425276
O   O26       1.0  0.92750  0.86950  0.97520  1.0000 -0.9315802965
O   O27       1.0  0.75180  0.99000  0.00410  1.0000 -0.9401425276
O   O28       1.0  0.18630  0.01660  0.57390  1.0000 -0.9476982848
O   O29       1.0  0.05850  0.88060  0.57000  1.0000 -0.9476982848
O   O30       1.0  0.80410  0.94010  0.56220  1.0000 -0.9193947865
O   O31       1.0  0.70340  0.53870  0.05610  1.0000 -0.9193947865
O   O32       1.0  0.60950  0.39130  0.06500  1.0000 -0.9603550289
O   O33       1.0  0.34200  0.42630  0.07670  1.0000 -0.9193947865
O   O34       1.0  0.69920  0.43030  0.44680  1.0000 -0.9476982848
O   O35       1.0  0.44550  0.40430  0.41680  1.0000 -0.9126104269
O   O36       1.0  0.32290  0.41270  0.54690  1.0000 -0.9315802965
O   O37       1.0  0.90440  0.06860  0.01130  1.0000 -0.6485990353
O   O38       1.0  0.09590  0.04660  0.95390  1.0000 -0.6485990353
O   O39       1.0  0.93200  0.97530  0.94480  1.0000 -0.6239046607
O   O40       1.0  0.63190  0.50920  0.52080  1.0000 -0.6280589767
O   O41       1.0  0.44310  0.49910  0.57160  1.0000 -0.6417825732
O   O42       1.0  0.51410  0.41320  0.50130  1.0000 -0.6485990353
O   O43       1.0  0.48850  0.51240  0.92890  1.0000 -0.6417825732
O   O44       1.0  0.65410  0.47600  0.98980  1.0000 -0.6634702835
O   O45       1.0  0.46220  0.42180  0.99980  1.0000 -0.6417825732
O   O46       1.0  0.05970  0.07370  0.50860  1.0000 -0.6280589767
O   O47       1.0  0.86840  0.03510  0.50330  1.0000 -0.6280589767
O   O48       1.0  0.99180  0.98060  0.57880  1.0000 -0.6677337441
