# DDEC6 charges by PACMAN v1.1 (https://github.com/mtap-research/PACMAN-charge/)
data_2017[Zn][sql]2[ASR]17
_chemical_formula_sum              "Zn4 H20 C32 N8 Cl4 O4"
_cell_length_a       12.6802
_cell_length_b       8.7301
_cell_length_c       19.3812
_cell_angle_alpha    90
_cell_angle_beta     121.977
_cell_angle_gamma    90

_symmetry_space_group_name_H-M    "P 1"
_symmetry_Int_Tables_number       1

loop_
  _symmetry_equiv_pos_as_xyz
  'x, y, z'

loop_
  _atom_site_type_symbol
  _atom_site_label
  _atom_site_symmetry_multiplicity
  _atom_site_fract_x
  _atom_site_fract_y
  _atom_site_fract_z
  _atom_site_occupancy
  _atom_site_charge
Zn  Zn1       1.0  0.93473  0.20512  0.32461  1.0000 0.703824641
Zn  Zn2       1.0  0.06527  0.70512  0.17539  1.0000 0.7070715444
Zn  Zn3       1.0  0.06527  0.79488  0.67539  1.0000 0.703824641
Zn  Zn4       1.0  0.93473  0.29488  0.82461  1.0000 0.703824641
H   H1        1.0  0.16781  0.55549  0.32873  1.0000 0.1612338502
H   H2        1.0  0.13447  0.42497  0.36956  1.0000 0.15139382
H   H3        1.0  0.17555  0.38356  0.30846  1.0000 0.169179769
H   H4        1.0  0.76046  0.66771  0.03986  1.0000 0.1612338502
H   H5        1.0  0.65638  0.29758  0.17015  1.0000 0.1612338502
H   H6        1.0  0.83219  0.05549  0.17127  1.0000 0.1612338502
H   H7        1.0  0.86553  0.92497  0.13044  1.0000 0.15139382
H   H8        1.0  0.82445  0.88356  0.19154  1.0000 0.169179769
H   H9        1.0  0.23954  0.16771  0.46014  1.0000 0.1612338502
H   H10       1.0  0.34362  0.79758  0.32985  1.0000 0.1612338502
H   H11       1.0  0.83219  0.44451  0.67127  1.0000 0.1612338502
H   H12       1.0  0.86553  0.57503  0.63044  1.0000 0.15139382
H   H13       1.0  0.82445  0.61644  0.69154  1.0000 0.169179769
H   H14       1.0  0.23954  0.33229  0.96014  1.0000 0.1612338502
H   H15       1.0  0.34362  0.70242  0.82985  1.0000 0.1612338502
H   H16       1.0  0.16781  0.94451  0.82873  1.0000 0.1612338502
H   H17       1.0  0.13447  0.07503  0.86956  1.0000 0.15139382
H   H18       1.0  0.17555  0.11644  0.80846  1.0000 0.169179769
H   H19       1.0  0.76046  0.83229  0.53986  1.0000 0.1612338502
H   H20       1.0  0.65638  0.20242  0.67015  1.0000 0.1612338502
C   C1        1.0  0.99760  0.46200  0.25160  1.0000 0.4227043605
C   C2        1.0  0.13090  0.45600  0.32080  1.0000 -0.5279474391
C   C3        1.0  0.79980  0.42020  0.17830  1.0000 0.1321770007
C   C4        1.0  0.83080  0.52980  0.13990  1.0000 0.1321770007
C   C5        1.0  0.74030  0.59470  0.06600  1.0000 -0.2595923526
C   C6        1.0  0.62040  0.54560  0.03370  1.0000 0.15139382
C   C7        1.0  0.58970  0.43740  0.07230  1.0000 0.15139382
C   C8        1.0  0.67750  0.37120  0.14480  1.0000 -0.2465811542
C   C9        1.0  0.00240  0.96200  0.24840  1.0000 0.4227043605
C   C10       1.0  0.86910  0.95600  0.17920  1.0000 -0.5279474391
C   C11       1.0  0.20020  0.92020  0.32170  1.0000 0.1321770007
C   C12       1.0  0.16920  0.02980  0.36010  1.0000 0.1321770007
C   C13       1.0  0.25970  0.09470  0.43400  1.0000 -0.2595923526
C   C14       1.0  0.37960  0.04560  0.46630  1.0000 0.15139382
C   C15       1.0  0.41030  0.93740  0.42770  1.0000 0.15139382
C   C16       1.0  0.32250  0.87120  0.35520  1.0000 -0.2465811542
C   C17       1.0  0.00240  0.53800  0.74840  1.0000 0.4227043605
C   C18       1.0  0.86910  0.54400  0.67920  1.0000 -0.5279474391
C   C19       1.0  0.20020  0.57980  0.82170  1.0000 0.1321770007
C   C20       1.0  0.16920  0.47020  0.86010  1.0000 0.1321770007
C   C21       1.0  0.25970  0.40530  0.93400  1.0000 -0.2595923526
C   C22       1.0  0.37960  0.45440  0.96630  1.0000 0.15139382
C   C23       1.0  0.41030  0.56260  0.92770  1.0000 0.15139382
C   C24       1.0  0.32250  0.62880  0.85520  1.0000 -0.2465811542
C   C25       1.0  0.99760  0.03800  0.75160  1.0000 0.4255095439
C   C26       1.0  0.13090  0.04400  0.82080  1.0000 -0.5279474391
C   C27       1.0  0.79980  0.07980  0.67830  1.0000 0.1321770007
C   C28       1.0  0.83080  0.97020  0.63990  1.0000 0.1321770007
C   C29       1.0  0.74030  0.90530  0.56600  1.0000 -0.2595923526
C   C30       1.0  0.62040  0.95440  0.53370  1.0000 0.15139382
C   C31       1.0  0.58970  0.06260  0.57230  1.0000 0.15139382
C   C32       1.0  0.67750  0.12880  0.64480  1.0000 -0.2465811542
N   N1        1.0  0.90836  0.37710  0.25066  1.0000 -0.3962312225
N   N2        1.0  0.95834  0.55510  0.18814  1.0000 -0.3888390584
N   N3        1.0  0.09164  0.87710  0.24934  1.0000 -0.3888390584
N   N4        1.0  0.04166  0.05510  0.31186  1.0000 -0.3888390584
N   N5        1.0  0.09164  0.62290  0.74934  1.0000 -0.3962312225
N   N6        1.0  0.04166  0.44490  0.81186  1.0000 -0.3888390584
N   N7        1.0  0.90836  0.12290  0.75066  1.0000 -0.3962312225
N   N8        1.0  0.95834  0.94490  0.68814  1.0000 -0.3888390584
Cl  Cl1       1.0  0.76581  0.10626  0.31536  1.0000 -0.5101024492
Cl  Cl2       1.0  0.23419  0.60626  0.18464  1.0000 -0.5101024492
Cl  Cl3       1.0  0.23419  0.89374  0.68464  1.0000 -0.5101024492
Cl  Cl4       1.0  0.76581  0.39374  0.81536  1.0000 -0.5101024492
O   O1        1.0  0.46804  0.38840  0.03994  1.0000 -0.1720131694
O   O2        1.0  0.53196  0.88840  0.46006  1.0000 -0.1720131694
O   O3        1.0  0.53196  0.61160  0.96006  1.0000 -0.1720131694
O   O4        1.0  0.46804  0.11160  0.53994  1.0000 -0.1720131694
