# DDEC6 charges by PACMAN v1.1 (https://github.com/mtap-research/PACMAN-charge/)
data_2017[Zn][ths]3[ASR]1
_chemical_formula_sum              "Zn12 H96 C144 I24 N48"
_cell_length_a       19.2104
_cell_length_b       19.2104
_cell_length_c       30.6
_cell_angle_alpha    79.0657
_cell_angle_beta     100.934
_cell_angle_gamma    134.379

_symmetry_space_group_name_H-M    "P 1"
_symmetry_Int_Tables_number       1

loop_
  _symmetry_equiv_pos_as_xyz
  'x, y, z'

loop_
  _atom_site_type_symbol
  _atom_site_label
  _atom_site_symmetry_multiplicity
  _atom_site_fract_x
  _atom_site_fract_y
  _atom_site_fract_z
  _atom_site_occupancy
  _atom_site_charge
Zn  Zn1       1.0  0.79266  0.95604  0.90491  1.0000 0.4568871672
Zn  Zn2       1.0  0.71932  0.46908  0.05671  1.0000 0.4568871672
Zn  Zn3       1.0  0.18939  0.53299  0.22617  1.0000 0.4391516759
Zn  Zn4       1.0  0.04396  0.20734  0.40491  1.0000 0.4545921102
Zn  Zn5       1.0  0.53092  0.28068  0.55671  1.0000 0.4568871672
Zn  Zn6       1.0  0.46701  0.81061  0.72617  1.0000 0.4391516759
Zn  Zn7       1.0  0.95604  0.79266  0.59509  1.0000 0.4568871672
Zn  Zn8       1.0  0.46908  0.71932  0.44329  1.0000 0.4568871672
Zn  Zn9       1.0  0.53299  0.18939  0.27383  1.0000 0.4391516759
Zn  Zn10      1.0  0.20734  0.04396  0.09509  1.0000 0.4545921102
Zn  Zn11      1.0  0.28068  0.53092  0.94329  1.0000 0.4568871672
Zn  Zn12      1.0  0.81061  0.46701  0.77383  1.0000 0.4391516759
H   H1        1.0  0.39602  0.35718  0.99200  1.0000 0.1375287929
H   H2        1.0  0.13816  0.15504  0.97510  1.0000 0.1375287929
H   H3        1.0  0.71959  0.11149  0.77786  1.0000 0.130950336
H   H4        1.0  0.68541  0.99541  0.83551  1.0000 0.1076710941
H   H5        1.0  0.97756  0.17664  0.02767  1.0000 0.1375287929
H   H6        1.0  0.27470  0.74292  0.67611  1.0000 0.1076710941
H   H7        1.0  0.87011  0.44723  0.61920  1.0000 0.130950336
H   H8        1.0  0.84517  0.06359  0.98178  1.0000 0.1076710941
H   H9        1.0  0.34380  0.45328  0.16080  1.0000 0.130950336
H   H10       1.0  0.10917  0.60417  0.67226  1.0000 0.1375287929
H   H11       1.0  0.99991  0.03867  0.93075  1.0000 0.1076710941
H   H12       1.0  0.09044  0.35308  0.09339  1.0000 0.130950336
H   H13       1.0  0.45673  0.40071  0.12240  1.0000 0.1375287929
H   H14       1.0  0.66350  0.20142  0.69392  1.0000 0.1247299179
H   H15       1.0  0.54526  0.18124  0.64315  1.0000 0.1076710941
H   H16       1.0  0.74599  0.41821  0.56991  1.0000 0.1027434863
H   H17       1.0  0.00593  0.28183  0.81891  1.0000 0.130950336
H   H18       1.0  0.33261  0.60403  0.76057  1.0000 0.1027434863
H   H19       1.0  0.54590  0.40406  0.99147  1.0000 0.1027434863
H   H20       1.0  0.60212  0.44122  0.11993  1.0000 0.1027434863
H   H21       1.0  0.96300  0.16198  0.87536  1.0000 0.1027434863
H   H22       1.0  0.16724  0.45970  0.75865  1.0000 0.1375287929
H   H23       1.0  0.08103  0.42487  0.14286  1.0000 0.1027434863
H   H24       1.0  0.32429  0.51561  0.21013  1.0000 0.1027434863
H   H25       1.0  0.64282  0.60398  0.49200  1.0000 0.1375287929
H   H26       1.0  0.84496  0.86184  0.47510  1.0000 0.1375287929
H   H27       1.0  0.88851  0.28041  0.27786  1.0000 0.130950336
H   H28       1.0  0.00459  0.31459  0.33551  1.0000 0.1076710941
H   H29       1.0  0.82336  0.02244  0.52767  1.0000 0.1375287929
H   H30       1.0  0.25708  0.72530  0.17611  1.0000 0.1076710941
H   H31       1.0  0.55277  0.12989  0.11920  1.0000 0.1375287929
H   H32       1.0  0.93641  0.15483  0.48178  1.0000 0.1076710941
H   H33       1.0  0.54672  0.65620  0.66080  1.0000 0.130950336
H   H34       1.0  0.39583  0.89083  0.17226  1.0000 0.1375287929
H   H35       1.0  0.96133  0.00009  0.43075  1.0000 0.1076710941
H   H36       1.0  0.64692  0.90956  0.59339  1.0000 0.130950336
H   H37       1.0  0.59929  0.54327  0.62240  1.0000 0.1375287929
H   H38       1.0  0.79858  0.33650  0.19392  1.0000 0.130950336
H   H39       1.0  0.81876  0.45474  0.14315  1.0000 0.1027434863
H   H40       1.0  0.58179  0.25401  0.06991  1.0000 0.1027434863
H   H41       1.0  0.71817  0.99407  0.31891  1.0000 0.130950336
H   H42       1.0  0.39597  0.66739  0.26057  1.0000 0.1027434863
H   H43       1.0  0.59594  0.45410  0.49147  1.0000 0.1027434863
H   H44       1.0  0.55878  0.39788  0.61993  1.0000 0.1076710941
H   H45       1.0  0.83802  0.03700  0.37536  1.0000 0.1027434863
H   H46       1.0  0.54030  0.83276  0.25865  1.0000 0.1375287929
H   H47       1.0  0.57513  0.91897  0.64286  1.0000 0.1027434863
H   H48       1.0  0.48439  0.67571  0.71013  1.0000 0.1027434863
H   H49       1.0  0.35718  0.39602  0.50800  1.0000 0.1375287929
H   H50       1.0  0.15504  0.13816  0.52490  1.0000 0.1375287929
H   H51       1.0  0.11149  0.71959  0.72214  1.0000 0.130950336
H   H52       1.0  0.99541  0.68541  0.66449  1.0000 0.1076710941
H   H53       1.0  0.17664  0.97756  0.47233  1.0000 0.1375287929
H   H54       1.0  0.74292  0.27470  0.82389  1.0000 0.1076710941
H   H55       1.0  0.44723  0.87011  0.88080  1.0000 0.130950336
H   H56       1.0  0.06359  0.84517  0.51822  1.0000 0.1076710941
H   H57       1.0  0.45328  0.34380  0.33920  1.0000 0.130950336
H   H58       1.0  0.60417  0.10917  0.82774  1.0000 0.1375287929
H   H59       1.0  0.03867  0.99991  0.56925  1.0000 0.1076710941
H   H60       1.0  0.35308  0.09044  0.40661  1.0000 0.130950336
H   H61       1.0  0.40071  0.45673  0.37760  1.0000 0.1375287929
H   H62       1.0  0.20142  0.66350  0.80608  1.0000 0.1247299179
H   H63       1.0  0.18124  0.54526  0.85685  1.0000 0.1027434863
H   H64       1.0  0.41821  0.74599  0.93009  1.0000 0.1027434863
H   H65       1.0  0.28183  0.00593  0.68109  1.0000 0.130950336
H   H66       1.0  0.60403  0.33261  0.73943  1.0000 0.1027434863
H   H67       1.0  0.40406  0.54590  0.50853  1.0000 0.1027434863
H   H68       1.0  0.44122  0.60212  0.38007  1.0000 0.1027434863
H   H69       1.0  0.16198  0.96300  0.62464  1.0000 0.1027434863
H   H70       1.0  0.45970  0.16724  0.74135  1.0000 0.1375287929
H   H71       1.0  0.42487  0.08103  0.35714  1.0000 0.1076710941
H   H72       1.0  0.51561  0.32429  0.28987  1.0000 0.1027434863
H   H73       1.0  0.60398  0.64282  0.00800  1.0000 0.1375287929
H   H74       1.0  0.86184  0.84496  0.02490  1.0000 0.1375287929
H   H75       1.0  0.28041  0.88851  0.22214  1.0000 0.130950336
H   H76       1.0  0.31459  0.00459  0.16449  1.0000 0.1076710941
H   H77       1.0  0.02244  0.82336  0.97233  1.0000 0.1375287929
H   H78       1.0  0.72530  0.25708  0.32389  1.0000 0.1076710941
H   H79       1.0  0.12989  0.55277  0.38080  1.0000 0.130950336
H   H80       1.0  0.15483  0.93641  0.01822  1.0000 0.1076710941
H   H81       1.0  0.65620  0.54672  0.83920  1.0000 0.130950336
H   H82       1.0  0.89083  0.39583  0.32774  1.0000 0.1375287929
H   H83       1.0  0.00009  0.96133  0.06925  1.0000 0.1076710941
H   H84       1.0  0.90956  0.64692  0.90661  1.0000 0.130950336
H   H85       1.0  0.54327  0.59929  0.87760  1.0000 0.1375287929
H   H86       1.0  0.33650  0.79858  0.30608  1.0000 0.130950336
H   H87       1.0  0.45474  0.81876  0.35685  1.0000 0.1027434863
H   H88       1.0  0.25401  0.58179  0.43009  1.0000 0.1027434863
H   H89       1.0  0.99407  0.71817  0.18109  1.0000 0.130950336
H   H90       1.0  0.66739  0.39597  0.23943  1.0000 0.1027434863
H   H91       1.0  0.45410  0.59594  0.00853  1.0000 0.1027434863
H   H92       1.0  0.39788  0.55878  0.88007  1.0000 0.1027434863
H   H93       1.0  0.03700  0.83802  0.12464  1.0000 0.1027434863
H   H94       1.0  0.83276  0.54030  0.24135  1.0000 0.1375287929
H   H95       1.0  0.91897  0.57513  0.85714  1.0000 0.1027434863
H   H96       1.0  0.67571  0.48439  0.78987  1.0000 0.1027434863
C   C1        1.0  0.31811  0.34709  0.05829  1.0000 0.3771073982
C   C2        1.0  0.85650  0.34130  0.69392  1.0000 0.372337041
C   C3        1.0  0.77999  0.32721  0.66211  1.0000 0.0540615716
C   C4        1.0  0.41257  0.37583  0.05699  1.0000 0.0608846535
C   C5        1.0  0.12029  0.51671  0.71573  1.0000 0.0699875455
C   C6        1.0  0.43834  0.37566  0.01860  1.0000 -0.1397748696
C   C7        1.0  0.01407  0.42733  0.71746  1.0000 0.3631038084
C   C8        1.0  0.89613  0.28387  0.75396  1.0000 0.372337041
C   C9        1.0  0.07833  0.13687  0.97707  1.0000 -0.146218293
C   C10       1.0  0.86806  0.20894  0.79147  1.0000 0.0608846535
C   C11       1.0  0.07286  0.17914  0.00671  1.0000 0.0608846535
C   C12       1.0  0.77121  0.12299  0.79720  1.0000 -0.1604318064
C   C13       1.0  0.75151  0.05429  0.83180  1.0000 0.0903692707
C   C14       1.0  0.15993  0.25507  0.03484  1.0000 0.372337041
C   C15       1.0  0.98410  0.14970  0.00760  1.0000 -0.1397748696
C   C16       1.0  0.21790  0.39490  0.12203  1.0000 0.0608846535
C   C17       1.0  0.25237  0.68483  0.69340  1.0000 0.0809621941
C   C18       1.0  0.80373  0.39187  0.62470  1.0000 -0.1397748696
C   C19       1.0  0.90546  0.08234  0.98030  1.0000 0.0699875455
C   C20       1.0  0.22665  0.35335  0.09033  1.0000 0.372337041
C   C21       1.0  0.28830  0.44510  0.15680  1.0000 -0.1397748696
C   C22       1.0  0.15372  0.60248  0.69079  1.0000 -0.1604318064
C   C23       1.0  0.99593  0.06827  0.95049  1.0000 0.0699875455
C   C24       1.0  0.14007  0.38713  0.11690  1.0000 -0.1300497711
C   C25       1.0  0.47350  0.40050  0.09520  1.0000 -0.1300497711
C   C26       1.0  0.68217  0.24743  0.66880  1.0000 -0.146218293
C   C27       1.0  0.61229  0.23591  0.63840  1.0000 0.0809621941
C   C28       1.0  0.72937  0.37443  0.59580  1.0000 0.0903692707
C   C29       1.0  0.93930  0.22310  0.82130  1.0000 -0.1397748696
C   C30       1.0  0.28625  0.60375  0.74260  1.0000 0.0809621941
C   C31       1.0  0.52730  0.40270  0.01850  1.0000 0.0903692707
C   C32       1.0  0.56020  0.42500  0.09340  1.0000 0.0903692707
C   C33       1.0  0.91300  0.15120  0.85480  1.0000 0.0903692707
C   C34       1.0  0.18766  0.51734  0.74170  1.0000 -0.146218293
C   C35       1.0  0.13466  0.42994  0.14680  1.0000 0.0903692707
C   C36       1.0  0.27700  0.48360  0.18560  1.0000 0.0809621941
C   C37       1.0  0.65291  0.68189  0.55829  1.0000 0.3771073982
C   C38       1.0  0.65870  0.14350  0.19392  1.0000 0.372337041
C   C39       1.0  0.67279  0.22001  0.16211  1.0000 0.0540615716
C   C40       1.0  0.62417  0.58743  0.55699  1.0000 0.0608846535
C   C41       1.0  0.48329  0.87971  0.21573  1.0000 0.0699875455
C   C42       1.0  0.62434  0.56166  0.51860  1.0000 -0.1397748696
C   C43       1.0  0.57267  0.98593  0.21746  1.0000 0.3631038084
C   C44       1.0  0.71613  0.10387  0.25396  1.0000 0.372337041
C   C45       1.0  0.86313  0.92167  0.47707  1.0000 -0.146218293
C   C46       1.0  0.79106  0.13194  0.29147  1.0000 0.0608846535
C   C47       1.0  0.82086  0.92714  0.50671  1.0000 0.0608846535
C   C48       1.0  0.87701  0.22879  0.29720  1.0000 -0.1604318064
C   C49       1.0  0.94571  0.24849  0.33180  1.0000 0.0903692707
C   C50       1.0  0.74493  0.84007  0.53484  1.0000 0.372337041
C   C51       1.0  0.85030  0.01590  0.50760  1.0000 -0.1397748696
C   C52       1.0  0.60510  0.78210  0.62203  1.0000 0.0608846535
C   C53       1.0  0.31517  0.74763  0.19340  1.0000 0.0809621941
C   C54       1.0  0.60813  0.19627  0.12470  1.0000 -0.1397748696
C   C55       1.0  0.91766  0.09454  0.48030  1.0000 0.0699875455
C   C56       1.0  0.64665  0.77335  0.59033  1.0000 0.372337041
C   C57       1.0  0.55490  0.71170  0.65680  1.0000 -0.1397748696
C   C58       1.0  0.39752  0.84628  0.19079  1.0000 -0.1604318064
C   C59       1.0  0.93173  0.00407  0.45049  1.0000 0.0699875455
C   C60       1.0  0.61287  0.85993  0.61690  1.0000 -0.1300497711
C   C61       1.0  0.59950  0.52650  0.59520  1.0000 -0.1300497711
C   C62       1.0  0.75257  0.31783  0.16880  1.0000 -0.1397748696
C   C63       1.0  0.76409  0.38771  0.13840  1.0000 0.0809621941
C   C64       1.0  0.62557  0.27063  0.09580  1.0000 0.0903692707
C   C65       1.0  0.77690  0.06070  0.32130  1.0000 -0.1397748696
C   C66       1.0  0.39625  0.71375  0.24260  1.0000 0.0809621941
C   C67       1.0  0.59730  0.47270  0.51850  1.0000 0.0809621941
C   C68       1.0  0.57500  0.43980  0.59340  1.0000 0.0903692707
C   C69       1.0  0.84880  0.08700  0.35480  1.0000 0.0809621941
C   C70       1.0  0.48266  0.81234  0.24170  1.0000 -0.146218293
C   C71       1.0  0.57006  0.86534  0.64680  1.0000 0.0903692707
C   C72       1.0  0.51640  0.72300  0.68560  1.0000 0.0809621941
C   C73       1.0  0.34709  0.31811  0.44171  1.0000 0.3771073982
C   C74       1.0  0.34130  0.85650  0.80608  1.0000 0.372337041
C   C75       1.0  0.32721  0.77999  0.83789  1.0000 0.0540615716
C   C76       1.0  0.37583  0.41257  0.44301  1.0000 0.0608846535
C   C77       1.0  0.51671  0.12029  0.78427  1.0000 0.0699875455
C   C78       1.0  0.37566  0.43834  0.48140  1.0000 -0.1397748696
C   C79       1.0  0.42733  0.01407  0.78254  1.0000 0.3631038084
C   C80       1.0  0.28387  0.89613  0.74604  1.0000 0.372337041
C   C81       1.0  0.13687  0.07833  0.52293  1.0000 -0.146218293
C   C82       1.0  0.20894  0.86806  0.70853  1.0000 0.0608846535
C   C83       1.0  0.17914  0.07286  0.49329  1.0000 0.0608846535
C   C84       1.0  0.12299  0.77121  0.70280  1.0000 -0.1604318064
C   C85       1.0  0.05429  0.75151  0.66820  1.0000 0.0903692707
C   C86       1.0  0.25507  0.15993  0.46516  1.0000 0.372337041
C   C87       1.0  0.14970  0.98410  0.49240  1.0000 -0.1397748696
C   C88       1.0  0.39490  0.21790  0.37797  1.0000 0.0608846535
C   C89       1.0  0.68483  0.25237  0.80660  1.0000 0.0809621941
C   C90       1.0  0.39187  0.80373  0.87530  1.0000 -0.1397748696
C   C91       1.0  0.08234  0.90546  0.51970  1.0000 0.0699875455
C   C92       1.0  0.35335  0.22665  0.40967  1.0000 0.372337041
C   C93       1.0  0.44510  0.28830  0.34320  1.0000 -0.1397748696
C   C94       1.0  0.60248  0.15372  0.80921  1.0000 -0.1604318064
C   C95       1.0  0.06827  0.99593  0.54951  1.0000 0.0699875455
C   C96       1.0  0.38713  0.14007  0.38310  1.0000 -0.1300497711
C   C97       1.0  0.40050  0.47350  0.40480  1.0000 -0.1300497711
C   C98       1.0  0.24743  0.68217  0.83120  1.0000 -0.146218293
C   C99       1.0  0.23591  0.61229  0.86160  1.0000 0.0809621941
C   C100      1.0  0.37443  0.72937  0.90420  1.0000 0.0903692707
C   C101      1.0  0.22310  0.93930  0.67870  1.0000 -0.1397748696
C   C102      1.0  0.60375  0.28625  0.75740  1.0000 0.0809621941
C   C103      1.0  0.40270  0.52730  0.48150  1.0000 0.0903692707
C   C104      1.0  0.42500  0.56020  0.40660  1.0000 0.0903692707
C   C105      1.0  0.15120  0.91300  0.64520  1.0000 0.0809621941
C   C106      1.0  0.51734  0.18766  0.75830  1.0000 -0.146218293
C   C107      1.0  0.42994  0.13466  0.35320  1.0000 0.0903692707
C   C108      1.0  0.48360  0.27700  0.31440  1.0000 0.0809621941
C   C109      1.0  0.68189  0.65291  0.94171  1.0000 0.3771073982
C   C110      1.0  0.14350  0.65870  0.30608  1.0000 0.372337041
C   C111      1.0  0.22001  0.67279  0.33789  1.0000 0.0540615716
C   C112      1.0  0.58743  0.62417  0.94301  1.0000 0.0608846535
C   C113      1.0  0.87971  0.48329  0.28427  1.0000 0.0699875455
C   C114      1.0  0.56166  0.62434  0.98140  1.0000 -0.1397748696
C   C115      1.0  0.98593  0.57267  0.28254  1.0000 0.3631038084
C   C116      1.0  0.10387  0.71613  0.24604  1.0000 0.372337041
C   C117      1.0  0.92167  0.86313  0.02293  1.0000 -0.146218293
C   C118      1.0  0.13194  0.79106  0.20853  1.0000 0.0608846535
C   C119      1.0  0.92714  0.82086  0.99329  1.0000 0.0608846535
C   C120      1.0  0.22879  0.87701  0.20280  1.0000 -0.1604318064
C   C121      1.0  0.24849  0.94571  0.16820  1.0000 0.0903692707
C   C122      1.0  0.84007  0.74493  0.96516  1.0000 0.372337041
C   C123      1.0  0.01590  0.85030  0.99240  1.0000 -0.1397748696
C   C124      1.0  0.78210  0.60510  0.87797  1.0000 0.0699875455
C   C125      1.0  0.74763  0.31517  0.30660  1.0000 0.0809621941
C   C126      1.0  0.19627  0.60813  0.37530  1.0000 -0.1397748696
C   C127      1.0  0.09454  0.91766  0.01970  1.0000 0.0699875455
C   C128      1.0  0.77335  0.64665  0.90967  1.0000 0.372337041
C   C129      1.0  0.71170  0.55490  0.84320  1.0000 -0.1397748696
C   C130      1.0  0.84628  0.39752  0.30921  1.0000 -0.1604318064
C   C131      1.0  0.00407  0.93173  0.04951  1.0000 0.0699875455
C   C132      1.0  0.85993  0.61287  0.88310  1.0000 -0.1300497711
C   C133      1.0  0.52650  0.59950  0.90480  1.0000 -0.1300497711
C   C134      1.0  0.31783  0.75257  0.33120  1.0000 -0.146218293
C   C135      1.0  0.38771  0.76409  0.36160  1.0000 0.0809621941
C   C136      1.0  0.27063  0.62557  0.40420  1.0000 0.0903692707
C   C137      1.0  0.06070  0.77690  0.17870  1.0000 -0.1397748696
C   C138      1.0  0.71375  0.39625  0.25740  1.0000 0.0809621941
C   C139      1.0  0.47270  0.59730  0.98150  1.0000 0.0903692707
C   C140      1.0  0.43980  0.57500  0.90660  1.0000 0.0903692707
C   C141      1.0  0.08700  0.84880  0.14520  1.0000 0.0809621941
C   C142      1.0  0.81234  0.48266  0.25830  1.0000 -0.146218293
C   C143      1.0  0.86534  0.57006  0.85320  1.0000 0.0903692707
C   C144      1.0  0.72300  0.51640  0.81440  1.0000 0.0809621941
I   I1        1.0  0.64054  0.87164  0.94156  1.0000 -0.4332815953
I   I2        1.0  0.82298  0.87808  0.86371  1.0000 -0.4332815953
I   I3        1.0  0.03731  0.50363  0.20059  1.0000 -0.4385614927
I   I4        1.0  0.21459  0.47227  0.30334  1.0000 -0.4385614927
I   I5        1.0  0.73163  0.44565  0.98136  1.0000 -0.4385614927
I   I6        1.0  0.84475  0.62995  0.09196  1.0000 -0.4590705842
I   I7        1.0  0.12836  0.35946  0.44156  1.0000 -0.4332815953
I   I8        1.0  0.12192  0.17702  0.36371  1.0000 -0.4332815953
I   I9        1.0  0.49637  0.96269  0.70059  1.0000 -0.4385614927
I   I10       1.0  0.52773  0.78541  0.80334  1.0000 -0.4385614927
I   I11       1.0  0.55435  0.26837  0.48136  1.0000 -0.4385614927
I   I12       1.0  0.37005  0.15525  0.59196  1.0000 -0.4590705842
I   I13       1.0  0.87164  0.64054  0.55844  1.0000 -0.4332815953
I   I14       1.0  0.87808  0.82298  0.63629  1.0000 -0.4332815953
I   I15       1.0  0.50363  0.03731  0.29941  1.0000 -0.4385614927
I   I16       1.0  0.47227  0.21459  0.19666  1.0000 -0.4385614927
I   I17       1.0  0.44565  0.73163  0.51864  1.0000 -0.4385614927
I   I18       1.0  0.62995  0.84475  0.40804  1.0000 -0.4590705842
I   I19       1.0  0.35946  0.12836  0.05844  1.0000 -0.4332815953
I   I20       1.0  0.17702  0.12192  0.13629  1.0000 -0.4332815953
I   I21       1.0  0.96269  0.49637  0.79941  1.0000 -0.4385614927
I   I22       1.0  0.78541  0.52773  0.69666  1.0000 -0.4385614927
I   I23       1.0  0.26837  0.55435  0.01864  1.0000 -0.4385614927
I   I24       1.0  0.15525  0.37005  0.90804  1.0000 -0.4590705842
N   N1        1.0  0.95017  0.42163  0.68750  1.0000 -0.3911539123
N   N2        1.0  0.82492  0.27148  0.72753  1.0000 -0.3911539123
N   N3        1.0  0.91033  0.04167  0.95146  1.0000 -0.1879628622
N   N4        1.0  0.31349  0.38391  0.08970  1.0000 -0.3974484936
N   N5        1.0  0.24481  0.28459  0.02935  1.0000 -0.3911539123
N   N6        1.0  0.99157  0.35923  0.74995  1.0000 -0.3911539123
N   N7        1.0  0.31785  0.68655  0.71908  1.0000 -0.1812216157
N   N8        1.0  0.82048  0.06712  0.85978  1.0000 -0.1812216157
N   N9        1.0  0.58684  0.42676  0.05580  1.0000 -0.1879628622
N   N10       1.0  0.14702  0.28798  0.06441  1.0000 -0.3974484936
N   N11       1.0  0.20248  0.47772  0.18053  1.0000 -0.1812216157
N   N12       1.0  0.63510  0.29870  0.60246  1.0000 -0.1812216157
N   N13       1.0  0.57837  0.04983  0.18750  1.0000 -0.3911539123
N   N14       1.0  0.72852  0.17508  0.22753  1.0000 -0.3911539123
N   N15       1.0  0.95833  0.08967  0.45146  1.0000 -0.1879628622
N   N16       1.0  0.61609  0.68651  0.58970  1.0000 -0.3974484936
N   N17       1.0  0.71541  0.75519  0.52935  1.0000 -0.3911539123
N   N18       1.0  0.64077  0.00843  0.24995  1.0000 -0.3911539123
N   N19       1.0  0.31345  0.68215  0.21908  1.0000 -0.1812216157
N   N20       1.0  0.93288  0.17952  0.35978  1.0000 -0.1745411441
N   N21       1.0  0.57324  0.41316  0.55580  1.0000 -0.1812216157
N   N22       1.0  0.71202  0.85298  0.56441  1.0000 -0.3974484936
N   N23       1.0  0.52228  0.79752  0.68053  1.0000 -0.1879628622
N   N24       1.0  0.70130  0.36490  0.10246  1.0000 -0.1812216157
N   N25       1.0  0.42163  0.95017  0.81250  1.0000 -0.3911539123
N   N26       1.0  0.27148  0.82492  0.77247  1.0000 -0.3846999392
N   N27       1.0  0.04167  0.91033  0.54854  1.0000 -0.1879628622
N   N28       1.0  0.38391  0.31349  0.41030  1.0000 -0.3974484936
N   N29       1.0  0.28459  0.24481  0.47065  1.0000 -0.3911539123
N   N30       1.0  0.35923  0.99157  0.75005  1.0000 -0.3911539123
N   N31       1.0  0.68655  0.31785  0.78092  1.0000 -0.1812216157
N   N32       1.0  0.06712  0.82048  0.64022  1.0000 -0.1812216157
N   N33       1.0  0.42676  0.58684  0.44420  1.0000 -0.1879628622
N   N34       1.0  0.28798  0.14702  0.43559  1.0000 -0.3974484936
N   N35       1.0  0.47772  0.20248  0.31947  1.0000 -0.1812216157
N   N36       1.0  0.29870  0.63510  0.89754  1.0000 -0.1812216157
N   N37       1.0  0.04983  0.57837  0.31250  1.0000 -0.3911539123
N   N38       1.0  0.17508  0.72852  0.27247  1.0000 -0.3911539123
N   N39       1.0  0.08967  0.95833  0.04854  1.0000 -0.1879628622
N   N40       1.0  0.68651  0.61609  0.91030  1.0000 -0.3974484936
N   N41       1.0  0.75519  0.71541  0.97065  1.0000 -0.3911539123
N   N42       1.0  0.00843  0.64077  0.25005  1.0000 -0.3911539123
N   N43       1.0  0.68215  0.31345  0.28092  1.0000 -0.1812216157
N   N44       1.0  0.17952  0.93288  0.14022  1.0000 -0.1745411441
N   N45       1.0  0.41316  0.57324  0.94420  1.0000 -0.1879628622
N   N46       1.0  0.85298  0.71202  0.93559  1.0000 -0.3974484936
N   N47       1.0  0.79752  0.52228  0.81947  1.0000 -0.1812216157
N   N48       1.0  0.36490  0.70130  0.39754  1.0000 -0.1812216157
