# DDEC6 charges by PACMAN v1.1 (https://github.com/mtap-research/PACMAN-charge/)
data_2017[Gd][nan]3[ASR]1
_chemical_formula_sum              "Gd4 H108 C84 N24 O24"
_cell_length_a       8.07
_cell_length_b       26.793
_cell_length_c       16.635
_cell_angle_alpha    90
_cell_angle_beta     101.329
_cell_angle_gamma    90

_symmetry_space_group_name_H-M    "P 1"
_symmetry_Int_Tables_number       1

loop_
  _symmetry_equiv_pos_as_xyz
  'x, y, z'

loop_
  _atom_site_type_symbol
  _atom_site_label
  _atom_site_symmetry_multiplicity
  _atom_site_fract_x
  _atom_site_fract_y
  _atom_site_fract_z
  _atom_site_occupancy
  _atom_site_charge
Gd  Gd1       1.0  0.71200  0.74435  0.22698  1.0000 2.0345350143
Gd  Gd2       1.0  0.78800  0.24435  0.77302  1.0000 2.0345350143
Gd  Gd3       1.0  0.28800  0.25565  0.77302  1.0000 2.0345350143
Gd  Gd4       1.0  0.21200  0.75565  0.22698  1.0000 2.0345350143
H   H1        1.0  0.15320  0.70330  0.92990  1.0000 0.1114597081
H   H2        1.0  0.25460  0.75330  0.92990  1.0000 0.1114597081
H   H3        1.0  0.49100  0.63210  0.04850  1.0000 0.1176399781
H   H4        1.0  0.30210  0.62720  0.00260  1.0000 0.1176399781
H   H5        1.0  0.05340  0.61700  0.38510  1.0000 0.1176399781
H   H6        1.0  0.21400  0.63610  0.44630  1.0000 0.1176399781
H   H7        1.0  0.49800  0.71600  0.00500  1.0000 0.1114597081
H   H8        1.0  0.89600  0.68500  0.41500  1.0000 0.1176399781
H   H9        1.0  0.04720  0.69910  0.63190  1.0000 0.100671093
H   H10       1.0  0.88780  0.68100  0.56880  1.0000 0.100671093
H   H11       1.0  0.38660  0.40430  0.58950  1.0000 0.1114597081
H   H12       1.0  0.28500  0.41130  0.66010  1.0000 0.1114597081
H   H13       1.0  0.18680  0.71840  0.52710  1.0000 0.1114597081
H   H14       1.0  0.01140  0.74570  0.50990  1.0000 0.1176399781
H   H15       1.0  0.29100  0.48790  0.59300  1.0000 0.100671093
H   H16       1.0  0.48920  0.48620  0.60740  1.0000 0.0939762375
H   H17       1.0  0.64300  0.41200  0.68400  1.0000 0.1114597081
H   H18       1.0  0.57990  0.64180  0.92590  1.0000 0.100671093
H   H19       1.0  0.47300  0.59250  0.92140  1.0000 0.100671093
H   H20       1.0  0.91680  0.60010  0.49180  1.0000 0.0939762375
H   H21       1.0  0.09300  0.57320  0.51050  1.0000 0.100671093
H   H22       1.0  0.64290  0.42070  0.82430  1.0000 0.1176399781
H   H23       1.0  0.44460  0.42040  0.80680  1.0000 0.1114597081
H   H24       1.0  0.64790  0.49640  0.76030  1.0000 0.100671093
H   H25       1.0  0.53120  0.50200  0.82490  1.0000 0.100671093
H   H26       1.0  0.23400  0.70950  0.80430  1.0000 0.100671093
H   H27       1.0  0.42300  0.71880  0.84680  1.0000 0.0939762375
H   H28       1.0  0.34680  0.20330  0.07010  1.0000 0.1114597081
H   H29       1.0  0.24540  0.25330  0.07010  1.0000 0.1114597081
H   H30       1.0  0.00900  0.13210  0.95150  1.0000 0.1176399781
H   H31       1.0  0.19790  0.12720  0.99740  1.0000 0.1176399781
H   H32       1.0  0.44660  0.11700  0.61490  1.0000 0.1176399781
H   H33       1.0  0.28600  0.13610  0.55370  1.0000 0.1176399781
H   H34       1.0  0.00200  0.21600  0.99500  1.0000 0.1114597081
H   H35       1.0  0.60400  0.18500  0.58500  1.0000 0.1176399781
H   H36       1.0  0.45280  0.19910  0.36810  1.0000 0.100671093
H   H37       1.0  0.61220  0.18100  0.43120  1.0000 0.100671093
H   H38       1.0  0.11340  0.90430  0.41050  1.0000 0.1114597081
H   H39       1.0  0.21500  0.91130  0.33990  1.0000 0.1114597081
H   H40       1.0  0.31320  0.21840  0.47290  1.0000 0.1114597081
H   H41       1.0  0.48860  0.24570  0.49010  1.0000 0.1176399781
H   H42       1.0  0.20900  0.98790  0.40700  1.0000 0.100671093
H   H43       1.0  0.01080  0.98620  0.39260  1.0000 0.0939762375
H   H44       1.0  0.85700  0.91200  0.31600  1.0000 0.1114597081
H   H45       1.0  0.92010  0.14180  0.07410  1.0000 0.100671093
H   H46       1.0  0.02700  0.09250  0.07860  1.0000 0.100671093
H   H47       1.0  0.58320  0.10010  0.50820  1.0000 0.0939762375
H   H48       1.0  0.40700  0.07320  0.48950  1.0000 0.100671093
H   H49       1.0  0.85710  0.92070  0.17570  1.0000 0.1176399781
H   H50       1.0  0.05540  0.92040  0.19320  1.0000 0.1114597081
H   H51       1.0  0.85210  0.99640  0.23970  1.0000 0.100671093
H   H52       1.0  0.96880  0.00200  0.17510  1.0000 0.100671093
H   H53       1.0  0.26600  0.20950  0.19570  1.0000 0.100671093
H   H54       1.0  0.07700  0.21880  0.15320  1.0000 0.0939762375
H   H55       1.0  0.84680  0.29670  0.07010  1.0000 0.1114597081
H   H56       1.0  0.74540  0.24670  0.07010  1.0000 0.1114597081
H   H57       1.0  0.50900  0.36790  0.95150  1.0000 0.1176399781
H   H58       1.0  0.69790  0.37280  0.99740  1.0000 0.1176399781
H   H59       1.0  0.94660  0.38300  0.61490  1.0000 0.1176399781
H   H60       1.0  0.78600  0.36390  0.55370  1.0000 0.1176399781
H   H61       1.0  0.50200  0.28400  0.99500  1.0000 0.1114597081
H   H62       1.0  0.10400  0.31500  0.58500  1.0000 0.1176399781
H   H63       1.0  0.95280  0.30090  0.36810  1.0000 0.100671093
H   H64       1.0  0.11220  0.31900  0.43120  1.0000 0.100671093
H   H65       1.0  0.61340  0.59570  0.41050  1.0000 0.1114597081
H   H66       1.0  0.71500  0.58870  0.33990  1.0000 0.1114597081
H   H67       1.0  0.81320  0.28160  0.47290  1.0000 0.1114597081
H   H68       1.0  0.98860  0.25430  0.49010  1.0000 0.1176399781
H   H69       1.0  0.70900  0.51210  0.40700  1.0000 0.100671093
H   H70       1.0  0.51080  0.51380  0.39260  1.0000 0.0939762375
H   H71       1.0  0.35700  0.58800  0.31600  1.0000 0.1114597081
H   H72       1.0  0.42010  0.35820  0.07410  1.0000 0.100671093
H   H73       1.0  0.52700  0.40750  0.07860  1.0000 0.100671093
H   H74       1.0  0.08320  0.39990  0.50820  1.0000 0.0939762375
H   H75       1.0  0.90700  0.42680  0.48950  1.0000 0.100671093
H   H76       1.0  0.35710  0.57930  0.17570  1.0000 0.1176399781
H   H77       1.0  0.55540  0.57960  0.19320  1.0000 0.1114597081
H   H78       1.0  0.35210  0.50360  0.23970  1.0000 0.100671093
H   H79       1.0  0.46880  0.49800  0.17510  1.0000 0.100671093
H   H80       1.0  0.76600  0.29050  0.19570  1.0000 0.100671093
H   H81       1.0  0.57700  0.28120  0.15320  1.0000 0.0939762375
H   H82       1.0  0.65320  0.79670  0.92990  1.0000 0.1114597081
H   H83       1.0  0.75460  0.74670  0.92990  1.0000 0.1114597081
H   H84       1.0  0.99100  0.86790  0.04850  1.0000 0.1176399781
H   H85       1.0  0.80210  0.87280  0.00260  1.0000 0.1176399781
H   H86       1.0  0.55340  0.88300  0.38510  1.0000 0.1176399781
H   H87       1.0  0.71400  0.86390  0.44630  1.0000 0.1176399781
H   H88       1.0  0.99800  0.78400  0.00500  1.0000 0.1114597081
H   H89       1.0  0.39600  0.81500  0.41500  1.0000 0.1176399781
H   H90       1.0  0.54720  0.80090  0.63190  1.0000 0.100671093
H   H91       1.0  0.38780  0.81900  0.56880  1.0000 0.100671093
H   H92       1.0  0.88660  0.09570  0.58950  1.0000 0.1114597081
H   H93       1.0  0.78500  0.08870  0.66010  1.0000 0.1114597081
H   H94       1.0  0.68680  0.78160  0.52710  1.0000 0.1114597081
H   H95       1.0  0.51140  0.75430  0.50990  1.0000 0.1176399781
H   H96       1.0  0.79100  0.01210  0.59300  1.0000 0.100671093
H   H97       1.0  0.98920  0.01380  0.60740  1.0000 0.0939762375
H   H98       1.0  0.14300  0.08800  0.68400  1.0000 0.1114597081
H   H99       1.0  0.07990  0.85820  0.92590  1.0000 0.100671093
H   H100      1.0  0.97300  0.90750  0.92140  1.0000 0.100671093
H   H101      1.0  0.41680  0.89990  0.49180  1.0000 0.0939762375
H   H102      1.0  0.59300  0.92680  0.51050  1.0000 0.100671093
H   H103      1.0  0.14290  0.07930  0.82430  1.0000 0.1176399781
H   H104      1.0  0.94460  0.07960  0.80680  1.0000 0.1114597081
H   H105      1.0  0.14790  0.00360  0.76030  1.0000 0.100671093
H   H106      1.0  0.03120  0.99800  0.82490  1.0000 0.100671093
H   H107      1.0  0.73400  0.79050  0.80430  1.0000 0.100671093
H   H108      1.0  0.92300  0.78120  0.84680  1.0000 0.0939762375
C   C1        1.0  0.26390  0.71720  0.92920  1.0000 -0.2157549623
C   C2        1.0  0.40920  0.64330  0.00110  1.0000 -0.2157549623
C   C3        1.0  0.08080  0.71490  0.36350  1.0000 0.6217565623
C   C4        1.0  0.09160  0.63440  0.43650  1.0000 -0.2116256064
C   C5        1.0  0.38840  0.70000  0.00510  1.0000 -0.1146798995
C   C6        1.0  0.54350  0.34680  0.72100  1.0000 0.6313701507
C   C7        1.0  0.01960  0.68710  0.42980  1.0000 -0.1206336606
C   C8        1.0  0.33120  0.71540  0.08290  1.0000 0.6089697716
C   C9        1.0  0.01020  0.68290  0.57940  1.0000 -0.093069072
C   C10       1.0  0.38760  0.42060  0.64170  1.0000 -0.2116256064
C   C11       1.0  0.06550  0.71330  0.51320  1.0000 -0.2012587029
C   C12       1.0  0.39210  0.47720  0.63070  1.0000 -0.093069072
C   C13       1.0  0.54050  0.40310  0.70410  1.0000 -0.1146798995
C   C14       1.0  0.46730  0.62860  0.92440  1.0000 -0.093069072
C   C15       1.0  0.03790  0.60560  0.50520  1.0000 -0.0959310132
C   C16       1.0  0.17970  0.61250  0.65010  1.0000 0.4440484608
C   C17       1.0  0.54260  0.43030  0.78500  1.0000 -0.2116256064
C   C18       1.0  0.54150  0.48600  0.77380  1.0000 -0.0959310132
C   C19       1.0  0.32070  0.70100  0.85140  1.0000 -0.093069072
C   C20       1.0  0.31610  0.62040  0.78050  1.0000 0.4440484608
C   C21       1.0  0.33930  0.54950  0.71180  1.0000 0.4440484608
C   C22       1.0  0.23610  0.21720  0.07080  1.0000 -0.2157549623
C   C23       1.0  0.09080  0.14330  0.99890  1.0000 -0.2157549623
C   C24       1.0  0.41920  0.21490  0.63650  1.0000 0.6217565623
C   C25       1.0  0.40840  0.13440  0.56350  1.0000 -0.2116256064
C   C26       1.0  0.11160  0.20000  0.99490  1.0000 -0.1146798995
C   C27       1.0  0.95650  0.84680  0.27900  1.0000 0.6313701507
C   C28       1.0  0.48040  0.18710  0.57020  1.0000 -0.1206336606
C   C29       1.0  0.16880  0.21540  0.91710  1.0000 0.6089697716
C   C30       1.0  0.48980  0.18290  0.42060  1.0000 -0.093069072
C   C31       1.0  0.11240  0.92060  0.35830  1.0000 -0.2116256064
C   C32       1.0  0.43450  0.21330  0.48680  1.0000 -0.2012587029
C   C33       1.0  0.10790  0.97720  0.36930  1.0000 -0.093069072
C   C34       1.0  0.95950  0.90310  0.29590  1.0000 -0.1146798995
C   C35       1.0  0.03270  0.12860  0.07560  1.0000 -0.093069072
C   C36       1.0  0.46210  0.10560  0.49480  1.0000 -0.093069072
C   C37       1.0  0.32030  0.11250  0.34990  1.0000 0.4440484608
C   C38       1.0  0.95740  0.93030  0.21500  1.0000 -0.2116256064
C   C39       1.0  0.95850  0.98600  0.22620  1.0000 -0.0959310132
C   C40       1.0  0.17930  0.20100  0.14860  1.0000 -0.093069072
C   C41       1.0  0.18390  0.12040  0.21950  1.0000 0.4440484608
C   C42       1.0  0.16070  0.04950  0.28820  1.0000 0.4452065167
C   C43       1.0  0.73610  0.28280  0.07080  1.0000 -0.2116256064
C   C44       1.0  0.59080  0.35670  0.99890  1.0000 -0.2157549623
C   C45       1.0  0.91920  0.28510  0.63650  1.0000 0.6217565623
C   C46       1.0  0.90840  0.36560  0.56350  1.0000 -0.2116256064
C   C47       1.0  0.61160  0.30000  0.99490  1.0000 -0.1146798995
C   C48       1.0  0.45650  0.65320  0.27900  1.0000 0.6313701507
C   C49       1.0  0.98040  0.31290  0.57020  1.0000 -0.1206336606
C   C50       1.0  0.66880  0.28460  0.91710  1.0000 0.6089697716
C   C51       1.0  0.98980  0.31710  0.42060  1.0000 -0.093069072
C   C52       1.0  0.61240  0.57940  0.35830  1.0000 -0.2116256064
C   C53       1.0  0.93450  0.28670  0.48680  1.0000 -0.2012587029
C   C54       1.0  0.60790  0.52280  0.36930  1.0000 -0.093069072
C   C55       1.0  0.45950  0.59690  0.29590  1.0000 -0.1146798995
C   C56       1.0  0.53270  0.37140  0.07560  1.0000 -0.093069072
C   C57       1.0  0.96210  0.39440  0.49480  1.0000 -0.093069072
C   C58       1.0  0.82030  0.38750  0.34990  1.0000 0.4440484608
C   C59       1.0  0.45740  0.56970  0.21500  1.0000 -0.2116256064
C   C60       1.0  0.45850  0.51400  0.22620  1.0000 -0.0959310132
C   C61       1.0  0.67930  0.29900  0.14860  1.0000 -0.093069072
C   C62       1.0  0.68390  0.37960  0.21950  1.0000 0.4440484608
C   C63       1.0  0.66070  0.45050  0.28820  1.0000 0.4440484608
C   C64       1.0  0.76390  0.78280  0.92920  1.0000 -0.2157549623
C   C65       1.0  0.90920  0.85670  0.00110  1.0000 -0.2157549623
C   C66       1.0  0.58080  0.78510  0.36350  1.0000 0.6217565623
C   C67       1.0  0.59160  0.86560  0.43650  1.0000 -0.2116256064
C   C68       1.0  0.88840  0.80000  0.00510  1.0000 -0.1146798995
C   C69       1.0  0.04350  0.15320  0.72100  1.0000 0.6313701507
C   C70       1.0  0.51960  0.81290  0.42980  1.0000 -0.1206336606
C   C71       1.0  0.83120  0.78460  0.08290  1.0000 0.6089697716
C   C72       1.0  0.51020  0.81710  0.57940  1.0000 -0.093069072
C   C73       1.0  0.88760  0.07940  0.64170  1.0000 -0.2116256064
C   C74       1.0  0.56550  0.78670  0.51320  1.0000 -0.2012587029
C   C75       1.0  0.89210  0.02280  0.63070  1.0000 -0.093069072
C   C76       1.0  0.04050  0.09690  0.70410  1.0000 -0.1146798995
C   C77       1.0  0.96730  0.87140  0.92440  1.0000 -0.093069072
C   C78       1.0  0.53790  0.89440  0.50520  1.0000 -0.0959310132
C   C79       1.0  0.67970  0.88750  0.65010  1.0000 0.4440484608
C   C80       1.0  0.04260  0.06970  0.78500  1.0000 -0.2116256064
C   C81       1.0  0.04150  0.01400  0.77380  1.0000 -0.0959310132
C   C82       1.0  0.82070  0.79900  0.85140  1.0000 -0.093069072
C   C83       1.0  0.81610  0.87960  0.78050  1.0000 0.4440484608
C   C84       1.0  0.83930  0.95050  0.71180  1.0000 0.4440484608
N   N1        1.0  0.08080  0.63220  0.58270  1.0000 -0.0959310132
N   N2        1.0  0.40220  0.50220  0.70890  1.0000 -0.1206336606
N   N3        1.0  0.35250  0.64760  0.85120  1.0000 -0.1146798995
N   N4        1.0  0.23600  0.56568  0.64440  1.0000 -0.5482804341
N   N5        1.0  0.21640  0.64170  0.71630  1.0000 -0.5482804341
N   N6        1.0  0.38170  0.57420  0.78280  1.0000 -0.5342447323
N   N7        1.0  0.41920  0.13220  0.41730  1.0000 -0.0959310132
N   N8        1.0  0.09780  0.00220  0.29110  1.0000 -0.1206336606
N   N9        1.0  0.14750  0.14760  0.14880  1.0000 -0.1146798995
N   N10       1.0  0.26400  0.06568  0.35560  1.0000 -0.5482804341
N   N11       1.0  0.28360  0.14170  0.28370  1.0000 -0.5482804341
N   N12       1.0  0.11830  0.07420  0.21720  1.0000 -0.5415496591
N   N13       1.0  0.91920  0.36780  0.41730  1.0000 -0.0959310132
N   N14       1.0  0.59780  0.49780  0.29110  1.0000 -0.1146798995
N   N15       1.0  0.64750  0.35240  0.14880  1.0000 -0.1146798995
N   N16       1.0  0.76400  0.43432  0.35560  1.0000 -0.5482804341
N   N17       1.0  0.78360  0.35830  0.28370  1.0000 -0.5415496591
N   N18       1.0  0.61830  0.42580  0.21720  1.0000 -0.5342447323
N   N19       1.0  0.58080  0.86780  0.58270  1.0000 -0.0959310132
N   N20       1.0  0.90220  0.99780  0.70890  1.0000 -0.1146798995
N   N21       1.0  0.85250  0.85240  0.85120  1.0000 -0.1146798995
N   N22       1.0  0.73600  0.93432  0.64440  1.0000 -0.5482804341
N   N23       1.0  0.71640  0.85830  0.71630  1.0000 -0.5415496591
N   N24       1.0  0.88170  0.92580  0.78280  1.0000 -0.5342447323
O   O1        1.0  0.43850  0.73373  0.14290  1.0000 -0.7529248509
O   O2        1.0  0.40860  0.32410  0.71380  1.0000 -0.6438555482
O   O3        1.0  0.98650  0.71570  0.29060  1.0000 -0.7792284104
O   O4        1.0  0.18080  0.71200  0.08950  1.0000 -0.5804834875
O   O5        1.0  0.69150  0.32822  0.74430  1.0000 -0.6583686236
O   O6        1.0  0.22200  0.73483  0.37560  1.0000 -0.5804834875
O   O7        1.0  0.06150  0.23373  0.85710  1.0000 -0.7529248509
O   O8        1.0  0.09140  0.82410  0.28620  1.0000 -0.6438555482
O   O9        1.0  0.51350  0.21570  0.70940  1.0000 -0.7792284104
O   O10       1.0  0.31920  0.21200  0.91050  1.0000 -0.5804834875
O   O11       1.0  0.80850  0.82822  0.25570  1.0000 -0.6583686236
O   O12       1.0  0.27800  0.23483  0.62440  1.0000 -0.5804834875
O   O13       1.0  0.56150  0.26627  0.85710  1.0000 -0.7529248509
O   O14       1.0  0.59140  0.67590  0.28620  1.0000 -0.6438555482
O   O15       1.0  0.01350  0.28430  0.70940  1.0000 -0.7792284104
O   O16       1.0  0.81920  0.28800  0.91050  1.0000 -0.5804834875
O   O17       1.0  0.30850  0.67178  0.25570  1.0000 -0.6583686236
O   O18       1.0  0.77800  0.26517  0.62440  1.0000 -0.5804834875
O   O19       1.0  0.93850  0.76627  0.14290  1.0000 -0.7529248509
O   O20       1.0  0.90860  0.17590  0.71380  1.0000 -0.6438555482
O   O21       1.0  0.48650  0.78430  0.29060  1.0000 -0.7792284104
O   O22       1.0  0.68080  0.78800  0.08950  1.0000 -0.5804834875
O   O23       1.0  0.19150  0.17178  0.74430  1.0000 -0.6583686236
O   O24       1.0  0.72200  0.76517  0.37560  1.0000 -0.5804834875
