# DDEC6 charges by PACMAN v1.1 (https://github.com/mtap-research/PACMAN-charge/)
data_2017[Zr][scu]3[ASR]1
_chemical_formula_sum              "Zr12 H112 C212 O48"
_cell_length_a       20.9299
_cell_length_b       20.9299
_cell_length_c       33.693
_cell_angle_alpha    90
_cell_angle_beta     90
_cell_angle_gamma    129.543

_symmetry_space_group_name_H-M    "P 1"
_symmetry_Int_Tables_number       1

loop_
  _symmetry_equiv_pos_as_xyz
  'x, y, z'

loop_
  _atom_site_type_symbol
  _atom_site_label
  _atom_site_symmetry_multiplicity
  _atom_site_fract_x
  _atom_site_fract_y
  _atom_site_fract_z
  _atom_site_occupancy
  _atom_site_charge
Zr  Zr1       1.0  0.10614  0.08966  0.44752  1.0000 2.4634157135
Zr  Zr2       1.0  0.89386  0.91034  0.44752  1.0000 2.4634157135
Zr  Zr3       1.0  0.91034  0.89386  0.05248  1.0000 2.4634157135
Zr  Zr4       1.0  0.08966  0.10614  0.05248  1.0000 2.4634157135
Zr  Zr5       1.0  0.89386  0.91034  0.55248  1.0000 2.4634157135
Zr  Zr6       1.0  0.10614  0.08966  0.55248  1.0000 2.4634157135
Zr  Zr7       1.0  0.08966  0.10614  0.94752  1.0000 2.4634157135
Zr  Zr8       1.0  0.91034  0.89386  0.94752  1.0000 2.4634157135
Zr  Zr9       1.0  0.96078  0.08808  0.50000  1.0000 2.3525939299
Zr  Zr10      1.0  0.03922  0.91192  0.50000  1.0000 2.3525939299
Zr  Zr11      1.0  0.91192  0.03922  0.00000  1.0000 2.3525939299
Zr  Zr12      1.0  0.08808  0.96078  0.00000  1.0000 2.3525939299
H   H1        1.0  0.73820  0.93300  0.63320  1.0000 0.1028751083
H   H2        1.0  0.67950  0.96550  0.67810  1.0000 0.1206336017
H   H3        1.0  0.75660  0.16420  0.61100  1.0000 0.1098469433
H   H4        1.0  0.81470  0.12970  0.56600  1.0000 0.1206336017
H   H5        1.0  0.58410  0.97570  0.69920  1.0000 0.1206336017
H   H6        1.0  0.40380  0.99600  0.81550  1.0000 0.1206336017
H   H7        1.0  0.52470  0.24330  0.81590  1.0000 0.1206336017
H   H8        1.0  0.61630  0.26550  0.76720  1.0000 0.1098469433
H   H9        1.0  0.70340  0.25500  0.71200  1.0000 0.1098469433
H   H10       1.0  0.75830  0.21610  0.66770  1.0000 0.1098469433
H   H11       1.0  0.37280  0.00920  0.88020  1.0000 0.1098469433
H   H12       1.0  0.28150  0.99410  0.92620  1.0000 0.1206336017
H   H13       1.0  0.30410  0.18190  0.87540  1.0000 0.1028751083
H   H14       1.0  0.39810  0.20050  0.82960  1.0000 0.1098469433
H   H15       1.0  0.26180  0.06700  0.63320  1.0000 0.1028751083
H   H16       1.0  0.32050  0.03450  0.67810  1.0000 0.1206336017
H   H17       1.0  0.24340  0.83580  0.61100  1.0000 0.1098469433
H   H18       1.0  0.18530  0.87030  0.56600  1.0000 0.1206336017
H   H19       1.0  0.41590  0.02430  0.69920  1.0000 0.1206336017
H   H20       1.0  0.59620  0.00400  0.81550  1.0000 0.1206336017
H   H21       1.0  0.47530  0.75670  0.81590  1.0000 0.1206336017
H   H22       1.0  0.38370  0.73450  0.76720  1.0000 0.1098469433
H   H23       1.0  0.29660  0.74500  0.71200  1.0000 0.1098469433
H   H24       1.0  0.24170  0.78390  0.66770  1.0000 0.1098469433
H   H25       1.0  0.62720  0.99080  0.88020  1.0000 0.1098469433
H   H26       1.0  0.71850  0.00590  0.92620  1.0000 0.1206336017
H   H27       1.0  0.69590  0.81810  0.87540  1.0000 0.1028751083
H   H28       1.0  0.60190  0.79950  0.82960  1.0000 0.1098469433
H   H29       1.0  0.06700  0.26180  0.86680  1.0000 0.1028751083
H   H30       1.0  0.03450  0.32050  0.82190  1.0000 0.1206336017
H   H31       1.0  0.83580  0.24340  0.88900  1.0000 0.1098469433
H   H32       1.0  0.87030  0.18530  0.93400  1.0000 0.1206336017
H   H33       1.0  0.02430  0.41590  0.80080  1.0000 0.1206336017
H   H34       1.0  0.00400  0.59620  0.68450  1.0000 0.1206336017
H   H35       1.0  0.75670  0.47530  0.68410  1.0000 0.1206336017
H   H36       1.0  0.73450  0.38370  0.73280  1.0000 0.1098469433
H   H37       1.0  0.74500  0.29660  0.78800  1.0000 0.1098469433
H   H38       1.0  0.78390  0.24170  0.83230  1.0000 0.1098469433
H   H39       1.0  0.99080  0.62720  0.61980  1.0000 0.1098469433
H   H40       1.0  0.00590  0.71850  0.57380  1.0000 0.1206336017
H   H41       1.0  0.81810  0.69590  0.62460  1.0000 0.1028751083
H   H42       1.0  0.79950  0.60190  0.67040  1.0000 0.1098469433
H   H43       1.0  0.93300  0.73820  0.86680  1.0000 0.1028751083
H   H44       1.0  0.96550  0.67950  0.82190  1.0000 0.1206336017
H   H45       1.0  0.16420  0.75660  0.88900  1.0000 0.1098469433
H   H46       1.0  0.12970  0.81470  0.93400  1.0000 0.1206336017
H   H47       1.0  0.97570  0.58410  0.80080  1.0000 0.1206336017
H   H48       1.0  0.99600  0.40380  0.68450  1.0000 0.1206336017
H   H49       1.0  0.24330  0.52470  0.68410  1.0000 0.1206336017
H   H50       1.0  0.26550  0.61630  0.73280  1.0000 0.1098469433
H   H51       1.0  0.25500  0.70340  0.78800  1.0000 0.1098469433
H   H52       1.0  0.21610  0.75830  0.83230  1.0000 0.1098469433
H   H53       1.0  0.00920  0.37280  0.61980  1.0000 0.1098469433
H   H54       1.0  0.99410  0.28150  0.57380  1.0000 0.1206336017
H   H55       1.0  0.18190  0.30410  0.62460  1.0000 0.1028751083
H   H56       1.0  0.20050  0.39810  0.67040  1.0000 0.1098469433
H   H57       1.0  0.26180  0.06700  0.36680  1.0000 0.1028751083
H   H58       1.0  0.32050  0.03450  0.32190  1.0000 0.1206336017
H   H59       1.0  0.24340  0.83580  0.38900  1.0000 0.1098469433
H   H60       1.0  0.18530  0.87030  0.43400  1.0000 0.1206336017
H   H61       1.0  0.41590  0.02430  0.30080  1.0000 0.1206336017
H   H62       1.0  0.59620  0.00400  0.18450  1.0000 0.1206336017
H   H63       1.0  0.47530  0.75670  0.18410  1.0000 0.1206336017
H   H64       1.0  0.38370  0.73450  0.23280  1.0000 0.1098469433
H   H65       1.0  0.29660  0.74500  0.28800  1.0000 0.1098469433
H   H66       1.0  0.24170  0.78390  0.33230  1.0000 0.1098469433
H   H67       1.0  0.62720  0.99080  0.11980  1.0000 0.1098469433
H   H68       1.0  0.71850  0.00590  0.07380  1.0000 0.1206336017
H   H69       1.0  0.69590  0.81810  0.12460  1.0000 0.1028751083
H   H70       1.0  0.60190  0.79950  0.17040  1.0000 0.1098469433
H   H71       1.0  0.73820  0.93300  0.36680  1.0000 0.1028751083
H   H72       1.0  0.67950  0.96550  0.32190  1.0000 0.1206336017
H   H73       1.0  0.75660  0.16420  0.38900  1.0000 0.1098469433
H   H74       1.0  0.81470  0.12970  0.43400  1.0000 0.1206336017
H   H75       1.0  0.58410  0.97570  0.30080  1.0000 0.1206336017
H   H76       1.0  0.40380  0.99600  0.18450  1.0000 0.1206336017
H   H77       1.0  0.52470  0.24330  0.18410  1.0000 0.1206336017
H   H78       1.0  0.61630  0.26550  0.23280  1.0000 0.1098469433
H   H79       1.0  0.70340  0.25500  0.28800  1.0000 0.1098469433
H   H80       1.0  0.75830  0.21610  0.33230  1.0000 0.1098469433
H   H81       1.0  0.37280  0.00920  0.11980  1.0000 0.1098469433
H   H82       1.0  0.28150  0.99410  0.07380  1.0000 0.1206336017
H   H83       1.0  0.30410  0.18190  0.12460  1.0000 0.1028751083
H   H84       1.0  0.39810  0.20050  0.17040  1.0000 0.1098469433
H   H85       1.0  0.93300  0.73820  0.13320  1.0000 0.1028751083
H   H86       1.0  0.96550  0.67950  0.17810  1.0000 0.1206336017
H   H87       1.0  0.16420  0.75660  0.11100  1.0000 0.1098469433
H   H88       1.0  0.12970  0.81470  0.06600  1.0000 0.1206336017
H   H89       1.0  0.97570  0.58410  0.19920  1.0000 0.1206336017
H   H90       1.0  0.99600  0.40380  0.31550  1.0000 0.1206336017
H   H91       1.0  0.24330  0.52470  0.31590  1.0000 0.1206336017
H   H92       1.0  0.26550  0.61630  0.26720  1.0000 0.1098469433
H   H93       1.0  0.25500  0.70340  0.21200  1.0000 0.1098469433
H   H94       1.0  0.21610  0.75830  0.16770  1.0000 0.1098469433
H   H95       1.0  0.00920  0.37280  0.38020  1.0000 0.1098469433
H   H96       1.0  0.99410  0.28150  0.42620  1.0000 0.1206336017
H   H97       1.0  0.18190  0.30410  0.37540  1.0000 0.1028751083
H   H98       1.0  0.20050  0.39810  0.32960  1.0000 0.1098469433
H   H99       1.0  0.06700  0.26180  0.13320  1.0000 0.1028751083
H   H100      1.0  0.03450  0.32050  0.17810  1.0000 0.1206336017
H   H101      1.0  0.83580  0.24340  0.11100  1.0000 0.1098469433
H   H102      1.0  0.87030  0.18530  0.06600  1.0000 0.1206336017
H   H103      1.0  0.02430  0.41590  0.19920  1.0000 0.1206336017
H   H104      1.0  0.00400  0.59620  0.31550  1.0000 0.1206336017
H   H105      1.0  0.75670  0.47530  0.31590  1.0000 0.1206336017
H   H106      1.0  0.73450  0.38370  0.26720  1.0000 0.1098469433
H   H107      1.0  0.74500  0.29660  0.21200  1.0000 0.1098469433
H   H108      1.0  0.78390  0.24170  0.16770  1.0000 0.1098469433
H   H109      1.0  0.99080  0.62720  0.38020  1.0000 0.1098469433
H   H110      1.0  0.00590  0.71850  0.42620  1.0000 0.1206336017
H   H111      1.0  0.81810  0.69590  0.37540  1.0000 0.1028751083
H   H112      1.0  0.79950  0.60190  0.32960  1.0000 0.1098469433
C   C1        1.0  0.82469  0.01031  0.56772  1.0000 0.6361512257
C   C2        1.0  0.78286  0.02834  0.59573  1.0000 -0.0505120746
C   C3        1.0  0.74231  0.98029  0.62880  1.0000 -0.084199539
C   C4        1.0  0.70764  0.99976  0.65550  1.0000 -0.1610228728
C   C5        1.0  0.71302  0.06978  0.64994  1.0000 0.0763610107
C   C6        1.0  0.75303  0.11737  0.61587  1.0000 -0.1693618615
C   C7        1.0  0.78760  0.09680  0.58905  1.0000 -0.0891196237
C   C8        1.0  0.67746  0.09314  0.67888  1.0000 0.0763610107
C   C9        1.0  0.60863  0.03237  0.70185  1.0000 -0.1971466547
C   C10       1.0  0.57673  0.05567  0.72837  1.0000 0.0276607225
C   C11       1.0  0.50167  0.06393  0.77740  1.0000 0.0276607225
C   C12       1.0  0.44672  0.05028  0.80596  1.0000 -0.2063890794
C   C13       1.0  0.45577  0.11903  0.82062  1.0000 0.0763610107
C   C14       1.0  0.51896  0.19744  0.80588  1.0000 -0.1610228728
C   C15       1.0  0.57386  0.21134  0.77712  1.0000 -0.1693618615
C   C16       1.0  0.56473  0.14327  0.76321  1.0000 0.0109460701
C   C17       1.0  0.61243  0.13877  0.73281  1.0000 0.0109460701
C   C18       1.0  0.67955  0.19845  0.70974  1.0000 -0.1501742718
C   C19       1.0  0.71151  0.17489  0.68332  1.0000 -0.1610228728
C   C20       1.0  0.39591  0.10669  0.85003  1.0000 0.0735385082
C   C21       1.0  0.35963  0.04497  0.87917  1.0000 -0.1693618615
C   C22       1.0  0.30505  0.03575  0.90633  1.0000 -0.0891196237
C   C23       1.0  0.28414  0.08686  0.90481  1.0000 -0.0373236282
C   C24       1.0  0.31852  0.14708  0.87644  1.0000 -0.0976351906
C   C25       1.0  0.37446  0.15814  0.84905  1.0000 -0.1501742718
C   C26       1.0  0.22048  0.07332  0.93282  1.0000 0.6361512257
C   C27       1.0  0.17531  0.98969  0.56772  1.0000 0.6345833851
C   C28       1.0  0.21714  0.97166  0.59573  1.0000 -0.0505120746
C   C29       1.0  0.25769  0.01971  0.62880  1.0000 -0.084199539
C   C30       1.0  0.29236  0.00024  0.65550  1.0000 -0.1610228728
C   C31       1.0  0.28698  0.93022  0.64994  1.0000 0.0735385082
C   C32       1.0  0.24697  0.88263  0.61587  1.0000 -0.1693618615
C   C33       1.0  0.21240  0.90320  0.58905  1.0000 -0.0891196237
C   C34       1.0  0.32254  0.90686  0.67888  1.0000 0.0763610107
C   C35       1.0  0.39137  0.96763  0.70185  1.0000 -0.1971466547
C   C36       1.0  0.42327  0.94433  0.72837  1.0000 0.0276607225
C   C37       1.0  0.49833  0.93607  0.77740  1.0000 0.0276607225
C   C38       1.0  0.55328  0.94972  0.80596  1.0000 -0.2063890794
C   C39       1.0  0.54423  0.88097  0.82062  1.0000 0.0763610107
C   C40       1.0  0.48104  0.80256  0.80588  1.0000 -0.1610228728
C   C41       1.0  0.42614  0.78866  0.77712  1.0000 -0.1693618615
C   C42       1.0  0.43527  0.85673  0.76321  1.0000 0.0109460701
C   C43       1.0  0.38757  0.86123  0.73281  1.0000 0.0109460701
C   C44       1.0  0.32045  0.80155  0.70974  1.0000 -0.1501742718
C   C45       1.0  0.28849  0.82511  0.68332  1.0000 -0.1610228728
C   C46       1.0  0.60409  0.89331  0.85003  1.0000 0.0735385082
C   C47       1.0  0.64037  0.95503  0.87917  1.0000 -0.1693618615
C   C48       1.0  0.69495  0.96425  0.90633  1.0000 -0.0891196237
C   C49       1.0  0.71586  0.91314  0.90481  1.0000 -0.0373236282
C   C50       1.0  0.68148  0.85292  0.87644  1.0000 -0.0976351906
C   C51       1.0  0.62554  0.84186  0.84905  1.0000 -0.1501742718
C   C52       1.0  0.77952  0.92668  0.93282  1.0000 0.6361512257
C   C53       1.0  0.98969  0.17531  0.93228  1.0000 0.6361512257
C   C54       1.0  0.97166  0.21714  0.90427  1.0000 -0.0505120746
C   C55       1.0  0.01971  0.25769  0.87120  1.0000 -0.0891196237
C   C56       1.0  0.00024  0.29236  0.84450  1.0000 -0.1610228728
C   C57       1.0  0.93022  0.28698  0.85006  1.0000 0.0735385082
C   C58       1.0  0.88263  0.24697  0.88413  1.0000 -0.1693618615
C   C59       1.0  0.90320  0.21240  0.91095  1.0000 -0.0891196237
C   C60       1.0  0.90686  0.32254  0.82112  1.0000 0.0763610107
C   C61       1.0  0.96763  0.39137  0.79815  1.0000 -0.1971466547
C   C62       1.0  0.94433  0.42327  0.77163  1.0000 0.0276607225
C   C63       1.0  0.93607  0.49833  0.72260  1.0000 0.0276607225
C   C64       1.0  0.94972  0.55328  0.69404  1.0000 -0.2063890794
C   C65       1.0  0.88097  0.54423  0.67938  1.0000 0.0763610107
C   C66       1.0  0.80256  0.48104  0.69412  1.0000 -0.1610228728
C   C67       1.0  0.78866  0.42614  0.72288  1.0000 -0.1693618615
C   C68       1.0  0.85673  0.43527  0.73679  1.0000 0.0109460701
C   C69       1.0  0.86123  0.38757  0.76719  1.0000 0.0109460701
C   C70       1.0  0.80155  0.32045  0.79026  1.0000 -0.1501742718
C   C71       1.0  0.82511  0.28849  0.81668  1.0000 -0.1610228728
C   C72       1.0  0.89331  0.60409  0.64997  1.0000 0.0735385082
C   C73       1.0  0.95503  0.64037  0.62083  1.0000 -0.1693618615
C   C74       1.0  0.96425  0.69495  0.59367  1.0000 -0.0891196237
C   C75       1.0  0.91314  0.71586  0.59519  1.0000 -0.0373236282
C   C76       1.0  0.85292  0.68148  0.62356  1.0000 -0.0976351906
C   C77       1.0  0.84186  0.62554  0.65095  1.0000 -0.1501742718
C   C78       1.0  0.92668  0.77952  0.56718  1.0000 0.6361512257
C   C79       1.0  0.01031  0.82469  0.93228  1.0000 0.6361512257
C   C80       1.0  0.02834  0.78286  0.90427  1.0000 -0.0505120746
C   C81       1.0  0.98029  0.74231  0.87120  1.0000 -0.0891196237
C   C82       1.0  0.99976  0.70764  0.84450  1.0000 -0.1610228728
C   C83       1.0  0.06978  0.71302  0.85006  1.0000 0.0735385082
C   C84       1.0  0.11737  0.75303  0.88413  1.0000 -0.1693618615
C   C85       1.0  0.09680  0.78760  0.91095  1.0000 -0.0891196237
C   C86       1.0  0.09314  0.67746  0.82112  1.0000 0.0763610107
C   C87       1.0  0.03237  0.60863  0.79815  1.0000 -0.1971466547
C   C88       1.0  0.05567  0.57673  0.77163  1.0000 0.0276607225
C   C89       1.0  0.06393  0.50167  0.72260  1.0000 0.0276607225
C   C90       1.0  0.05028  0.44672  0.69404  1.0000 -0.2063890794
C   C91       1.0  0.11903  0.45577  0.67938  1.0000 0.0735385082
C   C92       1.0  0.19744  0.51896  0.69412  1.0000 -0.1610228728
C   C93       1.0  0.21134  0.57386  0.72288  1.0000 -0.1693618615
C   C94       1.0  0.14327  0.56473  0.73679  1.0000 0.0109460701
C   C95       1.0  0.13877  0.61243  0.76719  1.0000 0.0109460701
C   C96       1.0  0.19845  0.67955  0.79026  1.0000 -0.1501742718
C   C97       1.0  0.17489  0.71151  0.81668  1.0000 -0.1610228728
C   C98       1.0  0.10669  0.39591  0.64997  1.0000 0.0735385082
C   C99       1.0  0.04497  0.35963  0.62083  1.0000 -0.1693618615
C   C100      1.0  0.03575  0.30505  0.59367  1.0000 -0.0891196237
C   C101      1.0  0.08686  0.28414  0.59519  1.0000 -0.0373236282
C   C102      1.0  0.14708  0.31852  0.62356  1.0000 -0.0976351906
C   C103      1.0  0.15814  0.37446  0.65095  1.0000 -0.1501742718
C   C104      1.0  0.07332  0.22048  0.56718  1.0000 0.6361512257
C   C105      1.0  0.17531  0.98969  0.43228  1.0000 0.6361512257
C   C106      1.0  0.21714  0.97166  0.40427  1.0000 -0.0505120746
C   C107      1.0  0.25769  0.01971  0.37120  1.0000 -0.0891196237
C   C108      1.0  0.29236  0.00024  0.34450  1.0000 -0.1610228728
C   C109      1.0  0.28698  0.93022  0.35006  1.0000 0.0735385082
C   C110      1.0  0.24697  0.88263  0.38413  1.0000 -0.1693618615
C   C111      1.0  0.21240  0.90320  0.41095  1.0000 -0.0891196237
C   C112      1.0  0.32254  0.90686  0.32112  1.0000 0.0763610107
C   C113      1.0  0.39137  0.96763  0.29815  1.0000 -0.1971466547
C   C114      1.0  0.42327  0.94433  0.27163  1.0000 0.0276607225
C   C115      1.0  0.49833  0.93607  0.22260  1.0000 0.0276607225
C   C116      1.0  0.55328  0.94972  0.19404  1.0000 -0.2063890794
C   C117      1.0  0.54423  0.88097  0.17938  1.0000 0.0763610107
C   C118      1.0  0.48104  0.80256  0.19412  1.0000 -0.1610228728
C   C119      1.0  0.42614  0.78866  0.22288  1.0000 -0.1693618615
C   C120      1.0  0.43527  0.85673  0.23679  1.0000 0.0109460701
C   C121      1.0  0.38757  0.86123  0.26719  1.0000 0.0109460701
C   C122      1.0  0.32045  0.80155  0.29026  1.0000 -0.1501742718
C   C123      1.0  0.28849  0.82511  0.31668  1.0000 -0.1610228728
C   C124      1.0  0.60409  0.89331  0.14997  1.0000 0.0735385082
C   C125      1.0  0.64037  0.95503  0.12083  1.0000 -0.1693618615
C   C126      1.0  0.69495  0.96425  0.09367  1.0000 -0.0891196237
C   C127      1.0  0.71586  0.91314  0.09519  1.0000 -0.0373236282
C   C128      1.0  0.68148  0.85292  0.12356  1.0000 -0.0976351906
C   C129      1.0  0.62554  0.84186  0.15095  1.0000 -0.1501742718
C   C130      1.0  0.77952  0.92668  0.06718  1.0000 0.6361512257
C   C131      1.0  0.82469  0.01031  0.43228  1.0000 0.6361512257
C   C132      1.0  0.78286  0.02834  0.40427  1.0000 -0.0505120746
C   C133      1.0  0.74231  0.98029  0.37120  1.0000 -0.0891196237
C   C134      1.0  0.70764  0.99976  0.34450  1.0000 -0.1610228728
C   C135      1.0  0.71302  0.06978  0.35006  1.0000 0.0763610107
C   C136      1.0  0.75303  0.11737  0.38413  1.0000 -0.1693618615
C   C137      1.0  0.78760  0.09680  0.41095  1.0000 -0.0891196237
C   C138      1.0  0.67746  0.09314  0.32112  1.0000 0.0763610107
C   C139      1.0  0.60863  0.03237  0.29815  1.0000 -0.1971466547
C   C140      1.0  0.57673  0.05567  0.27163  1.0000 0.0276607225
C   C141      1.0  0.50167  0.06393  0.22260  1.0000 0.0276607225
C   C142      1.0  0.44672  0.05028  0.19404  1.0000 -0.2063890794
C   C143      1.0  0.45577  0.11903  0.17938  1.0000 0.0763610107
C   C144      1.0  0.51896  0.19744  0.19412  1.0000 -0.1610228728
C   C145      1.0  0.57386  0.21134  0.22288  1.0000 -0.1693618615
C   C146      1.0  0.56473  0.14327  0.23679  1.0000 0.0109460701
C   C147      1.0  0.61243  0.13877  0.26719  1.0000 0.0109460701
C   C148      1.0  0.67955  0.19845  0.29026  1.0000 -0.1501742718
C   C149      1.0  0.71151  0.17489  0.31668  1.0000 -0.1610228728
C   C150      1.0  0.39591  0.10669  0.14997  1.0000 0.0735385082
C   C151      1.0  0.35963  0.04497  0.12083  1.0000 -0.1693618615
C   C152      1.0  0.30505  0.03575  0.09367  1.0000 -0.0891196237
C   C153      1.0  0.28414  0.08686  0.09519  1.0000 -0.0373236282
C   C154      1.0  0.31852  0.14708  0.12356  1.0000 -0.0976351906
C   C155      1.0  0.37446  0.15814  0.15095  1.0000 -0.1501742718
C   C156      1.0  0.22048  0.07332  0.06718  1.0000 0.6361512257
C   C157      1.0  0.01031  0.82469  0.06772  1.0000 0.6361512257
C   C158      1.0  0.02834  0.78286  0.09573  1.0000 -0.0505120746
C   C159      1.0  0.98029  0.74231  0.12880  1.0000 -0.0891196237
C   C160      1.0  0.99976  0.70764  0.15550  1.0000 -0.1610228728
C   C161      1.0  0.06978  0.71302  0.14994  1.0000 0.0735385082
C   C162      1.0  0.11737  0.75303  0.11587  1.0000 -0.1610228728
C   C163      1.0  0.09680  0.78760  0.08905  1.0000 -0.0891196237
C   C164      1.0  0.09314  0.67746  0.17888  1.0000 0.0763610107
C   C165      1.0  0.03237  0.60863  0.20185  1.0000 -0.1971466547
C   C166      1.0  0.05567  0.57673  0.22837  1.0000 0.0276607225
C   C167      1.0  0.06393  0.50167  0.27740  1.0000 0.0276607225
C   C168      1.0  0.05028  0.44672  0.30596  1.0000 -0.2063890794
C   C169      1.0  0.11903  0.45577  0.32062  1.0000 0.0735385082
C   C170      1.0  0.19744  0.51896  0.30588  1.0000 -0.1610228728
C   C171      1.0  0.21134  0.57386  0.27712  1.0000 -0.1693618615
C   C172      1.0  0.14327  0.56473  0.26321  1.0000 0.0109460701
C   C173      1.0  0.13877  0.61243  0.23281  1.0000 0.0109460701
C   C174      1.0  0.19845  0.67955  0.20974  1.0000 -0.1501742718
C   C175      1.0  0.17489  0.71151  0.18332  1.0000 -0.1610228728
C   C176      1.0  0.10669  0.39591  0.35003  1.0000 0.0735385082
C   C177      1.0  0.04497  0.35963  0.37917  1.0000 -0.1693618615
C   C178      1.0  0.03575  0.30505  0.40633  1.0000 -0.0891196237
C   C179      1.0  0.08686  0.28414  0.40481  1.0000 -0.0373236282
C   C180      1.0  0.14708  0.31852  0.37644  1.0000 -0.0976351906
C   C181      1.0  0.15814  0.37446  0.34905  1.0000 -0.1501742718
C   C182      1.0  0.07332  0.22048  0.43282  1.0000 0.6361512257
C   C183      1.0  0.98969  0.17531  0.06772  1.0000 0.6361512257
C   C184      1.0  0.97166  0.21714  0.09573  1.0000 -0.0505120746
C   C185      1.0  0.01971  0.25769  0.12880  1.0000 -0.0891196237
C   C186      1.0  0.00024  0.29236  0.15550  1.0000 -0.1610228728
C   C187      1.0  0.93022  0.28698  0.14994  1.0000 0.0735385082
C   C188      1.0  0.88263  0.24697  0.11587  1.0000 -0.1693618615
C   C189      1.0  0.90320  0.21240  0.08905  1.0000 -0.0891196237
C   C190      1.0  0.90686  0.32254  0.17888  1.0000 0.0763610107
C   C191      1.0  0.96763  0.39137  0.20185  1.0000 -0.1971466547
C   C192      1.0  0.94433  0.42327  0.22837  1.0000 0.0276607225
C   C193      1.0  0.93607  0.49833  0.27740  1.0000 0.0276607225
C   C194      1.0  0.94972  0.55328  0.30596  1.0000 -0.2063890794
C   C195      1.0  0.88097  0.54423  0.32062  1.0000 0.0763610107
C   C196      1.0  0.80256  0.48104  0.30588  1.0000 -0.1610228728
C   C197      1.0  0.78866  0.42614  0.27712  1.0000 -0.1693618615
C   C198      1.0  0.85673  0.43527  0.26321  1.0000 0.0109460701
C   C199      1.0  0.86123  0.38757  0.23281  1.0000 0.0109460701
C   C200      1.0  0.80155  0.32045  0.20974  1.0000 -0.1501742718
C   C201      1.0  0.82511  0.28849  0.18332  1.0000 -0.1610228728
C   C202      1.0  0.89331  0.60409  0.35003  1.0000 0.0735385082
C   C203      1.0  0.95503  0.64037  0.37917  1.0000 -0.1693618615
C   C204      1.0  0.96425  0.69495  0.40633  1.0000 -0.0891196237
C   C205      1.0  0.91314  0.71586  0.40481  1.0000 -0.0373236282
C   C206      1.0  0.85292  0.68148  0.37644  1.0000 -0.0976351906
C   C207      1.0  0.84186  0.62554  0.34905  1.0000 -0.1501742718
C   C208      1.0  0.92668  0.77952  0.43282  1.0000 0.6361512257
C   C209      1.0  0.50000  0.00000  0.75489  1.0000 0.0276607225
C   C210      1.0  0.00000  0.50000  0.74511  1.0000 0.0276607225
C   C211      1.0  0.50000  0.00000  0.24511  1.0000 0.0276607225
C   C212      1.0  0.00000  0.50000  0.25489  1.0000 0.0276607225
O   O1        1.0  0.01896  0.95654  0.44705  1.0000 -1.179781876
O   O2        1.0  0.86326  0.06102  0.53904  1.0000 -0.5857040571
O   O3        1.0  0.82040  0.94892  0.57469  1.0000 -0.6101960547
O   O4        1.0  0.19608  0.11362  0.92639  1.0000 -0.6101960547
O   O5        1.0  0.19520  0.02078  0.96044  1.0000 -0.5841088092
O   O6        1.0  0.98104  0.04346  0.44705  1.0000 -1.1734538959
O   O7        1.0  0.13674  0.93898  0.53904  1.0000 -0.5857040571
O   O8        1.0  0.17960  0.05108  0.57469  1.0000 -0.6101960547
O   O9        1.0  0.80392  0.88638  0.92639  1.0000 -0.6101960547
O   O10       1.0  0.80480  0.97922  0.96044  1.0000 -0.5857040571
O   O11       1.0  0.04346  0.98104  0.05295  1.0000 -1.179781876
O   O12       1.0  0.93898  0.13674  0.96096  1.0000 -0.5841088092
O   O13       1.0  0.05108  0.17960  0.92531  1.0000 -0.6101960547
O   O14       1.0  0.88638  0.80392  0.57361  1.0000 -0.6101960547
O   O15       1.0  0.97922  0.80480  0.53956  1.0000 -0.5841088092
O   O16       1.0  0.95654  0.01896  0.05295  1.0000 -1.179781876
O   O17       1.0  0.06102  0.86326  0.96096  1.0000 -0.5841088092
O   O18       1.0  0.94892  0.82040  0.92531  1.0000 -0.6101960547
O   O19       1.0  0.11362  0.19608  0.57361  1.0000 -0.6101960547
O   O20       1.0  0.02078  0.19520  0.53956  1.0000 -0.5841088092
O   O21       1.0  0.98104  0.04346  0.55295  1.0000 -1.179781876
O   O22       1.0  0.13674  0.93898  0.46096  1.0000 -0.5857040571
O   O23       1.0  0.17960  0.05108  0.42531  1.0000 -0.6101960547
O   O24       1.0  0.80392  0.88638  0.07361  1.0000 -0.6101960547
O   O25       1.0  0.80480  0.97922  0.03956  1.0000 -0.5841088092
O   O26       1.0  0.01896  0.95654  0.55295  1.0000 -1.179781876
O   O27       1.0  0.86326  0.06102  0.46096  1.0000 -0.5857040571
O   O28       1.0  0.82040  0.94892  0.42531  1.0000 -0.6101960547
O   O29       1.0  0.19608  0.11362  0.07361  1.0000 -0.6101960547
O   O30       1.0  0.19520  0.02078  0.03956  1.0000 -0.5841088092
O   O31       1.0  0.95654  0.01896  0.94705  1.0000 -1.1734538959
O   O32       1.0  0.06102  0.86326  0.03904  1.0000 -0.5841088092
O   O33       1.0  0.94892  0.82040  0.07469  1.0000 -0.6101960547
O   O34       1.0  0.11362  0.19608  0.42639  1.0000 -0.6150510596
O   O35       1.0  0.02078  0.19520  0.46044  1.0000 -0.5841088092
O   O36       1.0  0.04346  0.98104  0.94705  1.0000 -1.1734538959
O   O37       1.0  0.93898  0.13674  0.03904  1.0000 -0.5841088092
O   O38       1.0  0.05108  0.17960  0.07469  1.0000 -0.6101960547
O   O39       1.0  0.88638  0.80392  0.42639  1.0000 -0.6101960547
O   O40       1.0  0.97922  0.80480  0.46044  1.0000 -0.5841088092
O   O41       1.0  0.08692  0.13268  0.50000  1.0000 -1.1734538959
O   O42       1.0  0.12636  0.04784  0.50000  1.0000 -1.179781876
O   O43       1.0  0.91308  0.86732  0.50000  1.0000 -1.1734538959
O   O44       1.0  0.87364  0.95216  0.50000  1.0000 -1.179781876
O   O45       1.0  0.86732  0.91308  0.00000  1.0000 -1.1734538959
O   O46       1.0  0.95216  0.87364  0.00000  1.0000 -1.1851288365
O   O47       1.0  0.13268  0.08692  0.00000  1.0000 -1.179781876
O   O48       1.0  0.04784  0.12636  0.00000  1.0000 -1.179781876
