# DDEC6 charges by PACMAN v1.1 (https://github.com/mtap-research/PACMAN-charge/)
data_2017[HoCu][nan]3[ASR]1
_chemical_formula_sum              "Ho8 Cu16 H112 C168 I12 N28 O56"
_cell_length_a       9.264
_cell_length_b       23.203
_cell_length_c       30.606
_cell_angle_alpha    90
_cell_angle_beta     90
_cell_angle_gamma    90

_symmetry_space_group_name_H-M    "P 1"
_symmetry_Int_Tables_number       1

loop_
  _symmetry_equiv_pos_as_xyz
  'x, y, z'

loop_
  _atom_site_type_symbol
  _atom_site_label
  _atom_site_symmetry_multiplicity
  _atom_site_fract_x
  _atom_site_fract_y
  _atom_site_fract_z
  _atom_site_occupancy
  _atom_site_charge
Ho  Ho1       1.0  0.04230  0.43933  0.48446  1.0000 2.141084259
Ho  Ho2       1.0  0.98814  0.53494  0.97829  1.0000 2.141084259
Ho  Ho3       1.0  0.45770  0.56067  0.98446  1.0000 2.141084259
Ho  Ho4       1.0  0.51186  0.46506  0.47829  1.0000 2.141084259
Ho  Ho5       1.0  0.95770  0.93933  0.01554  1.0000 2.141084259
Ho  Ho6       1.0  0.01186  0.03494  0.52171  1.0000 2.141084259
Ho  Ho7       1.0  0.54230  0.06067  0.51554  1.0000 2.141084259
Ho  Ho8       1.0  0.48814  0.96506  0.02171  1.0000 2.141084259
Cu  Cu1       1.0  0.54460  0.38069  0.22234  1.0000 0.1906278111
Cu  Cu2       1.0  0.00600  0.14333  0.24919  1.0000 0.2037761823
Cu  Cu3       1.0  0.22020  0.26513  0.17594  1.0000 0.2082267642
Cu  Cu4       1.0  0.24430  0.21799  0.25706  1.0000 0.17201752
Cu  Cu5       1.0  0.95540  0.61931  0.72234  1.0000 0.1906278111
Cu  Cu6       1.0  0.49400  0.85667  0.74919  1.0000 0.2037761823
Cu  Cu7       1.0  0.27980  0.73487  0.67594  1.0000 0.2082267642
Cu  Cu8       1.0  0.25570  0.78201  0.75706  1.0000 0.17201752
Cu  Cu9       1.0  0.45540  0.88069  0.27766  1.0000 0.1906278111
Cu  Cu10      1.0  0.99400  0.64333  0.25081  1.0000 0.2037761823
Cu  Cu11      1.0  0.77980  0.76513  0.32406  1.0000 0.2082267642
Cu  Cu12      1.0  0.75570  0.71799  0.24294  1.0000 0.17201752
Cu  Cu13      1.0  0.04460  0.11931  0.77766  1.0000 0.1906278111
Cu  Cu14      1.0  0.50600  0.35667  0.75081  1.0000 0.2037761823
Cu  Cu15      1.0  0.72020  0.23487  0.82406  1.0000 0.2082267642
Cu  Cu16      1.0  0.74430  0.28201  0.74294  1.0000 0.17201752
H   H1        1.0  0.07490  0.31460  0.39580  1.0000 0.1393659825
H   H2        1.0  0.92430  0.55510  0.31770  1.0000 0.0995518289
H   H3        1.0  0.61640  0.38960  0.66400  1.0000 0.0995518289
H   H4        1.0  0.59550  0.59040  0.40140  1.0000 0.1393659825
H   H5        1.0  0.01950  0.39500  0.05910  1.0000 0.1393659825
H   H6        1.0  0.05670  0.25720  0.33250  1.0000 0.0914211686
H   H7        1.0  0.84940  0.33640  0.35010  1.0000 0.1393659825
H   H8        1.0  0.75420  0.32400  0.28200  1.0000 0.0995518289
H   H9        1.0  0.00410  0.63170  0.43340  1.0000 0.1393659825
H   H10       1.0  0.42830  0.34620  0.13360  1.0000 0.0914211686
H   H11       1.0  0.29770  0.62220  0.28950  1.0000 0.1081118733
H   H12       1.0  0.01550  0.50720  0.37540  1.0000 0.1393659825
H   H13       1.0  0.47180  0.26250  0.31600  1.0000 0.0914211686
H   H14       1.0  0.79740  0.41430  0.08180  1.0000 0.1393659825
H   H15       1.0  0.72750  0.36310  0.14220  1.0000 0.1081118733
H   H16       1.0  0.01510  0.32770  0.11530  1.0000 0.0995518289
H   H17       1.0  0.44900  0.41040  0.07790  1.0000 0.1295941426
H   H18       1.0  0.14790  0.35150  0.62700  1.0000 0.1393659825
H   H19       1.0  0.40150  0.57430  0.34480  1.0000 0.1295941426
H   H20       1.0  0.52470  0.46340  0.29550  1.0000 0.1081118733
H   H21       1.0  0.50240  0.31880  0.37720  1.0000 0.1295941426
H   H22       1.0  0.54630  0.40690  0.59330  1.0000 0.1393659825
H   H23       1.0  0.52340  0.49670  0.18550  1.0000 0.1081118733
H   H24       1.0  0.23440  0.33410  0.69490  1.0000 0.1081118733
H   H25       1.0  0.59930  0.66490  0.35210  1.0000 0.0995518289
H   H26       1.0  0.99020  0.70310  0.38280  1.0000 0.0995518289
H   H27       1.0  0.61000  0.47970  0.36290  1.0000 0.150074327
H   H28       1.0  0.57920  0.55010  0.12600  1.0000 0.150074327
H   H29       1.0  0.42510  0.68540  0.89580  1.0000 0.1393659825
H   H30       1.0  0.57570  0.44490  0.81770  1.0000 0.0995518289
H   H31       1.0  0.88360  0.61040  0.16400  1.0000 0.0995518289
H   H32       1.0  0.90450  0.40960  0.90140  1.0000 0.1393659825
H   H33       1.0  0.48050  0.60500  0.55910  1.0000 0.1393659825
H   H34       1.0  0.44330  0.74280  0.83250  1.0000 0.0914211686
H   H35       1.0  0.65060  0.66360  0.85010  1.0000 0.1393659825
H   H36       1.0  0.74580  0.67600  0.78200  1.0000 0.0995518289
H   H37       1.0  0.49590  0.36830  0.93340  1.0000 0.1393659825
H   H38       1.0  0.07170  0.65380  0.63360  1.0000 0.0914211686
H   H39       1.0  0.20230  0.37780  0.78950  1.0000 0.1081118733
H   H40       1.0  0.48450  0.49280  0.87540  1.0000 0.1393659825
H   H41       1.0  0.02820  0.73750  0.81600  1.0000 0.0914211686
H   H42       1.0  0.70260  0.58570  0.58180  1.0000 0.1393659825
H   H43       1.0  0.77250  0.63690  0.64220  1.0000 0.1081118733
H   H44       1.0  0.48490  0.67230  0.61530  1.0000 0.0995518289
H   H45       1.0  0.05100  0.58960  0.57790  1.0000 0.1295941426
H   H46       1.0  0.35210  0.64850  0.12700  1.0000 0.1393659825
H   H47       1.0  0.09850  0.42570  0.84480  1.0000 0.1295941426
H   H48       1.0  0.97530  0.53660  0.79550  1.0000 0.1081118733
H   H49       1.0  0.99760  0.68120  0.87720  1.0000 0.1295941426
H   H50       1.0  0.95370  0.59310  0.09330  1.0000 0.1393659825
H   H51       1.0  0.97660  0.50330  0.68550  1.0000 0.1081118733
H   H52       1.0  0.26560  0.66590  0.19490  1.0000 0.1081118733
H   H53       1.0  0.90070  0.33510  0.85210  1.0000 0.0995518289
H   H54       1.0  0.50980  0.29690  0.88280  1.0000 0.0995518289
H   H55       1.0  0.89000  0.52030  0.86290  1.0000 0.150074327
H   H56       1.0  0.92080  0.44990  0.62600  1.0000 0.150074327
H   H57       1.0  0.92510  0.81460  0.10420  1.0000 0.1393659825
H   H58       1.0  0.07570  0.05510  0.18230  1.0000 0.0995518289
H   H59       1.0  0.38360  0.88960  0.83600  1.0000 0.0995518289
H   H60       1.0  0.40450  0.09040  0.09860  1.0000 0.1393659825
H   H61       1.0  0.98050  0.89500  0.44090  1.0000 0.1393659825
H   H62       1.0  0.94330  0.75720  0.16750  1.0000 0.0914211686
H   H63       1.0  0.15060  0.83640  0.14990  1.0000 0.1393659825
H   H64       1.0  0.24580  0.82400  0.21800  1.0000 0.0995518289
H   H65       1.0  0.99590  0.13170  0.06660  1.0000 0.1393659825
H   H66       1.0  0.57170  0.84620  0.36640  1.0000 0.0914211686
H   H67       1.0  0.70230  0.12220  0.21050  1.0000 0.1081118733
H   H68       1.0  0.98450  0.00720  0.12460  1.0000 0.1393659825
H   H69       1.0  0.52820  0.76250  0.18400  1.0000 0.0914211686
H   H70       1.0  0.20260  0.91430  0.41820  1.0000 0.1393659825
H   H71       1.0  0.27250  0.86310  0.35780  1.0000 0.1081118733
H   H72       1.0  0.98490  0.82770  0.38470  1.0000 0.0995518289
H   H73       1.0  0.55100  0.91040  0.42210  1.0000 0.1295941426
H   H74       1.0  0.85210  0.85150  0.87300  1.0000 0.1393659825
H   H75       1.0  0.59850  0.07430  0.15520  1.0000 0.1295941426
H   H76       1.0  0.47530  0.96340  0.20450  1.0000 0.1081118733
H   H77       1.0  0.49760  0.81880  0.12280  1.0000 0.1295941426
H   H78       1.0  0.45370  0.90690  0.90670  1.0000 0.1393659825
H   H79       1.0  0.47660  0.99670  0.31450  1.0000 0.1081118733
H   H80       1.0  0.76560  0.83410  0.80510  1.0000 0.1081118733
H   H81       1.0  0.40070  0.16490  0.14790  1.0000 0.0995518289
H   H82       1.0  0.00980  0.20310  0.11720  1.0000 0.0995518289
H   H83       1.0  0.39000  0.97970  0.13710  1.0000 0.150074327
H   H84       1.0  0.42080  0.05010  0.37400  1.0000 0.150074327
H   H85       1.0  0.57490  0.18540  0.60420  1.0000 0.1393659825
H   H86       1.0  0.42430  0.94490  0.68230  1.0000 0.0995518289
H   H87       1.0  0.11640  0.11040  0.33600  1.0000 0.0995518289
H   H88       1.0  0.09550  0.90960  0.59860  1.0000 0.1393659825
H   H89       1.0  0.51950  0.10500  0.94090  1.0000 0.1393659825
H   H90       1.0  0.55670  0.24280  0.66750  1.0000 0.0914211686
H   H91       1.0  0.34940  0.16360  0.64990  1.0000 0.1393659825
H   H92       1.0  0.25420  0.17600  0.71800  1.0000 0.0995518289
H   H93       1.0  0.50410  0.86830  0.56660  1.0000 0.1393659825
H   H94       1.0  0.92830  0.15380  0.86640  1.0000 0.0914211686
H   H95       1.0  0.79770  0.87780  0.71050  1.0000 0.1081118733
H   H96       1.0  0.51550  0.99280  0.62460  1.0000 0.1393659825
H   H97       1.0  0.97180  0.23750  0.68400  1.0000 0.0914211686
H   H98       1.0  0.29740  0.08570  0.91820  1.0000 0.1393659825
H   H99       1.0  0.22750  0.13690  0.85780  1.0000 0.1081118733
H   H100      1.0  0.51510  0.17230  0.88470  1.0000 0.0995518289
H   H101      1.0  0.94900  0.08960  0.92210  1.0000 0.1295941426
H   H102      1.0  0.64790  0.14850  0.37300  1.0000 0.1393659825
H   H103      1.0  0.90150  0.92570  0.65520  1.0000 0.1295941426
H   H104      1.0  0.02470  0.03660  0.70450  1.0000 0.1081118733
H   H105      1.0  0.00240  0.18120  0.62280  1.0000 0.1295941426
H   H106      1.0  0.04630  0.09310  0.40670  1.0000 0.1393659825
H   H107      1.0  0.02340  0.00330  0.81450  1.0000 0.1081118733
H   H108      1.0  0.73440  0.16590  0.30510  1.0000 0.1081118733
H   H109      1.0  0.09930  0.83510  0.64790  1.0000 0.0995518289
H   H110      1.0  0.49020  0.79690  0.61720  1.0000 0.0995518289
H   H111      1.0  0.11000  0.02030  0.63710  1.0000 0.150074327
H   H112      1.0  0.07920  0.94990  0.87400  1.0000 0.150074327
C   C1        1.0  0.30370  0.36200  0.43330  1.0000 0.6461582236
C   C2        1.0  0.23810  0.45680  0.02740  1.0000 0.6329589166
C   C3        1.0  0.73000  0.52210  0.05520  1.0000 0.6366821282
C   C4        1.0  0.15670  0.30490  0.37980  1.0000 -0.151023862
C   C5        1.0  0.28800  0.39960  0.55630  1.0000 0.6366821282
C   C6        1.0  0.80050  0.60210  0.42310  1.0000 0.0182993336
C   C7        1.0  0.02200  0.55970  0.32370  1.0000 0.0778207217
C   C8        1.0  0.23240  0.41250  0.06430  1.0000 0.0182993336
C   C9        1.0  0.52160  0.38150  0.65620  1.0000 0.068491079
C   C10       1.0  0.73830  0.40930  0.36590  1.0000 0.0397547066
C   C11       1.0  0.69630  0.48780  0.09570  1.0000 0.0280177872
C   C12       1.0  0.29260  0.32370  0.39230  1.0000 0.0280177872
C   C13       1.0  0.67760  0.61320  0.39840  1.0000 -0.1605367657
C   C14       1.0  0.10340  0.38620  0.07440  1.0000 -0.151023862
C   C15       1.0  0.14690  0.27020  0.34150  1.0000 0.0628384498
C   C16       1.0  0.33640  0.38300  0.60200  1.0000 0.0280177872
C   C17       1.0  0.78180  0.36250  0.33960  1.0000 -0.1605367657
C   C18       1.0  0.72540  0.35540  0.29870  1.0000 0.068491079
C   C19       1.0  0.91970  0.63740  0.41750  1.0000 -0.151023862
C   C20       1.0  0.34430  0.35650  0.11890  1.0000 0.0628384498
C   C21       1.0  0.24030  0.59870  0.30690  1.0000 0.0397547066
C   C22       1.0  0.07480  0.53050  0.35840  1.0000 -0.151023862
C   C23       1.0  0.22390  0.53650  0.36800  1.0000 0.0182993336
C   C24       1.0  0.39040  0.27330  0.33180  1.0000 0.0778207217
C   C25       1.0  0.73910  0.43210  0.10250  1.0000 -0.1715947412
C   C26       1.0  0.69850  0.40130  0.13940  1.0000 0.0628384498
C   C27       1.0  0.10230  0.34560  0.10870  1.0000 0.0506816424
C   C28       1.0  0.35930  0.39570  0.08570  1.0000 -0.151023862
C   C29       1.0  0.24370  0.35970  0.63360  1.0000 -0.1605367657
C   C30       1.0  0.30270  0.57060  0.34030  1.0000 -0.151023862
C   C31       1.0  0.59090  0.43730  0.30690  1.0000 0.068491079
C   C32       1.0  0.41030  0.30740  0.36880  1.0000 -0.151023862
C   C33       1.0  0.48030  0.39300  0.61360  1.0000 -0.151023862
C   C34       1.0  0.28410  0.50620  0.40810  1.0000 0.6209552788
C   C35       1.0  0.79890  0.55070  0.45350  1.0000 0.6329589166
C   C36       1.0  0.57900  0.47940  0.16400  1.0000 0.0628384498
C   C37       1.0  0.29710  0.34940  0.67420  1.0000 0.0506816424
C   C38       1.0  0.79350  0.41560  0.41260  1.0000 0.6209552788
C   C39       1.0  0.68010  0.65880  0.36960  1.0000 0.0628384498
C   C40       1.0  0.90810  0.68100  0.38760  1.0000 0.068491079
C   C41       1.0  0.64070  0.44740  0.34740  1.0000 -0.151023862
C   C42       1.0  0.61200  0.51240  0.12830  1.0000 -0.1715947412
C   C43       1.0  0.19630  0.63800  0.93330  1.0000 0.6461582236
C   C44       1.0  0.26190  0.54320  0.52740  1.0000 0.6329589166
C   C45       1.0  0.77000  0.47790  0.55520  1.0000 0.6366821282
C   C46       1.0  0.34330  0.69510  0.87980  1.0000 -0.151023862
C   C47       1.0  0.21200  0.60040  0.05630  1.0000 0.6366821282
C   C48       1.0  0.69950  0.39790  0.92310  1.0000 0.0182993336
C   C49       1.0  0.47800  0.44030  0.82370  1.0000 0.0778207217
C   C50       1.0  0.26760  0.58750  0.56430  1.0000 0.0182993336
C   C51       1.0  0.97840  0.61850  0.15620  1.0000 0.068491079
C   C52       1.0  0.76170  0.59070  0.86590  1.0000 0.0397547066
C   C53       1.0  0.80370  0.51220  0.59570  1.0000 0.0280177872
C   C54       1.0  0.20740  0.67630  0.89230  1.0000 0.0280177872
C   C55       1.0  0.82240  0.38680  0.89840  1.0000 -0.1605367657
C   C56       1.0  0.39660  0.61380  0.57440  1.0000 -0.151023862
C   C57       1.0  0.35310  0.72980  0.84150  1.0000 0.0628384498
C   C58       1.0  0.16360  0.61700  0.10200  1.0000 0.0280177872
C   C59       1.0  0.71820  0.63750  0.83960  1.0000 -0.1605367657
C   C60       1.0  0.77460  0.64460  0.79870  1.0000 0.068491079
C   C61       1.0  0.58030  0.36260  0.91750  1.0000 -0.151023862
C   C62       1.0  0.15570  0.64350  0.61890  1.0000 0.0628384498
C   C63       1.0  0.25970  0.40130  0.80690  1.0000 0.0397547066
C   C64       1.0  0.42520  0.46950  0.85840  1.0000 -0.151023862
C   C65       1.0  0.27610  0.46350  0.86800  1.0000 0.0182993336
C   C66       1.0  0.10960  0.72670  0.83180  1.0000 0.0778207217
C   C67       1.0  0.76090  0.56790  0.60250  1.0000 -0.1715947412
C   C68       1.0  0.80150  0.59870  0.63940  1.0000 0.0628384498
C   C69       1.0  0.39770  0.65440  0.60870  1.0000 0.0506816424
C   C70       1.0  0.14070  0.60430  0.58570  1.0000 -0.151023862
C   C71       1.0  0.25630  0.64030  0.13360  1.0000 -0.1605367657
C   C72       1.0  0.19730  0.42940  0.84030  1.0000 -0.151023862
C   C73       1.0  0.90910  0.56270  0.80690  1.0000 0.068491079
C   C74       1.0  0.08970  0.69260  0.86880  1.0000 -0.151023862
C   C75       1.0  0.01970  0.60700  0.11360  1.0000 -0.151023862
C   C76       1.0  0.21590  0.49380  0.90810  1.0000 0.6209552788
C   C77       1.0  0.70110  0.44930  0.95350  1.0000 0.6329589166
C   C78       1.0  0.92100  0.52060  0.66400  1.0000 0.0628384498
C   C79       1.0  0.20290  0.65060  0.17420  1.0000 0.0506816424
C   C80       1.0  0.70650  0.58440  0.91260  1.0000 0.6209552788
C   C81       1.0  0.81990  0.34120  0.86960  1.0000 0.0628384498
C   C82       1.0  0.59190  0.31900  0.88760  1.0000 0.0628384498
C   C83       1.0  0.85930  0.55260  0.84740  1.0000 -0.151023862
C   C84       1.0  0.88800  0.48760  0.62830  1.0000 -0.1715947412
C   C85       1.0  0.69630  0.86200  0.06670  1.0000 0.6461582236
C   C86       1.0  0.76190  0.95680  0.47260  1.0000 0.6329589166
C   C87       1.0  0.27000  0.02210  0.44480  1.0000 0.6366821282
C   C88       1.0  0.84330  0.80490  0.12020  1.0000 -0.151023862
C   C89       1.0  0.71200  0.89960  0.94370  1.0000 0.6366821282
C   C90       1.0  0.19950  0.10210  0.07690  1.0000 0.0182993336
C   C91       1.0  0.97800  0.05970  0.17630  1.0000 0.0778207217
C   C92       1.0  0.76760  0.91250  0.43570  1.0000 0.0182993336
C   C93       1.0  0.47840  0.88150  0.84380  1.0000 0.068491079
C   C94       1.0  0.26170  0.90930  0.13410  1.0000 0.0397547066
C   C95       1.0  0.30370  0.98780  0.40430  1.0000 0.0280177872
C   C96       1.0  0.70740  0.82370  0.10770  1.0000 0.0280177872
C   C97       1.0  0.32240  0.11320  0.10160  1.0000 -0.1605367657
C   C98       1.0  0.89660  0.88620  0.42560  1.0000 -0.151023862
C   C99       1.0  0.85310  0.77020  0.15850  1.0000 0.0628384498
C   C100      1.0  0.66360  0.88300  0.89800  1.0000 0.0280177872
C   C101      1.0  0.21820  0.86250  0.16040  1.0000 -0.1605367657
C   C102      1.0  0.27460  0.85540  0.20130  1.0000 0.068491079
C   C103      1.0  0.08030  0.13740  0.08250  1.0000 -0.151023862
C   C104      1.0  0.65570  0.85650  0.38110  1.0000 0.0628384498
C   C105      1.0  0.75970  0.09870  0.19310  1.0000 0.0397547066
C   C106      1.0  0.92520  0.03050  0.14160  1.0000 -0.151023862
C   C107      1.0  0.77610  0.03650  0.13200  1.0000 0.0182993336
C   C108      1.0  0.60960  0.77330  0.16820  1.0000 0.0778207217
C   C109      1.0  0.26090  0.93210  0.39750  1.0000 -0.1715947412
C   C110      1.0  0.30150  0.90130  0.36060  1.0000 0.0628384498
C   C111      1.0  0.89770  0.84560  0.39130  1.0000 0.0506816424
C   C112      1.0  0.64070  0.89570  0.41430  1.0000 -0.151023862
C   C113      1.0  0.75630  0.85970  0.86640  1.0000 -0.1605367657
C   C114      1.0  0.69730  0.07060  0.15970  1.0000 -0.151023862
C   C115      1.0  0.40910  0.93730  0.19310  1.0000 0.068491079
C   C116      1.0  0.58970  0.80740  0.13120  1.0000 -0.151023862
C   C117      1.0  0.51970  0.89300  0.88640  1.0000 -0.151023862
C   C118      1.0  0.71590  0.00620  0.09190  1.0000 0.6209552788
C   C119      1.0  0.20110  0.05070  0.04650  1.0000 0.6329589166
C   C120      1.0  0.42100  0.97940  0.33600  1.0000 0.0628384498
C   C121      1.0  0.70290  0.84940  0.82580  1.0000 0.0506816424
C   C122      1.0  0.20650  0.91560  0.08740  1.0000 0.6209552788
C   C123      1.0  0.31990  0.15880  0.13040  1.0000 0.0628384498
C   C124      1.0  0.09190  0.18100  0.11240  1.0000 0.0628384498
C   C125      1.0  0.35930  0.94740  0.15260  1.0000 -0.151023862
C   C126      1.0  0.38800  0.01240  0.37170  1.0000 -0.1715947412
C   C127      1.0  0.80370  0.13800  0.56670  1.0000 0.6461582236
C   C128      1.0  0.73810  0.04320  0.97260  1.0000 0.6329589166
C   C129      1.0  0.23000  0.97790  0.94480  1.0000 0.6366821282
C   C130      1.0  0.65670  0.19510  0.62020  1.0000 -0.151023862
C   C131      1.0  0.78800  0.10040  0.44370  1.0000 0.6366821282
C   C132      1.0  0.30050  0.89790  0.57690  1.0000 0.0182993336
C   C133      1.0  0.52200  0.94030  0.67630  1.0000 0.0778207217
C   C134      1.0  0.73240  0.08750  0.93570  1.0000 0.0182993336
C   C135      1.0  0.02160  0.11850  0.34380  1.0000 0.068491079
C   C136      1.0  0.23830  0.09070  0.63410  1.0000 0.0397547066
C   C137      1.0  0.19630  0.01220  0.90430  1.0000 0.0280177872
C   C138      1.0  0.79260  0.17630  0.60770  1.0000 0.0280177872
C   C139      1.0  0.17760  0.88680  0.60160  1.0000 -0.1605367657
C   C140      1.0  0.60340  0.11380  0.92560  1.0000 -0.151023862
C   C141      1.0  0.64690  0.22980  0.65850  1.0000 0.0628384498
C   C142      1.0  0.83640  0.11700  0.39800  1.0000 0.0280177872
C   C143      1.0  0.28180  0.13750  0.66040  1.0000 -0.1605367657
C   C144      1.0  0.22540  0.14460  0.70130  1.0000 0.068491079
C   C145      1.0  0.41970  0.86260  0.58250  1.0000 -0.151023862
C   C146      1.0  0.84430  0.14350  0.88110  1.0000 0.0628384498
C   C147      1.0  0.74030  0.90130  0.69310  1.0000 0.0397547066
C   C148      1.0  0.57480  0.96950  0.64160  1.0000 -0.151023862
C   C149      1.0  0.72390  0.96350  0.63200  1.0000 0.0182993336
C   C150      1.0  0.89040  0.22670  0.66820  1.0000 0.0778207217
C   C151      1.0  0.23910  0.06790  0.89750  1.0000 -0.1715947412
C   C152      1.0  0.19850  0.09870  0.86060  1.0000 0.0628384498
C   C153      1.0  0.60230  0.15440  0.89130  1.0000 0.0506816424
C   C154      1.0  0.85930  0.10430  0.91430  1.0000 -0.151023862
C   C155      1.0  0.74370  0.14030  0.36640  1.0000 -0.1605367657
C   C156      1.0  0.80270  0.92940  0.65970  1.0000 -0.151023862
C   C157      1.0  0.09090  0.06270  0.69310  1.0000 0.068491079
C   C158      1.0  0.91030  0.19260  0.63120  1.0000 -0.151023862
C   C159      1.0  0.98030  0.10700  0.38640  1.0000 -0.151023862
C   C160      1.0  0.78410  0.99380  0.59190  1.0000 0.6209552788
C   C161      1.0  0.29890  0.94930  0.54650  1.0000 0.6329589166
C   C162      1.0  0.07900  0.02060  0.83600  1.0000 0.0628384498
C   C163      1.0  0.79710  0.15060  0.32580  1.0000 0.0506816424
C   C164      1.0  0.29350  0.08440  0.58740  1.0000 0.6209552788
C   C165      1.0  0.18010  0.84120  0.63040  1.0000 0.0628384498
C   C166      1.0  0.40810  0.81900  0.61240  1.0000 0.0628384498
C   C167      1.0  0.14070  0.05260  0.65260  1.0000 -0.151023862
C   C168      1.0  0.11200  0.98760  0.87170  1.0000 -0.1715947412
I   I1        1.0  0.28955  0.10812  0.25104  1.0000 -0.4534064032
I   I2        1.0  0.47835  0.27022  0.21417  1.0000 -0.4107592798
I   I3        1.0  0.98689  0.25548  0.22428  1.0000 -0.3935870029
I   I4        1.0  0.21045  0.89188  0.75104  1.0000 -0.4534064032
I   I5        1.0  0.02165  0.72978  0.71417  1.0000 -0.4107592798
I   I6        1.0  0.51311  0.74452  0.72428  1.0000 -0.3935870029
I   I7        1.0  0.71045  0.60812  0.24896  1.0000 -0.4534064032
I   I8        1.0  0.52165  0.77022  0.28583  1.0000 -0.4107592798
I   I9        1.0  0.01311  0.75548  0.27572  1.0000 -0.3935870029
I   I10       1.0  0.78955  0.39188  0.74896  1.0000 -0.4534064032
I   I11       1.0  0.97835  0.22978  0.78583  1.0000 -0.4107592798
I   I12       1.0  0.48689  0.24452  0.77572  1.0000 -0.3935870029
N   N1        1.0  0.26390  0.25550  0.31780  1.0000 -0.1715947412
N   N2        1.0  0.62880  0.39300  0.28190  1.0000 -0.1715947412
N   N3        1.0  0.79200  0.69480  0.36510  1.0000 -0.1804521143
N   N4        1.0  0.09550  0.59440  0.29730  1.0000 -0.1715947412
N   N5        1.0  0.22040  0.33080  0.13280  1.0000 -0.1876928754
N   N6        1.0  0.43450  0.35970  0.68670  1.0000 -0.1876928754
N   N7        1.0  0.61870  0.42530  0.17100  1.0000 -0.1804521143
N   N8        1.0  0.23610  0.74450  0.81780  1.0000 -0.1715947412
N   N9        1.0  0.87120  0.60700  0.78190  1.0000 -0.1715947412
N   N10       1.0  0.70800  0.30520  0.86510  1.0000 -0.1804521143
N   N11       1.0  0.40450  0.40560  0.79730  1.0000 -0.1715947412
N   N12       1.0  0.27960  0.66920  0.63280  1.0000 -0.1876928754
N   N13       1.0  0.06550  0.64030  0.18670  1.0000 -0.1876928754
N   N14       1.0  0.88130  0.57470  0.67100  1.0000 -0.1804521143
N   N15       1.0  0.73610  0.75550  0.18220  1.0000 -0.1715947412
N   N16       1.0  0.37120  0.89300  0.21810  1.0000 -0.1715947412
N   N17       1.0  0.20800  0.19480  0.13490  1.0000 -0.1804521143
N   N18       1.0  0.90450  0.09440  0.20270  1.0000 -0.1715947412
N   N19       1.0  0.77960  0.83080  0.36720  1.0000 -0.1876928754
N   N20       1.0  0.56550  0.85970  0.81330  1.0000 -0.1876928754
N   N21       1.0  0.38130  0.92530  0.32900  1.0000 -0.1804521143
N   N22       1.0  0.76390  0.24450  0.68220  1.0000 -0.1715947412
N   N23       1.0  0.12880  0.10700  0.71810  1.0000 -0.1715947412
N   N24       1.0  0.29200  0.80520  0.63490  1.0000 -0.1804521143
N   N25       1.0  0.59550  0.90560  0.70270  1.0000 -0.1715947412
N   N26       1.0  0.72040  0.16920  0.86720  1.0000 -0.1876928754
N   N27       1.0  0.93450  0.14030  0.31330  1.0000 -0.1876928754
N   N28       1.0  0.11870  0.07470  0.82900  1.0000 -0.1804521143
O   O1        1.0  0.35390  0.48370  0.02320  1.0000 -0.6424030907
O   O2        1.0  0.91610  0.52580  0.46000  1.0000 -0.6424030907
O   O3        1.0  0.42450  0.38540  0.43870  1.0000 -0.6574959504
O   O4        1.0  0.19070  0.36730  0.45610  1.0000 -0.6725889193
O   O5        1.0  0.93130  0.41380  0.41650  1.0000 -0.6725889193
O   O6        1.0  0.86010  0.52590  0.04410  1.0000 -0.6473056919
O   O7        1.0  0.62930  0.54680  0.03760  1.0000 -0.634706641
O   O8        1.0  0.67680  0.53760  0.46900  1.0000 -0.6725889193
O   O9        1.0  0.12490  0.46420  0.00710  1.0000 -0.6473056919
O   O10       1.0  0.70690  0.42630  0.44180  1.0000 -0.6574959504
O   O11       1.0  0.42110  0.51050  0.41330  1.0000 -0.6796428509
O   O12       1.0  0.20270  0.48130  0.43360  1.0000 -0.6424030907
O   O13       1.0  0.15170  0.39870  0.54900  1.0000 -0.6796428509
O   O14       1.0  0.38110  0.41340  0.52970  1.0000 -0.6574959504
O   O15       1.0  0.14610  0.51630  0.52320  1.0000 -0.6424030907
O   O16       1.0  0.58390  0.47420  0.96000  1.0000 -0.6424030907
O   O17       1.0  0.07550  0.61460  0.93870  1.0000 -0.6574959504
O   O18       1.0  0.30930  0.63270  0.95610  1.0000 -0.6725889193
O   O19       1.0  0.56870  0.58620  0.91650  1.0000 -0.6725889193
O   O20       1.0  0.63990  0.47410  0.54410  1.0000 -0.6473056919
O   O21       1.0  0.87070  0.45320  0.53760  1.0000 -0.634706641
O   O22       1.0  0.82320  0.46240  0.96900  1.0000 -0.6725889193
O   O23       1.0  0.37510  0.53580  0.50710  1.0000 -0.6473056919
O   O24       1.0  0.79310  0.57370  0.94180  1.0000 -0.6574959504
O   O25       1.0  0.07890  0.48950  0.91330  1.0000 -0.6796428509
O   O26       1.0  0.29730  0.51870  0.93360  1.0000 -0.6424030907
O   O27       1.0  0.34830  0.60130  0.04900  1.0000 -0.6796428509
O   O28       1.0  0.11890  0.58660  0.02970  1.0000 -0.6574959504
O   O29       1.0  0.64610  0.98370  0.47680  1.0000 -0.6424030907
O   O30       1.0  0.08390  0.02580  0.04000  1.0000 -0.6424030907
O   O31       1.0  0.57550  0.88540  0.06130  1.0000 -0.6574959504
O   O32       1.0  0.80930  0.86730  0.04390  1.0000 -0.6725889193
O   O33       1.0  0.06870  0.91380  0.08350  1.0000 -0.6725889193
O   O34       1.0  0.13990  0.02590  0.45590  1.0000 -0.6473056919
O   O35       1.0  0.37070  0.04680  0.46240  1.0000 -0.634706641
O   O36       1.0  0.32320  0.03760  0.03100  1.0000 -0.6725889193
O   O37       1.0  0.87510  0.96420  0.49290  1.0000 -0.6473056919
O   O38       1.0  0.29310  0.92630  0.05820  1.0000 -0.6574959504
O   O39       1.0  0.57890  0.01050  0.08670  1.0000 -0.6796428509
O   O40       1.0  0.79730  0.98130  0.06640  1.0000 -0.6424030907
O   O41       1.0  0.84830  0.89870  0.95100  1.0000 -0.6796428509
O   O42       1.0  0.61890  0.91340  0.97030  1.0000 -0.6574959504
O   O43       1.0  0.85390  0.01630  0.97680  1.0000 -0.6424030907
O   O44       1.0  0.41610  0.97420  0.54000  1.0000 -0.6424030907
O   O45       1.0  0.92450  0.11460  0.56130  1.0000 -0.6574959504
O   O46       1.0  0.69070  0.13270  0.54390  1.0000 -0.6725889193
O   O47       1.0  0.43130  0.08620  0.58350  1.0000 -0.6725889193
O   O48       1.0  0.36010  0.97410  0.95590  1.0000 -0.6473056919
O   O49       1.0  0.12930  0.95320  0.96240  1.0000 -0.634706641
O   O50       1.0  0.17680  0.96240  0.53100  1.0000 -0.6725889193
O   O51       1.0  0.62490  0.03580  0.99290  1.0000 -0.6473056919
O   O52       1.0  0.20690  0.07370  0.55820  1.0000 -0.6574959504
O   O53       1.0  0.92110  0.98950  0.58670  1.0000 -0.6796428509
O   O54       1.0  0.70270  0.01870  0.56640  1.0000 -0.6424030907
O   O55       1.0  0.65170  0.10130  0.45100  1.0000 -0.6796428509
O   O56       1.0  0.88110  0.08660  0.47030  1.0000 -0.6574959504
