# DDEC6 charges by PACMAN v1.1 (https://github.com/mtap-research/PACMAN-charge/)
data_2017[Co][nan]3[ASR]16
_chemical_formula_sum              "Co6 H72 C132 N4 O24"
_cell_length_a       17.2153
_cell_length_b       17.2153
_cell_length_c       21.605
_cell_angle_alpha    69.3246
_cell_angle_beta     110.675
_cell_angle_gamma    122.734

_symmetry_space_group_name_H-M    "P 1"
_symmetry_Int_Tables_number       1

loop_
  _symmetry_equiv_pos_as_xyz
  'x, y, z'

loop_
  _atom_site_type_symbol
  _atom_site_label
  _atom_site_symmetry_multiplicity
  _atom_site_fract_x
  _atom_site_fract_y
  _atom_site_fract_z
  _atom_site_occupancy
  _atom_site_charge
Co  Co1       1.0  0.25602  0.84200  0.47338  1.0000 0.9983818383
Co  Co2       1.0  0.84200  0.25602  0.02662  1.0000 0.9983818383
Co  Co3       1.0  0.74398  0.15800  0.52662  1.0000 0.9983818383
Co  Co4       1.0  0.15800  0.74398  0.97338  1.0000 0.9983818383
Co  Co5       1.0  0.50000  0.00000  0.50000  1.0000 1.0804853291
Co  Co6       1.0  0.00000  0.50000  0.00000  1.0000 1.0804853291
H   H1        1.0  0.18260  0.49500  0.96050  1.0000 0.1291568084
H   H2        1.0  0.32290  0.50710  0.96080  1.0000 0.1124637501
H   H3        1.0  0.20370  0.22450  0.99610  1.0000 0.1291568084
H   H4        1.0  0.06330  0.21230  0.99770  1.0000 0.1200987119
H   H5        1.0  0.35000  0.50440  0.86240  1.0000 0.1291568084
H   H6        1.0  0.58480  0.56200  0.81490  1.0000 0.1124637501
H   H7        1.0  0.60770  0.45450  0.90860  1.0000 0.1291568084
H   H8        1.0  0.59760  0.31740  0.03420  1.0000 0.1291568084
H   H9        1.0  0.55300  0.20640  0.13070  1.0000 0.1200987119
H   H10       1.0  0.33100  0.24600  0.10010  1.0000 0.1200987119
H   H11       1.0  0.30570  0.54310  0.75010  1.0000 0.1200987119
H   H12       1.0  0.27990  0.64670  0.65250  1.0000 0.1200987119
H   H13       1.0  0.55800  0.79440  0.65580  1.0000 0.1200987119
H   H14       1.0  0.58310  0.69430  0.75580  1.0000 0.1124637501
H   H15       1.0  0.26960  0.10520  0.15710  1.0000 0.1200987119
H   H16       1.0  0.22240  0.99720  0.25380  1.0000 0.1200987119
H   H17       1.0  0.48770  0.03990  0.33440  1.0000 0.1291568084
H   H18       1.0  0.53420  0.14580  0.23650  1.0000 0.1124637501
H   H19       1.0  0.49500  0.18260  0.53950  1.0000 0.1291568084
H   H20       1.0  0.50710  0.32290  0.53920  1.0000 0.1124637501
H   H21       1.0  0.22450  0.20370  0.50390  1.0000 0.1291568084
H   H22       1.0  0.21230  0.06330  0.50230  1.0000 0.1200987119
H   H23       1.0  0.50440  0.35000  0.63760  1.0000 0.1291568084
H   H24       1.0  0.56200  0.58480  0.68510  1.0000 0.1124637501
H   H25       1.0  0.45450  0.60770  0.59140  1.0000 0.1291568084
H   H26       1.0  0.31740  0.59760  0.46580  1.0000 0.1291568084
H   H27       1.0  0.20640  0.55300  0.36930  1.0000 0.1200987119
H   H28       1.0  0.24600  0.33100  0.39990  1.0000 0.1200987119
H   H29       1.0  0.54310  0.30570  0.74990  1.0000 0.1200987119
H   H30       1.0  0.64670  0.27990  0.84750  1.0000 0.1200987119
H   H31       1.0  0.79440  0.55800  0.84420  1.0000 0.1200987119
H   H32       1.0  0.69430  0.58310  0.74420  1.0000 0.1124637501
H   H33       1.0  0.10520  0.26960  0.34290  1.0000 0.1200987119
H   H34       1.0  0.99720  0.22240  0.24620  1.0000 0.1200987119
H   H35       1.0  0.03990  0.48770  0.16560  1.0000 0.1291568084
H   H36       1.0  0.14580  0.53420  0.26350  1.0000 0.1124637501
H   H37       1.0  0.81740  0.50500  0.03950  1.0000 0.1291568084
H   H38       1.0  0.67710  0.49290  0.03920  1.0000 0.1124637501
H   H39       1.0  0.79630  0.77550  0.00390  1.0000 0.1291568084
H   H40       1.0  0.93670  0.78770  0.00230  1.0000 0.1200987119
H   H41       1.0  0.65000  0.49560  0.13760  1.0000 0.1291568084
H   H42       1.0  0.41520  0.43800  0.18510  1.0000 0.1124637501
H   H43       1.0  0.39230  0.54550  0.09140  1.0000 0.1291568084
H   H44       1.0  0.40240  0.68260  0.96580  1.0000 0.1291568084
H   H45       1.0  0.44700  0.79360  0.86930  1.0000 0.1200987119
H   H46       1.0  0.66900  0.75400  0.89990  1.0000 0.1200987119
H   H47       1.0  0.69430  0.45690  0.24990  1.0000 0.1200987119
H   H48       1.0  0.72010  0.35330  0.34750  1.0000 0.1200987119
H   H49       1.0  0.44200  0.20560  0.34420  1.0000 0.1200987119
H   H50       1.0  0.41690  0.30570  0.24420  1.0000 0.1124637501
H   H51       1.0  0.73040  0.89480  0.84290  1.0000 0.1200987119
H   H52       1.0  0.77760  0.00280  0.74620  1.0000 0.1200987119
H   H53       1.0  0.51230  0.96010  0.66560  1.0000 0.1291568084
H   H54       1.0  0.46580  0.85420  0.76350  1.0000 0.1124637501
H   H55       1.0  0.50500  0.81740  0.46050  1.0000 0.1291568084
H   H56       1.0  0.49290  0.67710  0.46080  1.0000 0.1124637501
H   H57       1.0  0.77550  0.79630  0.49610  1.0000 0.1291568084
H   H58       1.0  0.78770  0.93670  0.49770  1.0000 0.1200987119
H   H59       1.0  0.49560  0.65000  0.36240  1.0000 0.1291568084
H   H60       1.0  0.43800  0.41520  0.31490  1.0000 0.1124637501
H   H61       1.0  0.54550  0.39230  0.40860  1.0000 0.1291568084
H   H62       1.0  0.68260  0.40240  0.53420  1.0000 0.1291568084
H   H63       1.0  0.79360  0.44700  0.63070  1.0000 0.1200987119
H   H64       1.0  0.75400  0.66900  0.60010  1.0000 0.1200987119
H   H65       1.0  0.45690  0.69430  0.25010  1.0000 0.1200987119
H   H66       1.0  0.35330  0.72010  0.15250  1.0000 0.1200987119
H   H67       1.0  0.20560  0.44200  0.15580  1.0000 0.1200987119
H   H68       1.0  0.30570  0.41690  0.25580  1.0000 0.1124637501
H   H69       1.0  0.89480  0.73040  0.65710  1.0000 0.1200987119
H   H70       1.0  0.00280  0.77760  0.75380  1.0000 0.1200987119
H   H71       1.0  0.96010  0.51230  0.83440  1.0000 0.1291568084
H   H72       1.0  0.85420  0.46580  0.73650  1.0000 0.1124637501
C   C1        1.0  0.01963  0.34777  0.98023  1.0000 0.5991523417
C   C2        1.0  0.10817  0.35243  0.97890  1.0000 -0.0287533089
C   C3        1.0  0.18679  0.44061  0.96805  1.0000 -0.0811342303
C   C4        1.0  0.27088  0.44792  0.96835  1.0000 -0.1988116222
C   C5        1.0  0.27818  0.36722  0.97992  1.0000 0.1769311281
C   C6        1.0  0.19975  0.27865  0.98973  1.0000 -0.1988116222
C   C7        1.0  0.11526  0.27154  0.99003  1.0000 -0.0811342303
C   C8        1.0  0.41840  0.43320  0.92991  1.0000 0.1370632054
C   C9        1.0  0.40197  0.49543  0.87198  1.0000 -0.2306568304
C   C10       1.0  0.46468  0.54392  0.82837  1.0000 0.0855819659
C   C11       1.0  0.54236  0.52844  0.84369  1.0000 -0.166082328
C   C12       1.0  0.55698  0.46502  0.90013  1.0000 -0.1267632878
C   C13       1.0  0.49564  0.41656  0.94478  1.0000 -0.0191701565
C   C14       1.0  0.48862  0.34618  0.00653  1.0000 -0.0191701565
C   C15       1.0  0.54379  0.30241  0.04646  1.0000 -0.1423879115
C   C16       1.0  0.51711  0.23649  0.10447  1.0000 -0.166082328
C   C17       1.0  0.43751  0.21409  0.12480  1.0000 0.0830189885
C   C18       1.0  0.38293  0.25867  0.08644  1.0000 -0.2306568304
C   C19       1.0  0.40859  0.32261  0.02690  1.0000 0.1291568084
C   C20       1.0  0.44721  0.60899  0.76437  1.0000 0.0690944038
C   C21       1.0  0.35678  0.59462  0.73211  1.0000 -0.1556495414
C   C22       1.0  0.34105  0.65635  0.67299  1.0000 -0.10052128
C   C23       1.0  0.41653  0.73227  0.64442  1.0000 -0.0287533089
C   C24       1.0  0.50717  0.74523  0.67513  1.0000 -0.10052128
C   C25       1.0  0.52186  0.68434  0.73499  1.0000 -0.1556495414
C   C26       1.0  0.39954  0.80206  0.58269  1.0000 0.5901947768
C   C27       1.0  0.40756  0.14104  0.18664  1.0000 0.0690944038
C   C28       1.0  0.31408  0.09332  0.19280  1.0000 -0.1556495414
C   C29       1.0  0.28547  0.02833  0.25089  1.0000 -0.0940517391
C   C30       1.0  0.35121  0.00959  0.30499  1.0000 -0.0191701565
C   C31       1.0  0.44388  0.05352  0.29900  1.0000 -0.0811342303
C   C32       1.0  0.47188  0.11772  0.24036  1.0000 -0.1423879115
C   C33       1.0  0.31828  0.94452  0.36886  1.0000 0.583201945
C   C34       1.0  0.34777  0.01963  0.51977  1.0000 0.5991523417
C   C35       1.0  0.35243  0.10817  0.52110  1.0000 -0.0287533089
C   C36       1.0  0.44061  0.18679  0.53195  1.0000 -0.0811342303
C   C37       1.0  0.44792  0.27088  0.53165  1.0000 -0.1988116222
C   C38       1.0  0.36722  0.27818  0.52008  1.0000 0.1769311281
C   C39       1.0  0.27865  0.19975  0.51027  1.0000 -0.1988116222
C   C40       1.0  0.27154  0.11526  0.50997  1.0000 -0.0811342303
C   C41       1.0  0.43320  0.41840  0.57009  1.0000 0.1370632054
C   C42       1.0  0.49543  0.40197  0.62802  1.0000 -0.2306568304
C   C43       1.0  0.54392  0.46468  0.67163  1.0000 0.0855819659
C   C44       1.0  0.52844  0.54236  0.65631  1.0000 -0.166082328
C   C45       1.0  0.46502  0.55698  0.59987  1.0000 -0.1267632878
C   C46       1.0  0.41656  0.49564  0.55522  1.0000 -0.0191701565
C   C47       1.0  0.34618  0.48862  0.49347  1.0000 -0.0191701565
C   C48       1.0  0.30241  0.54379  0.45354  1.0000 -0.1423879115
C   C49       1.0  0.23649  0.51711  0.39553  1.0000 -0.166082328
C   C50       1.0  0.21409  0.43751  0.37520  1.0000 0.0830189885
C   C51       1.0  0.25867  0.38293  0.41356  1.0000 -0.2306568304
C   C52       1.0  0.32261  0.40859  0.47310  1.0000 0.1291568084
C   C53       1.0  0.60899  0.44721  0.73563  1.0000 0.0690944038
C   C54       1.0  0.59462  0.35678  0.76789  1.0000 -0.1556495414
C   C55       1.0  0.65635  0.34105  0.82701  1.0000 -0.10052128
C   C56       1.0  0.73227  0.41653  0.85558  1.0000 -0.0287533089
C   C57       1.0  0.74523  0.50717  0.82487  1.0000 -0.10052128
C   C58       1.0  0.68434  0.52186  0.76501  1.0000 -0.1556495414
C   C59       1.0  0.80206  0.39954  0.91731  1.0000 0.5901947768
C   C60       1.0  0.14104  0.40756  0.31336  1.0000 0.0690944038
C   C61       1.0  0.09332  0.31408  0.30720  1.0000 -0.1556495414
C   C62       1.0  0.02833  0.28547  0.24911  1.0000 -0.0940517391
C   C63       1.0  0.00959  0.35121  0.19501  1.0000 -0.0191701565
C   C64       1.0  0.05352  0.44388  0.20100  1.0000 -0.0811342303
C   C65       1.0  0.11772  0.47188  0.25964  1.0000 -0.1423879115
C   C66       1.0  0.94452  0.31828  0.13114  1.0000 0.583201945
C   C67       1.0  0.98037  0.65223  0.01977  1.0000 0.5991523417
C   C68       1.0  0.89183  0.64757  0.02110  1.0000 -0.0287533089
C   C69       1.0  0.81321  0.55939  0.03195  1.0000 -0.0811342303
C   C70       1.0  0.72912  0.55208  0.03165  1.0000 -0.1988116222
C   C71       1.0  0.72182  0.63278  0.02008  1.0000 0.1769311281
C   C72       1.0  0.80025  0.72135  0.01027  1.0000 -0.1988116222
C   C73       1.0  0.88474  0.72846  0.00997  1.0000 -0.0811342303
C   C74       1.0  0.58160  0.56680  0.07009  1.0000 0.1370632054
C   C75       1.0  0.59803  0.50457  0.12802  1.0000 -0.2306568304
C   C76       1.0  0.53532  0.45608  0.17163  1.0000 0.0855819659
C   C77       1.0  0.45764  0.47156  0.15631  1.0000 -0.166082328
C   C78       1.0  0.44302  0.53498  0.09987  1.0000 -0.1267632878
C   C79       1.0  0.50436  0.58344  0.05522  1.0000 -0.0191701565
C   C80       1.0  0.51138  0.65382  0.99347  1.0000 -0.0191701565
C   C81       1.0  0.45621  0.69759  0.95354  1.0000 -0.1423879115
C   C82       1.0  0.48289  0.76351  0.89553  1.0000 -0.166082328
C   C83       1.0  0.56249  0.78591  0.87520  1.0000 0.0830189885
C   C84       1.0  0.61707  0.74133  0.91356  1.0000 -0.2306568304
C   C85       1.0  0.59141  0.67739  0.97310  1.0000 0.1291568084
C   C86       1.0  0.55279  0.39101  0.23563  1.0000 0.0690944038
C   C87       1.0  0.64322  0.40538  0.26789  1.0000 -0.1556495414
C   C88       1.0  0.65895  0.34365  0.32701  1.0000 -0.10052128
C   C89       1.0  0.58347  0.26773  0.35558  1.0000 -0.0287533089
C   C90       1.0  0.49283  0.25477  0.32487  1.0000 -0.10052128
C   C91       1.0  0.47814  0.31566  0.26501  1.0000 -0.1556495414
C   C92       1.0  0.60046  0.19794  0.41731  1.0000 0.5901947768
C   C93       1.0  0.59244  0.85896  0.81336  1.0000 0.0690944038
C   C94       1.0  0.68592  0.90668  0.80720  1.0000 -0.1556495414
C   C95       1.0  0.71453  0.97167  0.74911  1.0000 -0.0940517391
C   C96       1.0  0.64879  0.99041  0.69501  1.0000 -0.0191701565
C   C97       1.0  0.55612  0.94648  0.70100  1.0000 -0.0811342303
C   C98       1.0  0.52812  0.88228  0.75964  1.0000 -0.1423879115
C   C99       1.0  0.68172  0.05548  0.63114  1.0000 0.583201945
C   C100      1.0  0.65223  0.98037  0.48023  1.0000 0.5991523417
C   C101      1.0  0.64757  0.89183  0.47890  1.0000 -0.0287533089
C   C102      1.0  0.55939  0.81321  0.46805  1.0000 -0.0811342303
C   C103      1.0  0.55208  0.72912  0.46835  1.0000 -0.1988116222
C   C104      1.0  0.63278  0.72182  0.47992  1.0000 0.1769311281
C   C105      1.0  0.72135  0.80025  0.48973  1.0000 -0.1988116222
C   C106      1.0  0.72846  0.88474  0.49003  1.0000 -0.0811342303
C   C107      1.0  0.56680  0.58160  0.42991  1.0000 0.1370632054
C   C108      1.0  0.50457  0.59803  0.37198  1.0000 -0.2306568304
C   C109      1.0  0.45608  0.53532  0.32837  1.0000 0.0855819659
C   C110      1.0  0.47156  0.45764  0.34369  1.0000 -0.166082328
C   C111      1.0  0.53498  0.44302  0.40013  1.0000 -0.1267632878
C   C112      1.0  0.58344  0.50436  0.44478  1.0000 -0.0191701565
C   C113      1.0  0.65382  0.51138  0.50653  1.0000 -0.0191701565
C   C114      1.0  0.69759  0.45621  0.54646  1.0000 -0.1423879115
C   C115      1.0  0.76351  0.48289  0.60447  1.0000 -0.166082328
C   C116      1.0  0.78591  0.56249  0.62480  1.0000 0.0830189885
C   C117      1.0  0.74133  0.61707  0.58644  1.0000 -0.2306568304
C   C118      1.0  0.67739  0.59141  0.52690  1.0000 0.1291568084
C   C119      1.0  0.39101  0.55279  0.26437  1.0000 0.0690944038
C   C120      1.0  0.40538  0.64322  0.23211  1.0000 -0.1556495414
C   C121      1.0  0.34365  0.65895  0.17299  1.0000 -0.10052128
C   C122      1.0  0.26773  0.58347  0.14442  1.0000 -0.0287533089
C   C123      1.0  0.25477  0.49283  0.17513  1.0000 -0.10052128
C   C124      1.0  0.31566  0.47814  0.23499  1.0000 -0.1556495414
C   C125      1.0  0.19794  0.60046  0.08269  1.0000 0.5901947768
C   C126      1.0  0.85896  0.59244  0.68664  1.0000 0.0690944038
C   C127      1.0  0.90668  0.68592  0.69280  1.0000 -0.1556495414
C   C128      1.0  0.97167  0.71453  0.75089  1.0000 -0.0940517391
C   C129      1.0  0.99041  0.64879  0.80499  1.0000 -0.0191701565
C   C130      1.0  0.94648  0.55612  0.79900  1.0000 -0.0811342303
C   C131      1.0  0.88228  0.52812  0.74036  1.0000 -0.1423879115
C   C132      1.0  0.05548  0.68172  0.86886  1.0000 0.583201945
N   N1        1.0  0.36470  0.37530  0.98002  1.0000 -0.10052128
N   N2        1.0  0.37530  0.36470  0.51998  1.0000 -0.10052128
N   N3        1.0  0.63530  0.62470  0.01998  1.0000 -0.10052128
N   N4        1.0  0.62470  0.63530  0.48002  1.0000 -0.10052128
O   O1        1.0  0.01258  0.42166  0.95559  1.0000 -0.564230576
O   O2        1.0  0.95728  0.26948  0.00571  1.0000 -0.5697109176
O   O3        1.0  0.31645  0.78875  0.56202  1.0000 -0.5800716428
O   O4        1.0  0.47049  0.86719  0.55835  1.0000 -0.5697109176
O   O5        1.0  0.23152  0.89724  0.36849  1.0000 -0.5439457147
O   O6        1.0  0.37654  0.93674  0.42252  1.0000 -0.5954055934
O   O7        1.0  0.42166  0.01258  0.54441  1.0000 -0.564230576
O   O8        1.0  0.26948  0.95728  0.49429  1.0000 -0.5697109176
O   O9        1.0  0.78875  0.31645  0.93798  1.0000 -0.5800716428
O   O10       1.0  0.86719  0.47049  0.94165  1.0000 -0.5697109176
O   O11       1.0  0.89724  0.23152  0.13151  1.0000 -0.5439457147
O   O12       1.0  0.93674  0.37654  0.07748  1.0000 -0.5954055934
O   O13       1.0  0.98742  0.57834  0.04441  1.0000 -0.564230576
O   O14       1.0  0.04272  0.73052  0.99429  1.0000 -0.5697109176
O   O15       1.0  0.68355  0.21125  0.43798  1.0000 -0.5800716428
O   O16       1.0  0.52951  0.13281  0.44165  1.0000 -0.5697109176
O   O17       1.0  0.76848  0.10276  0.63151  1.0000 -0.5439457147
O   O18       1.0  0.62346  0.06326  0.57748  1.0000 -0.5954055934
O   O19       1.0  0.57834  0.98742  0.45559  1.0000 -0.564230576
O   O20       1.0  0.73052  0.04272  0.50571  1.0000 -0.5697109176
O   O21       1.0  0.21125  0.68355  0.06202  1.0000 -0.5800716428
O   O22       1.0  0.13281  0.52951  0.05835  1.0000 -0.5697109176
O   O23       1.0  0.10276  0.76848  0.86849  1.0000 -0.5439457147
O   O24       1.0  0.06326  0.62346  0.92252  1.0000 -0.5954055934
