# DDEC6 charges by PACMAN v1.1 (https://github.com/mtap-research/PACMAN-charge/)
data_2017[Cd][nan]2[ASR]3
_chemical_formula_sum              "Cd6 H120 C180 N24 O24"
_cell_length_a       18.4862
_cell_length_b       18.4862
_cell_length_c       18.4862
_cell_angle_alpha    105.674
_cell_angle_beta     105.674
_cell_angle_gamma    105.674

_symmetry_space_group_name_H-M    "P 1"
_symmetry_Int_Tables_number       1

loop_
  _symmetry_equiv_pos_as_xyz
  'x, y, z'

loop_
  _atom_site_type_symbol
  _atom_site_label
  _atom_site_symmetry_multiplicity
  _atom_site_fract_x
  _atom_site_fract_y
  _atom_site_fract_z
  _atom_site_occupancy
  _atom_site_charge
Cd  Cd1       1.0  0.42196  0.09240  0.76535  1.0000 0.8305509315
Cd  Cd2       1.0  0.09240  0.76535  0.42196  1.0000 0.8305509315
Cd  Cd3       1.0  0.76535  0.42196  0.09240  1.0000 0.8305509315
Cd  Cd4       1.0  0.57804  0.90760  0.23465  1.0000 0.8305509315
Cd  Cd5       1.0  0.90760  0.23465  0.57804  1.0000 0.8305509315
Cd  Cd6       1.0  0.23465  0.57804  0.90760  1.0000 0.8305509315
H   H1        1.0  0.66410  0.97290  0.46230  1.0000 0.2942564911
H   H2        1.0  0.12940  0.89070  0.63240  1.0000 0.2997369991
H   H3        1.0  0.72720  0.11210  0.49430  1.0000 0.1212569299
H   H4        1.0  0.76570  0.91450  0.50010  1.0000 0.1308111326
H   H5        1.0  0.88900  0.92710  0.60180  1.0000 0.1111864667
H   H6        1.0  0.01250  0.91740  0.64790  1.0000 0.1111864667
H   H7        1.0  0.11700  0.11990  0.61660  1.0000 0.1111864667
H   H8        1.0  0.99310  0.13030  0.57110  1.0000 0.1111864667
H   H9        1.0  0.24570  0.12250  0.71360  1.0000 0.1308111326
H   H10       1.0  0.26990  0.91450  0.68650  1.0000 0.1212569299
H   H11       1.0  0.42040  0.32300  0.69390  1.0000 0.1212569299
H   H12       1.0  0.41030  0.39710  0.61130  1.0000 0.1111864667
H   H13       1.0  0.43560  0.22820  0.44170  1.0000 0.1111864667
H   H14       1.0  0.43820  0.15140  0.52280  1.0000 0.1212569299
H   H15       1.0  0.34350  0.42090  0.50160  1.0000 0.1111864667
H   H16       1.0  0.64040  0.01320  0.74320  1.0000 0.1212569299
H   H17       1.0  0.71730  0.93220  0.73440  1.0000 0.1212569299
H   H18       1.0  0.54370  0.75540  0.74520  1.0000 0.1111864667
H   H19       1.0  0.46330  0.83420  0.74470  1.0000 0.1212569299
H   H20       1.0  0.73820  0.82170  0.66410  1.0000 0.1111864667
H   H21       1.0  0.97290  0.46230  0.66410  1.0000 0.2942564911
H   H22       1.0  0.89070  0.63240  0.12940  1.0000 0.2997369991
H   H23       1.0  0.11210  0.49430  0.72720  1.0000 0.1212569299
H   H24       1.0  0.91450  0.50010  0.76570  1.0000 0.1308111326
H   H25       1.0  0.92710  0.60180  0.88900  1.0000 0.1111864667
H   H26       1.0  0.91740  0.64790  0.01250  1.0000 0.1111864667
H   H27       1.0  0.11990  0.61660  0.11700  1.0000 0.1111864667
H   H28       1.0  0.13030  0.57110  0.99310  1.0000 0.1111864667
H   H29       1.0  0.12250  0.71360  0.24570  1.0000 0.1308111326
H   H30       1.0  0.91450  0.68650  0.26990  1.0000 0.1212569299
H   H31       1.0  0.32300  0.69390  0.42040  1.0000 0.1212569299
H   H32       1.0  0.39710  0.61130  0.41030  1.0000 0.1111864667
H   H33       1.0  0.22820  0.44170  0.43560  1.0000 0.1111864667
H   H34       1.0  0.15140  0.52280  0.43820  1.0000 0.1212569299
H   H35       1.0  0.42090  0.50160  0.34350  1.0000 0.1111864667
H   H36       1.0  0.01320  0.74320  0.64040  1.0000 0.1212569299
H   H37       1.0  0.93220  0.73440  0.71730  1.0000 0.1212569299
H   H38       1.0  0.75540  0.74520  0.54370  1.0000 0.1111864667
H   H39       1.0  0.83420  0.74470  0.46330  1.0000 0.1212569299
H   H40       1.0  0.82170  0.66410  0.73820  1.0000 0.1111864667
H   H41       1.0  0.46230  0.66410  0.97290  1.0000 0.2942564911
H   H42       1.0  0.63240  0.12940  0.89070  1.0000 0.2997369991
H   H43       1.0  0.49430  0.72720  0.11210  1.0000 0.1212569299
H   H44       1.0  0.50010  0.76570  0.91450  1.0000 0.1308111326
H   H45       1.0  0.60180  0.88900  0.92710  1.0000 0.1111864667
H   H46       1.0  0.64790  0.01250  0.91740  1.0000 0.1111864667
H   H47       1.0  0.61660  0.11700  0.11990  1.0000 0.1111864667
H   H48       1.0  0.57110  0.99310  0.13030  1.0000 0.1111864667
H   H49       1.0  0.71360  0.24570  0.12250  1.0000 0.1308111326
H   H50       1.0  0.68650  0.26990  0.91450  1.0000 0.1212569299
H   H51       1.0  0.69390  0.42040  0.32300  1.0000 0.1212569299
H   H52       1.0  0.61130  0.41030  0.39710  1.0000 0.1111864667
H   H53       1.0  0.44170  0.43560  0.22820  1.0000 0.1111864667
H   H54       1.0  0.52280  0.43820  0.15140  1.0000 0.1212569299
H   H55       1.0  0.50160  0.34350  0.42090  1.0000 0.1111864667
H   H56       1.0  0.74320  0.64040  0.01320  1.0000 0.1212569299
H   H57       1.0  0.73440  0.71730  0.93220  1.0000 0.1212569299
H   H58       1.0  0.74520  0.54370  0.75540  1.0000 0.1111864667
H   H59       1.0  0.74470  0.46330  0.83420  1.0000 0.1212569299
H   H60       1.0  0.66410  0.73820  0.82170  1.0000 0.1111864667
H   H61       1.0  0.33590  0.02710  0.53770  1.0000 0.2942564911
H   H62       1.0  0.87060  0.10930  0.36760  1.0000 0.2997369991
H   H63       1.0  0.27280  0.88790  0.50570  1.0000 0.1212569299
H   H64       1.0  0.23430  0.08550  0.49990  1.0000 0.1308111326
H   H65       1.0  0.11100  0.07290  0.39820  1.0000 0.1111864667
H   H66       1.0  0.98750  0.08260  0.35210  1.0000 0.1111864667
H   H67       1.0  0.88300  0.88010  0.38340  1.0000 0.1111864667
H   H68       1.0  0.00690  0.86970  0.42890  1.0000 0.1111864667
H   H69       1.0  0.75430  0.87750  0.28640  1.0000 0.1308111326
H   H70       1.0  0.73010  0.08550  0.31350  1.0000 0.1212569299
H   H71       1.0  0.57960  0.67700  0.30610  1.0000 0.1212569299
H   H72       1.0  0.58970  0.60290  0.38870  1.0000 0.1111864667
H   H73       1.0  0.56440  0.77180  0.55830  1.0000 0.1111864667
H   H74       1.0  0.56180  0.84860  0.47720  1.0000 0.1212569299
H   H75       1.0  0.65650  0.57910  0.49840  1.0000 0.1111864667
H   H76       1.0  0.35960  0.98680  0.25680  1.0000 0.1212569299
H   H77       1.0  0.28270  0.06780  0.26560  1.0000 0.1212569299
H   H78       1.0  0.45630  0.24460  0.25480  1.0000 0.1111864667
H   H79       1.0  0.53670  0.16580  0.25530  1.0000 0.1212569299
H   H80       1.0  0.26180  0.17830  0.33590  1.0000 0.1111864667
H   H81       1.0  0.02710  0.53770  0.33590  1.0000 0.2942564911
H   H82       1.0  0.10930  0.36760  0.87060  1.0000 0.2997369991
H   H83       1.0  0.88790  0.50570  0.27280  1.0000 0.1212569299
H   H84       1.0  0.08550  0.49990  0.23430  1.0000 0.1308111326
H   H85       1.0  0.07290  0.39820  0.11100  1.0000 0.1111864667
H   H86       1.0  0.08260  0.35210  0.98750  1.0000 0.1111864667
H   H87       1.0  0.88010  0.38340  0.88300  1.0000 0.1111864667
H   H88       1.0  0.86970  0.42890  0.00690  1.0000 0.1111864667
H   H89       1.0  0.87750  0.28640  0.75430  1.0000 0.1308111326
H   H90       1.0  0.08550  0.31350  0.73010  1.0000 0.1212569299
H   H91       1.0  0.67700  0.30610  0.57960  1.0000 0.1212569299
H   H92       1.0  0.60290  0.38870  0.58970  1.0000 0.1111864667
H   H93       1.0  0.77180  0.55830  0.56440  1.0000 0.1111864667
H   H94       1.0  0.84860  0.47720  0.56180  1.0000 0.1212569299
H   H95       1.0  0.57910  0.49840  0.65650  1.0000 0.1111864667
H   H96       1.0  0.98680  0.25680  0.35960  1.0000 0.1212569299
H   H97       1.0  0.06780  0.26560  0.28270  1.0000 0.1212569299
H   H98       1.0  0.24460  0.25480  0.45630  1.0000 0.1111864667
H   H99       1.0  0.16580  0.25530  0.53670  1.0000 0.1212569299
H   H100      1.0  0.17830  0.33590  0.26180  1.0000 0.1111864667
H   H101      1.0  0.53770  0.33590  0.02710  1.0000 0.2942564911
H   H102      1.0  0.36760  0.87060  0.10930  1.0000 0.2997369991
H   H103      1.0  0.50570  0.27280  0.88790  1.0000 0.1212569299
H   H104      1.0  0.49990  0.23430  0.08550  1.0000 0.1308111326
H   H105      1.0  0.39820  0.11100  0.07290  1.0000 0.1111864667
H   H106      1.0  0.35210  0.98750  0.08260  1.0000 0.1111864667
H   H107      1.0  0.38340  0.88300  0.88010  1.0000 0.1111864667
H   H108      1.0  0.42890  0.00690  0.86970  1.0000 0.1111864667
H   H109      1.0  0.28640  0.75430  0.87750  1.0000 0.1308111326
H   H110      1.0  0.31350  0.73010  0.08550  1.0000 0.1212569299
H   H111      1.0  0.30610  0.57960  0.67700  1.0000 0.1212569299
H   H112      1.0  0.38870  0.58970  0.60290  1.0000 0.1111864667
H   H113      1.0  0.55830  0.56440  0.77180  1.0000 0.1111864667
H   H114      1.0  0.47720  0.56180  0.84860  1.0000 0.1212569299
H   H115      1.0  0.49840  0.65650  0.57910  1.0000 0.1111864667
H   H116      1.0  0.25680  0.35960  0.98680  1.0000 0.1212569299
H   H117      1.0  0.26560  0.28270  0.06780  1.0000 0.1212569299
H   H118      1.0  0.25480  0.45630  0.24460  1.0000 0.1111864667
H   H119      1.0  0.25530  0.53670  0.16580  1.0000 0.1212569299
H   H120      1.0  0.33590  0.26180  0.17830  1.0000 0.1111864667
C   C1        1.0  0.75330  0.07770  0.50530  1.0000 0.1532003459
C   C2        1.0  0.77400  0.96860  0.50850  1.0000 -0.108396946
C   C3        1.0  0.84640  0.03190  0.54590  1.0000 0.1047846974
C   C4        1.0  0.92660  0.03010  0.58000  1.0000 0.0634430437
C   C5        1.0  0.93460  0.96600  0.60430  1.0000 -0.1399598187
C   C6        1.0  0.00860  0.95990  0.63150  1.0000 -0.1399598187
C   C7        1.0  0.07830  0.01680  0.63510  1.0000 0.0523966198
C   C8        1.0  0.07110  0.08050  0.61310  1.0000 -0.1323071642
C   C9        1.0  0.99640  0.08670  0.58590  1.0000 -0.1399598187
C   C10       1.0  0.15750  0.01020  0.66240  1.0000 0.1047846974
C   C11       1.0  0.23332  0.06712  0.69952  1.0000 -0.0997509247
C   C12       1.0  0.24720  0.95350  0.68520  1.0000 0.1532003459
C   C13       1.0  0.43490  0.18010  0.66870  1.0000 0.5448435174
C   C14       1.0  0.43060  0.22950  0.61610  1.0000 -0.0310358609
C   C15       1.0  0.42240  0.30350  0.64300  1.0000 -0.108396946
C   C16       1.0  0.41750  0.34840  0.59340  1.0000 -0.1491846664
C   C17       1.0  0.42280  0.32230  0.51820  1.0000 0.0634430437
C   C18       1.0  0.43160  0.24740  0.49190  1.0000 -0.1571173195
C   C19       1.0  0.43410  0.20150  0.54130  1.0000 -0.1196945035
C   C20       1.0  0.41940  0.37120  0.46610  1.0000 0.0862268584
C   C21       1.0  0.37300  0.41950  0.46810  1.0000 -0.2083140685
C   C22       1.0  0.49640  0.98450  0.75060  1.0000 0.5467730389
C   C23       1.0  0.54440  0.93020  0.74430  1.0000 -0.0310358609
C   C24       1.0  0.62050  0.96100  0.74240  1.0000 -0.1196945035
C   C25       1.0  0.66770  0.91290  0.73940  1.0000 -0.1571173195
C   C26       1.0  0.64130  0.83720  0.74370  1.0000 0.0697585197
C   C27       1.0  0.56370  0.80710  0.74460  1.0000 -0.1571173195
C   C28       1.0  0.51510  0.85460  0.74450  1.0000 -0.108396946
C   C29       1.0  0.69270  0.78820  0.74310  1.0000 0.0772528724
C   C30       1.0  0.73940  0.78960  0.69500  1.0000 -0.2044130488
C   C31       1.0  0.07770  0.50530  0.75330  1.0000 0.1532003459
C   C32       1.0  0.96860  0.50850  0.77400  1.0000 -0.108396946
C   C33       1.0  0.03190  0.54590  0.84640  1.0000 0.1047846974
C   C34       1.0  0.03010  0.58000  0.92660  1.0000 0.0634430437
C   C35       1.0  0.96600  0.60430  0.93460  1.0000 -0.1399598187
C   C36       1.0  0.95990  0.63150  0.00860  1.0000 -0.1399598187
C   C37       1.0  0.01680  0.63510  0.07830  1.0000 0.0523966198
C   C38       1.0  0.08050  0.61310  0.07110  1.0000 -0.1323071642
C   C39       1.0  0.08670  0.58590  0.99640  1.0000 -0.1399598187
C   C40       1.0  0.01020  0.66240  0.15750  1.0000 0.1047846974
C   C41       1.0  0.06712  0.69952  0.23332  1.0000 -0.0997509247
C   C42       1.0  0.95350  0.68520  0.24720  1.0000 0.1532003459
C   C43       1.0  0.18010  0.66870  0.43490  1.0000 0.5448435174
C   C44       1.0  0.22950  0.61610  0.43060  1.0000 -0.0310358609
C   C45       1.0  0.30350  0.64300  0.42240  1.0000 -0.108396946
C   C46       1.0  0.34840  0.59340  0.41750  1.0000 -0.1491846664
C   C47       1.0  0.32230  0.51820  0.42280  1.0000 0.0634430437
C   C48       1.0  0.24740  0.49190  0.43160  1.0000 -0.1571173195
C   C49       1.0  0.20150  0.54130  0.43410  1.0000 -0.1196945035
C   C50       1.0  0.37120  0.46610  0.41940  1.0000 0.0862268584
C   C51       1.0  0.41950  0.46810  0.37300  1.0000 -0.2083140685
C   C52       1.0  0.98450  0.75060  0.49640  1.0000 0.5467730389
C   C53       1.0  0.93020  0.74430  0.54440  1.0000 -0.0310358609
C   C54       1.0  0.96100  0.74240  0.62050  1.0000 -0.1196945035
C   C55       1.0  0.91290  0.73940  0.66770  1.0000 -0.1571173195
C   C56       1.0  0.83720  0.74370  0.64130  1.0000 0.0697585197
C   C57       1.0  0.80710  0.74460  0.56370  1.0000 -0.1571173195
C   C58       1.0  0.85460  0.74450  0.51510  1.0000 -0.108396946
C   C59       1.0  0.78820  0.74310  0.69270  1.0000 0.0772528724
C   C60       1.0  0.78960  0.69500  0.73940  1.0000 -0.2044130488
C   C61       1.0  0.50530  0.75330  0.07770  1.0000 0.1532003459
C   C62       1.0  0.50850  0.77400  0.96860  1.0000 -0.108396946
C   C63       1.0  0.54590  0.84640  0.03190  1.0000 0.1047846974
C   C64       1.0  0.58000  0.92660  0.03010  1.0000 0.0634430437
C   C65       1.0  0.60430  0.93460  0.96600  1.0000 -0.1399598187
C   C66       1.0  0.63150  0.00860  0.95990  1.0000 -0.1399598187
C   C67       1.0  0.63510  0.07830  0.01680  1.0000 0.0523966198
C   C68       1.0  0.61310  0.07110  0.08050  1.0000 -0.1323071642
C   C69       1.0  0.58590  0.99640  0.08670  1.0000 -0.1399598187
C   C70       1.0  0.66240  0.15750  0.01020  1.0000 0.1111864667
C   C71       1.0  0.69952  0.23332  0.06712  1.0000 -0.0997509247
C   C72       1.0  0.68520  0.24720  0.95350  1.0000 0.1532003459
C   C73       1.0  0.66870  0.43490  0.18010  1.0000 0.5448435174
C   C74       1.0  0.61610  0.43060  0.22950  1.0000 -0.0310358609
C   C75       1.0  0.64300  0.42240  0.30350  1.0000 -0.108396946
C   C76       1.0  0.59340  0.41750  0.34840  1.0000 -0.1491846664
C   C77       1.0  0.51820  0.42280  0.32230  1.0000 0.0634430437
C   C78       1.0  0.49190  0.43160  0.24740  1.0000 -0.1571173195
C   C79       1.0  0.54130  0.43410  0.20150  1.0000 -0.1196945035
C   C80       1.0  0.46610  0.41940  0.37120  1.0000 0.0862268584
C   C81       1.0  0.46810  0.37300  0.41950  1.0000 -0.2083140685
C   C82       1.0  0.75060  0.49640  0.98450  1.0000 0.5467730389
C   C83       1.0  0.74430  0.54440  0.93020  1.0000 -0.0310358609
C   C84       1.0  0.74240  0.62050  0.96100  1.0000 -0.1196945035
C   C85       1.0  0.73940  0.66770  0.91290  1.0000 -0.1571173195
C   C86       1.0  0.74370  0.64130  0.83720  1.0000 0.0697585197
C   C87       1.0  0.74460  0.56370  0.80710  1.0000 -0.1571173195
C   C88       1.0  0.74450  0.51510  0.85460  1.0000 -0.108396946
C   C89       1.0  0.74310  0.69270  0.78820  1.0000 0.0772528724
C   C90       1.0  0.69500  0.73940  0.78960  1.0000 -0.2044130488
C   C91       1.0  0.24670  0.92230  0.49470  1.0000 0.1532003459
C   C92       1.0  0.22600  0.03140  0.49150  1.0000 -0.108396946
C   C93       1.0  0.15360  0.96810  0.45410  1.0000 0.1047846974
C   C94       1.0  0.07340  0.96990  0.42000  1.0000 0.0634430437
C   C95       1.0  0.06540  0.03400  0.39570  1.0000 -0.1399598187
C   C96       1.0  0.99140  0.04010  0.36850  1.0000 -0.1399598187
C   C97       1.0  0.92170  0.98320  0.36490  1.0000 0.0523966198
C   C98       1.0  0.92890  0.91950  0.38690  1.0000 -0.1323071642
C   C99       1.0  0.00360  0.91330  0.41410  1.0000 -0.1399598187
C   C100      1.0  0.84250  0.98980  0.33760  1.0000 0.1047846974
C   C101      1.0  0.76668  0.93288  0.30048  1.0000 -0.0997509247
C   C102      1.0  0.75280  0.04650  0.31480  1.0000 0.1532003459
C   C103      1.0  0.56510  0.81990  0.33130  1.0000 0.5448435174
C   C104      1.0  0.56940  0.77050  0.38390  1.0000 -0.0310358609
C   C105      1.0  0.57760  0.69650  0.35700  1.0000 -0.108396946
C   C106      1.0  0.58250  0.65160  0.40660  1.0000 -0.1491846664
C   C107      1.0  0.57720  0.67770  0.48180  1.0000 0.0634430437
C   C108      1.0  0.56840  0.75260  0.50810  1.0000 -0.1571173195
C   C109      1.0  0.56590  0.79850  0.45870  1.0000 -0.1196945035
C   C110      1.0  0.58060  0.62880  0.53390  1.0000 0.0862268584
C   C111      1.0  0.62700  0.58050  0.53190  1.0000 -0.2083140685
C   C112      1.0  0.50360  0.01550  0.24940  1.0000 0.5467730389
C   C113      1.0  0.45560  0.06980  0.25570  1.0000 -0.0310358609
C   C114      1.0  0.37950  0.03900  0.25760  1.0000 -0.1196945035
C   C115      1.0  0.33230  0.08710  0.26060  1.0000 -0.1571173195
C   C116      1.0  0.35870  0.16280  0.25630  1.0000 0.0697585197
C   C117      1.0  0.43630  0.19290  0.25540  1.0000 -0.1571173195
C   C118      1.0  0.48490  0.14540  0.25550  1.0000 -0.108396946
C   C119      1.0  0.30730  0.21180  0.25690  1.0000 0.0772528724
C   C120      1.0  0.26060  0.21040  0.30500  1.0000 -0.2044130488
C   C121      1.0  0.92230  0.49470  0.24670  1.0000 0.1532003459
C   C122      1.0  0.03140  0.49150  0.22600  1.0000 -0.108396946
C   C123      1.0  0.96810  0.45410  0.15360  1.0000 0.1047846974
C   C124      1.0  0.96990  0.42000  0.07340  1.0000 0.0634430437
C   C125      1.0  0.03400  0.39570  0.06540  1.0000 -0.1399598187
C   C126      1.0  0.04010  0.36850  0.99140  1.0000 -0.1399598187
C   C127      1.0  0.98320  0.36490  0.92170  1.0000 0.0523966198
C   C128      1.0  0.91950  0.38690  0.92890  1.0000 -0.1323071642
C   C129      1.0  0.91330  0.41410  0.00360  1.0000 -0.1399598187
C   C130      1.0  0.98980  0.33760  0.84250  1.0000 0.1047846974
C   C131      1.0  0.93288  0.30048  0.76668  1.0000 -0.0997509247
C   C132      1.0  0.04650  0.31480  0.75280  1.0000 0.1532003459
C   C133      1.0  0.81990  0.33130  0.56510  1.0000 0.5448435174
C   C134      1.0  0.77050  0.38390  0.56940  1.0000 -0.0310358609
C   C135      1.0  0.69650  0.35700  0.57760  1.0000 -0.108396946
C   C136      1.0  0.65160  0.40660  0.58250  1.0000 -0.1491846664
C   C137      1.0  0.67770  0.48180  0.57720  1.0000 0.0634430437
C   C138      1.0  0.75260  0.50810  0.56840  1.0000 -0.1571173195
C   C139      1.0  0.79850  0.45870  0.56590  1.0000 -0.1196945035
C   C140      1.0  0.62880  0.53390  0.58060  1.0000 0.0862268584
C   C141      1.0  0.58050  0.53190  0.62700  1.0000 -0.2083140685
C   C142      1.0  0.01550  0.24940  0.50360  1.0000 0.5467730389
C   C143      1.0  0.06980  0.25570  0.45560  1.0000 -0.0310358609
C   C144      1.0  0.03900  0.25760  0.37950  1.0000 -0.1196945035
C   C145      1.0  0.08710  0.26060  0.33230  1.0000 -0.1571173195
C   C146      1.0  0.16280  0.25630  0.35870  1.0000 0.0697585197
C   C147      1.0  0.19290  0.25540  0.43630  1.0000 -0.1571173195
C   C148      1.0  0.14540  0.25550  0.48490  1.0000 -0.108396946
C   C149      1.0  0.21180  0.25690  0.30730  1.0000 0.0772528724
C   C150      1.0  0.21040  0.30500  0.26060  1.0000 -0.2044130488
C   C151      1.0  0.49470  0.24670  0.92230  1.0000 0.1532003459
C   C152      1.0  0.49150  0.22600  0.03140  1.0000 -0.108396946
C   C153      1.0  0.45410  0.15360  0.96810  1.0000 0.1047846974
C   C154      1.0  0.42000  0.07340  0.96990  1.0000 0.0634430437
C   C155      1.0  0.39570  0.06540  0.03400  1.0000 -0.1399598187
C   C156      1.0  0.36850  0.99140  0.04010  1.0000 -0.1399598187
C   C157      1.0  0.36490  0.92170  0.98320  1.0000 0.0523966198
C   C158      1.0  0.38690  0.92890  0.91950  1.0000 -0.1323071642
C   C159      1.0  0.41410  0.00360  0.91330  1.0000 -0.1399598187
C   C160      1.0  0.33760  0.84250  0.98980  1.0000 0.1047846974
C   C161      1.0  0.30048  0.76668  0.93288  1.0000 -0.0997509247
C   C162      1.0  0.31480  0.75280  0.04650  1.0000 0.1532003459
C   C163      1.0  0.33130  0.56510  0.81990  1.0000 0.5448435174
C   C164      1.0  0.38390  0.56940  0.77050  1.0000 -0.0310358609
C   C165      1.0  0.35700  0.57760  0.69650  1.0000 -0.108396946
C   C166      1.0  0.40660  0.58250  0.65160  1.0000 -0.1491846664
C   C167      1.0  0.48180  0.57720  0.67770  1.0000 0.0634430437
C   C168      1.0  0.50810  0.56840  0.75260  1.0000 -0.1571173195
C   C169      1.0  0.45870  0.56590  0.79850  1.0000 -0.1196945035
C   C170      1.0  0.53390  0.58060  0.62880  1.0000 0.0862268584
C   C171      1.0  0.53190  0.62700  0.58050  1.0000 -0.2083140685
C   C172      1.0  0.24940  0.50360  0.01550  1.0000 0.5467730389
C   C173      1.0  0.25570  0.45560  0.06980  1.0000 -0.0310358609
C   C174      1.0  0.25760  0.37950  0.03900  1.0000 -0.1196945035
C   C175      1.0  0.26060  0.33230  0.08710  1.0000 -0.1571173195
C   C176      1.0  0.25630  0.35870  0.16280  1.0000 0.0697585197
C   C177      1.0  0.25540  0.43630  0.19290  1.0000 -0.1571173195
C   C178      1.0  0.25550  0.48490  0.14540  1.0000 -0.108396946
C   C179      1.0  0.25690  0.30730  0.21180  1.0000 0.0772528724
C   C180      1.0  0.30500  0.26060  0.21040  1.0000 -0.2044130488
N   N1        1.0  0.83240  0.10210  0.54250  1.0000 -0.3654244615
N   N2        1.0  0.71540  0.99940  0.48530  1.0000 -0.182244174
N   N3        1.0  0.16730  0.93780  0.65390  1.0000 -0.2340432628
N   N4        1.0  0.28860  0.03170  0.71350  1.0000 -0.2971422149
N   N5        1.0  0.10210  0.54250  0.83240  1.0000 -0.3654244615
N   N6        1.0  0.99940  0.48530  0.71540  1.0000 -0.182244174
N   N7        1.0  0.93780  0.65390  0.16730  1.0000 -0.2340432628
N   N8        1.0  0.03170  0.71350  0.28860  1.0000 -0.2971422149
N   N9        1.0  0.54250  0.83240  0.10210  1.0000 -0.3654244615
N   N10       1.0  0.48530  0.71540  0.99940  1.0000 -0.182244174
N   N11       1.0  0.65390  0.16730  0.93780  1.0000 -0.2340432628
N   N12       1.0  0.71350  0.28860  0.03170  1.0000 -0.2971422149
N   N13       1.0  0.16760  0.89790  0.45750  1.0000 -0.3654244615
N   N14       1.0  0.28460  0.00060  0.51470  1.0000 -0.182244174
N   N15       1.0  0.83270  0.06220  0.34610  1.0000 -0.2340432628
N   N16       1.0  0.71140  0.96830  0.28650  1.0000 -0.2971422149
N   N17       1.0  0.89790  0.45750  0.16760  1.0000 -0.3654244615
N   N18       1.0  0.00060  0.51470  0.28460  1.0000 -0.182244174
N   N19       1.0  0.06220  0.34610  0.83270  1.0000 -0.2340432628
N   N20       1.0  0.96830  0.28650  0.71140  1.0000 -0.2971422149
N   N21       1.0  0.45750  0.16760  0.89790  1.0000 -0.3654244615
N   N22       1.0  0.51470  0.28460  0.00060  1.0000 -0.182244174
N   N23       1.0  0.34610  0.83270  0.06220  1.0000 -0.2340432628
N   N24       1.0  0.28650  0.71140  0.96830  1.0000 -0.2971422149
O   O1        1.0  0.44540  0.21250  0.74070  1.0000 -0.5308268292
O   O2        1.0  0.42570  0.10860  0.64020  1.0000 -0.5308268292
O   O3        1.0  0.53500  0.06050  0.78420  1.0000 -0.5670665874
O   O4        1.0  0.42150  0.95310  0.72280  1.0000 -0.537390746
O   O5        1.0  0.21250  0.74070  0.44540  1.0000 -0.5308268292
O   O6        1.0  0.10860  0.64020  0.42570  1.0000 -0.5308268292
O   O7        1.0  0.06050  0.78420  0.53500  1.0000 -0.5670665874
O   O8        1.0  0.95310  0.72280  0.42150  1.0000 -0.537390746
O   O9        1.0  0.74070  0.44540  0.21250  1.0000 -0.5308268292
O   O10       1.0  0.64020  0.42570  0.10860  1.0000 -0.5308268292
O   O11       1.0  0.78420  0.53500  0.06050  1.0000 -0.5670665874
O   O12       1.0  0.72280  0.42150  0.95310  1.0000 -0.537390746
O   O13       1.0  0.55460  0.78750  0.25930  1.0000 -0.5308268292
O   O14       1.0  0.57430  0.89140  0.35980  1.0000 -0.5308268292
O   O15       1.0  0.46500  0.93950  0.21580  1.0000 -0.5670665874
O   O16       1.0  0.57850  0.04690  0.27720  1.0000 -0.537390746
O   O17       1.0  0.78750  0.25930  0.55460  1.0000 -0.5308268292
O   O18       1.0  0.89140  0.35980  0.57430  1.0000 -0.5308268292
O   O19       1.0  0.93950  0.21580  0.46500  1.0000 -0.5670665874
O   O20       1.0  0.04690  0.27720  0.57850  1.0000 -0.537390746
O   O21       1.0  0.25930  0.55460  0.78750  1.0000 -0.5308268292
O   O22       1.0  0.35980  0.57430  0.89140  1.0000 -0.5308268292
O   O23       1.0  0.21580  0.46500  0.93950  1.0000 -0.5670665874
O   O24       1.0  0.27720  0.57850  0.04690  1.0000 -0.537390746
