# DDEC6 charges by PACMAN v1.1 (https://github.com/mtap-research/PACMAN-charge/)
data_2017[CdSi][nan]3[ASR]2
_chemical_formula_sum              "Cd12 Si4 H48 C100 O48"
_cell_length_a       10.406
_cell_length_b       27.2442
_cell_length_c       14.9314
_cell_angle_alpha    90
_cell_angle_beta     120.501
_cell_angle_gamma    90

_symmetry_space_group_name_H-M    "P 1"
_symmetry_Int_Tables_number       1

loop_
  _symmetry_equiv_pos_as_xyz
  'x, y, z'

loop_
  _atom_site_type_symbol
  _atom_site_label
  _atom_site_symmetry_multiplicity
  _atom_site_fract_x
  _atom_site_fract_y
  _atom_site_fract_z
  _atom_site_occupancy
  _atom_site_charge
Cd  Cd1       1.0  0.64639  0.07005  0.61975  1.0000 1.0284270544
Cd  Cd2       1.0  0.35361  0.57005  0.88025  1.0000 1.0284270544
Cd  Cd3       1.0  0.35361  0.92995  0.38025  1.0000 1.0284270544
Cd  Cd4       1.0  0.64639  0.42995  0.11975  1.0000 1.0284270544
Cd  Cd5       1.0  0.46749  0.88271  0.19760  1.0000 1.0284270544
Cd  Cd6       1.0  0.53251  0.38271  0.30240  1.0000 1.0284270544
Cd  Cd7       1.0  0.53251  0.11729  0.80240  1.0000 1.0284270544
Cd  Cd8       1.0  0.46749  0.61729  0.69760  1.0000 1.0284270544
Cd  Cd9       1.0  0.06965  0.18832  0.84080  1.0000 1.0207949181
Cd  Cd10      1.0  0.93035  0.68832  0.65920  1.0000 1.0207949181
Cd  Cd11      1.0  0.93035  0.81168  0.15920  1.0000 1.0207949181
Cd  Cd12      1.0  0.06965  0.31168  0.34080  1.0000 1.0207949181
Si  Si1       1.0  0.83634  0.04853  0.18566  1.0000 0.764805903
Si  Si2       1.0  0.16366  0.54853  0.31434  1.0000 0.764805903
Si  Si3       1.0  0.16366  0.95147  0.81434  1.0000 0.7652882238
Si  Si4       1.0  0.83634  0.45147  0.68566  1.0000 0.764805903
H   H1        1.0  0.64170  0.99960  0.05910  1.0000 0.1726795
H   H2        1.0  0.35830  0.49960  0.44090  1.0000 0.1726795
H   H3        1.0  0.35830  0.00040  0.94090  1.0000 0.1726795
H   H4        1.0  0.64170  0.50040  0.55910  1.0000 0.1726795
H   H5        1.0  0.75350  0.96640  0.15210  1.0000 0.185368364
H   H6        1.0  0.24650  0.46640  0.34790  1.0000 0.185368364
H   H7        1.0  0.24650  0.03360  0.84790  1.0000 0.185368364
H   H8        1.0  0.75350  0.53360  0.65210  1.0000 0.185368364
H   H9        1.0  0.63650  0.99860  0.16220  1.0000 0.1726795
H   H10       1.0  0.36350  0.49860  0.33780  1.0000 0.1726795
H   H11       1.0  0.36350  0.00140  0.83780  1.0000 0.1726795
H   H12       1.0  0.63650  0.50140  0.66220  1.0000 0.1726795
H   H13       1.0  0.91770  0.14660  0.26210  1.0000 0.1192287628
H   H14       1.0  0.08230  0.64660  0.23790  1.0000 0.1192287628
H   H15       1.0  0.08230  0.85340  0.73790  1.0000 0.1192287628
H   H16       1.0  0.91770  0.35340  0.76210  1.0000 0.1192287628
H   H17       1.0  0.59210  0.23740  0.06690  1.0000 0.1292287719
H   H18       1.0  0.40790  0.73740  0.43310  1.0000 0.1292287719
H   H19       1.0  0.40790  0.76260  0.93310  1.0000 0.1292287719
H   H20       1.0  0.59210  0.26260  0.56690  1.0000 0.1292287719
H   H21       1.0  0.55420  0.09220  0.01430  1.0000 0.1292287719
H   H22       1.0  0.44580  0.59220  0.48570  1.0000 0.1292287719
H   H23       1.0  0.44580  0.90780  0.98570  1.0000 0.1292287719
H   H24       1.0  0.55420  0.40780  0.51430  1.0000 0.1292287719
H   H25       1.0  0.92650  0.11050  0.06680  1.0000 0.1141318262
H   H26       1.0  0.07350  0.61050  0.43320  1.0000 0.1141318262
H   H27       1.0  0.07350  0.88950  0.93320  1.0000 0.1141318262
H   H28       1.0  0.92650  0.38950  0.56680  1.0000 0.1141318262
H   H29       1.0  0.23860  0.03700  0.03990  1.0000 0.1292287719
H   H30       1.0  0.76140  0.53700  0.46010  1.0000 0.1292287719
H   H31       1.0  0.76140  0.96300  0.96010  1.0000 0.1292287719
H   H32       1.0  0.23860  0.46300  0.53990  1.0000 0.1292287719
H   H33       1.0  0.06640  0.97890  0.20360  1.0000 0.1292287719
H   H34       1.0  0.93360  0.47890  0.29640  1.0000 0.1292287719
H   H35       1.0  0.93360  0.02110  0.79640  1.0000 0.1292287719
H   H36       1.0  0.06640  0.52110  0.70360  1.0000 0.1292287719
H   H37       1.0  0.14700  0.05790  0.36330  1.0000 0.1192287628
H   H38       1.0  0.85300  0.55790  0.13670  1.0000 0.1192287628
H   H39       1.0  0.85300  0.94210  0.63670  1.0000 0.1192287628
H   H40       1.0  0.14700  0.44210  0.86330  1.0000 0.1192287628
H   H41       1.0  0.11340  0.06700  0.61850  1.0000 0.1292287719
H   H42       1.0  0.88660  0.56700  0.88150  1.0000 0.1292287719
H   H43       1.0  0.88660  0.93300  0.38150  1.0000 0.1292287719
H   H44       1.0  0.11340  0.43300  0.11850  1.0000 0.1292287719
H   H45       1.0  0.74660  0.04650  0.33990  1.0000 0.1292287719
H   H46       1.0  0.25340  0.54650  0.16010  1.0000 0.1292287719
H   H47       1.0  0.25340  0.95350  0.66010  1.0000 0.1292287719
H   H48       1.0  0.74660  0.45350  0.83990  1.0000 0.1292287719
C   C1        1.0  0.70060  0.99708  0.13350  1.0000 -0.7341042857
C   C2        1.0  0.29940  0.49708  0.36650  1.0000 -0.7341042857
C   C3        1.0  0.29940  0.00292  0.86650  1.0000 -0.7341042857
C   C4        1.0  0.70060  0.50292  0.63350  1.0000 -0.7360028128
C   C5        1.0  0.74540  0.11004  0.14470  1.0000 -0.1827370512
C   C6        1.0  0.25460  0.61004  0.35530  1.0000 -0.1827370512
C   C7        1.0  0.25460  0.88996  0.85530  1.0000 -0.1827370512
C   C8        1.0  0.74540  0.38996  0.64470  1.0000 -0.1827370512
C   C9        1.0  0.82530  0.15127  0.20240  1.0000 -0.0983138827
C   C10       1.0  0.17470  0.65127  0.29760  1.0000 -0.0983138827
C   C11       1.0  0.17470  0.84873  0.79760  1.0000 -0.0983138827
C   C12       1.0  0.82530  0.34873  0.70240  1.0000 -0.0983138827
C   C13       1.0  0.77130  0.19876  0.17360  1.0000 -0.0107653816
C   C14       1.0  0.22870  0.69876  0.32640  1.0000 -0.0107653816
C   C15       1.0  0.22870  0.80124  0.82640  1.0000 -0.0107653816
C   C16       1.0  0.77130  0.30124  0.67360  1.0000 -0.0107653816
C   C17       1.0  0.63130  0.20595  0.08560  1.0000 -0.0828674051
C   C18       1.0  0.36870  0.70595  0.41440  1.0000 -0.0828674051
C   C19       1.0  0.36870  0.79405  0.91440  1.0000 -0.0828674051
C   C20       1.0  0.63130  0.29405  0.58560  1.0000 -0.0828674051
C   C21       1.0  0.55040  0.16583  0.02590  1.0000 -0.0384625597
C   C22       1.0  0.44960  0.66583  0.47410  1.0000 -0.0384625597
C   C23       1.0  0.44960  0.83417  0.97410  1.0000 -0.0384625597
C   C24       1.0  0.55040  0.33417  0.52590  1.0000 -0.0384625597
C   C25       1.0  0.60860  0.11871  0.05550  1.0000 -0.1146785046
C   C26       1.0  0.39140  0.61871  0.44450  1.0000 -0.1146785046
C   C27       1.0  0.39140  0.88129  0.94450  1.0000 -0.1146785046
C   C28       1.0  0.60860  0.38129  0.55550  1.0000 -0.1146785046
C   C29       1.0  0.40380  0.17231  0.92690  1.0000 0.593490911
C   C30       1.0  0.59620  0.67231  0.57310  1.0000 0.593490911
C   C31       1.0  0.59620  0.82769  0.07310  1.0000 0.593490911
C   C32       1.0  0.40380  0.32769  0.42690  1.0000 0.593490911
C   C33       1.0  0.86840  0.24054  0.23670  1.0000 0.5313833256
C   C34       1.0  0.13160  0.74054  0.26330  1.0000 0.5313833256
C   C35       1.0  0.13160  0.75946  0.76330  1.0000 0.5313833256
C   C36       1.0  0.86840  0.25946  0.73670  1.0000 0.5313833256
C   C37       1.0  0.97640  0.04512  0.14170  1.0000 -0.1865738395
C   C38       1.0  0.02360  0.54512  0.35830  1.0000 -0.1865738395
C   C39       1.0  0.02360  0.95488  0.85830  1.0000 -0.1865738395
C   C40       1.0  0.97640  0.45488  0.64170  1.0000 -0.1865738395
C   C41       1.0  0.98560  0.08272  0.08100  1.0000 -0.0892582431
C   C42       1.0  0.01440  0.58272  0.41900  1.0000 -0.0892582431
C   C43       1.0  0.01440  0.91728  0.91900  1.0000 -0.0892582431
C   C44       1.0  0.98560  0.41728  0.58100  1.0000 -0.0892582431
C   C45       1.0  0.08070  0.07936  0.04170  1.0000 -0.016956737
C   C46       1.0  0.91930  0.57936  0.45830  1.0000 -0.016956737
C   C47       1.0  0.91930  0.92064  0.95830  1.0000 -0.016956737
C   C48       1.0  0.08070  0.42064  0.54170  1.0000 -0.016956737
C   C49       1.0  0.17370  0.03902  0.06540  1.0000 -0.0892582431
C   C50       1.0  0.82630  0.53902  0.43460  1.0000 -0.0892582431
C   C51       1.0  0.82630  0.96098  0.93460  1.0000 -0.0892582431
C   C52       1.0  0.17370  0.46098  0.56540  1.0000 -0.0892582431
C   C53       1.0  0.16960  0.00161  0.12700  1.0000 -0.0328087109
C   C54       1.0  0.83040  0.50161  0.37300  1.0000 -0.0384625597
C   C55       1.0  0.83040  0.99839  0.87300  1.0000 -0.0384625597
C   C56       1.0  0.16960  0.49839  0.62700  1.0000 -0.0384625597
C   C57       1.0  0.07040  0.00445  0.16380  1.0000 -0.0892582431
C   C58       1.0  0.92960  0.50445  0.33620  1.0000 -0.0892582431
C   C59       1.0  0.92960  0.99555  0.83620  1.0000 -0.0892582431
C   C60       1.0  0.07040  0.49555  0.66380  1.0000 -0.0892582431
C   C61       1.0  0.07900  0.11780  0.96950  1.0000 0.53943978
C   C62       1.0  0.92100  0.61780  0.53050  1.0000 0.53943978
C   C63       1.0  0.92100  0.88220  0.03050  1.0000 0.53943978
C   C64       1.0  0.07900  0.38220  0.46950  1.0000 0.53943978
C   C65       1.0  0.27020  0.95823  0.15150  1.0000 0.559438159
C   C66       1.0  0.72980  0.45823  0.34850  1.0000 0.559438159
C   C67       1.0  0.72980  0.04177  0.84850  1.0000 0.559438159
C   C68       1.0  0.27020  0.54177  0.65150  1.0000 0.559438159
C   C69       1.0  0.93420  0.05079  0.33100  1.0000 -0.1969517271
C   C70       1.0  0.06580  0.55079  0.16900  1.0000 -0.1969517271
C   C71       1.0  0.06580  0.94921  0.66900  1.0000 -0.1969517271
C   C72       1.0  0.93420  0.44921  0.83100  1.0000 -0.1969517271
C   C73       1.0  0.08820  0.05741  0.39380  1.0000 -0.0983138827
C   C74       1.0  0.91180  0.55741  0.10620  1.0000 -0.0983138827
C   C75       1.0  0.91180  0.94259  0.60620  1.0000 -0.0983138827
C   C76       1.0  0.08820  0.44259  0.89380  1.0000 -0.0983138827
C   C77       1.0  0.15550  0.06324  0.50040  1.0000 -0.0328087109
C   C78       1.0  0.84450  0.56324  0.99960  1.0000 -0.0328087109
C   C79       1.0  0.84450  0.93676  0.49960  1.0000 -0.0328087109
C   C80       1.0  0.15550  0.43676  0.00040  1.0000 -0.0328087109
C   C81       1.0  0.06860  0.06346  0.54680  1.0000 -0.0828674051
C   C82       1.0  0.93140  0.56346  0.95320  1.0000 -0.0828674051
C   C83       1.0  0.93140  0.93654  0.45320  1.0000 -0.0828674051
C   C84       1.0  0.06860  0.43654  0.04680  1.0000 -0.0828674051
C   C85       1.0  0.91540  0.05846  0.48610  1.0000 -0.0107653816
C   C86       1.0  0.08460  0.55846  0.01390  1.0000 -0.0107653816
C   C87       1.0  0.08460  0.94154  0.51390  1.0000 -0.0107653816
C   C88       1.0  0.91540  0.44154  0.98610  1.0000 -0.0107653816
C   C89       1.0  0.84910  0.05117  0.37960  1.0000 -0.0892582431
C   C90       1.0  0.15090  0.55117  0.12040  1.0000 -0.0892582431
C   C91       1.0  0.15090  0.94883  0.62040  1.0000 -0.0892582431
C   C92       1.0  0.84910  0.44883  0.87960  1.0000 -0.0892582431
C   C93       1.0  0.32130  0.06909  0.56820  1.0000 0.593490911
C   C94       1.0  0.67870  0.56909  0.93180  1.0000 0.593490911
C   C95       1.0  0.67870  0.93091  0.43180  1.0000 0.593490911
C   C96       1.0  0.32130  0.43091  0.06820  1.0000 0.593490911
C   C97       1.0  0.82070  0.06106  0.53530  1.0000 0.53943978
C   C98       1.0  0.17930  0.56106  0.96470  1.0000 0.53943978
C   C99       1.0  0.17930  0.93894  0.46470  1.0000 0.53943978
C   C100      1.0  0.82070  0.43894  0.03530  1.0000 0.53943978
O   O1        1.0  0.99040  0.23202  0.31730  1.0000 -0.5209559153
O   O2        1.0  0.00960  0.73202  0.18270  1.0000 -0.5209559153
O   O3        1.0  0.00960  0.76798  0.68270  1.0000 -0.5209559153
O   O4        1.0  0.99040  0.26798  0.81730  1.0000 -0.5209559153
O   O5        1.0  0.83060  0.28386  0.20710  1.0000 -0.529148827
O   O6        1.0  0.16940  0.78386  0.29290  1.0000 -0.529148827
O   O7        1.0  0.16940  0.71614  0.79290  1.0000 -0.529148827
O   O8        1.0  0.83060  0.21614  0.70710  1.0000 -0.529148827
O   O9        1.0  0.31570  0.20450  0.92540  1.0000 -0.529148827
O   O10       1.0  0.68430  0.70450  0.57460  1.0000 -0.529148827
O   O11       1.0  0.68430  0.79550  0.07460  1.0000 -0.529148827
O   O12       1.0  0.31570  0.29550  0.42540  1.0000 -0.529148827
O   O13       1.0  0.37490  0.14437  0.85120  1.0000 -0.5703044559
O   O14       1.0  0.62510  0.64437  0.64880  1.0000 -0.5703044559
O   O15       1.0  0.62510  0.85563  0.14880  1.0000 -0.5703044559
O   O16       1.0  0.37490  0.35563  0.35120  1.0000 -0.5703044559
O   O17       1.0  0.00490  0.15710  0.95500  1.0000 -0.5488029297
O   O18       1.0  0.99510  0.65710  0.54500  1.0000 -0.5488029297
O   O19       1.0  0.99510  0.84290  0.04500  1.0000 -0.5488029297
O   O20       1.0  0.00490  0.34290  0.45500  1.0000 -0.5488029297
O   O21       1.0  0.14800  0.11033  0.92310  1.0000 -0.5209559153
O   O22       1.0  0.85200  0.61033  0.57690  1.0000 -0.5209559153
O   O23       1.0  0.85200  0.88967  0.07690  1.0000 -0.5209559153
O   O24       1.0  0.14800  0.38967  0.42310  1.0000 -0.5209559153
O   O25       1.0  0.35080  0.95432  0.11180  1.0000 -0.5090507369
O   O26       1.0  0.64920  0.45432  0.38820  1.0000 -0.5090507369
O   O27       1.0  0.64920  0.04568  0.88820  1.0000 -0.5090507369
O   O28       1.0  0.35080  0.54568  0.61180  1.0000 -0.5090507369
O   O29       1.0  0.27000  0.92446  0.21130  1.0000 -0.6084663968
O   O30       1.0  0.73000  0.42446  0.28870  1.0000 -0.6084663968
O   O31       1.0  0.73000  0.07554  0.78870  1.0000 -0.6084663968
O   O32       1.0  0.27000  0.57554  0.71130  1.0000 -0.6084663968
O   O33       1.0  0.39580  0.07113  0.52240  1.0000 -0.5601414393
O   O34       1.0  0.60420  0.57113  0.97760  1.0000 -0.5601414393
O   O35       1.0  0.60420  0.92887  0.47760  1.0000 -0.5601414393
O   O36       1.0  0.39580  0.42887  0.02240  1.0000 -0.5601414393
O   O37       1.0  0.37580  0.07120  0.66370  1.0000 -0.5703044559
O   O38       1.0  0.62420  0.57120  0.83630  1.0000 -0.5703044559
O   O39       1.0  0.62420  0.92880  0.33630  1.0000 -0.5703044559
O   O40       1.0  0.37580  0.42880  0.16370  1.0000 -0.5703044559
O   O41       1.0  0.87800  0.07545  0.62810  1.0000 -0.5601414393
O   O42       1.0  0.12200  0.57545  0.87190  1.0000 -0.5601414393
O   O43       1.0  0.12200  0.92455  0.37190  1.0000 -0.5601414393
O   O44       1.0  0.87800  0.42455  0.12810  1.0000 -0.5601414393
O   O45       1.0  0.68550  0.04967  0.48330  1.0000 -0.5488029297
O   O46       1.0  0.31450  0.54967  0.01670  1.0000 -0.5488029297
O   O47       1.0  0.31450  0.95033  0.51670  1.0000 -0.5488029297
O   O48       1.0  0.68550  0.45033  0.98330  1.0000 -0.5488029297
