# DDEC6 charges by PACMAN v1.1 (https://github.com/mtap-research/PACMAN-charge/)
data_2017[Zn][nan]3[ASR]24
_chemical_formula_sum              "Zn4 H20 C44 S2 N4 O20"
_cell_length_a       10.246
_cell_length_b       16.147
_cell_length_c       19.161
_cell_angle_alpha    90
_cell_angle_beta     99.98
_cell_angle_gamma    90

_symmetry_space_group_name_H-M    "P 1"
_symmetry_Int_Tables_number       1

loop_
  _symmetry_equiv_pos_as_xyz
  'x, y, z'

loop_
  _atom_site_type_symbol
  _atom_site_label
  _atom_site_symmetry_multiplicity
  _atom_site_fract_x
  _atom_site_fract_y
  _atom_site_fract_z
  _atom_site_occupancy
  _atom_site_charge
Zn  Zn1       1.0  0.27871  0.86753  0.98929  1.0000 0.9993109113
Zn  Zn2       1.0  0.72129  0.36753  0.01071  1.0000 0.9993109113
Zn  Zn3       1.0  0.03513  0.77339  0.87455  1.0000 0.9331944591
Zn  Zn4       1.0  0.96487  0.27339  0.12545  1.0000 0.9359015233
H   H1        1.0  0.56040  0.78020  0.89630  1.0000 0.1223595656
H   H2        1.0  0.43960  0.28020  0.10370  1.0000 0.1223595656
H   H3        1.0  0.29290  0.71240  0.72570  1.0000 0.1401095372
H   H4        1.0  0.70710  0.21240  0.27430  1.0000 0.1401095372
H   H5        1.0  0.68300  0.71670  0.71450  1.0000 0.1292221106
H   H6        1.0  0.31700  0.21670  0.28550  1.0000 0.1292221106
H   H7        1.0  0.52880  0.67610  0.49860  1.0000 0.1292221106
H   H8        1.0  0.47120  0.17610  0.50140  1.0000 0.1223595656
H   H9        1.0  0.45250  0.64490  0.37270  1.0000 0.1223595656
H   H10       1.0  0.54750  0.14490  0.62730  1.0000 0.1223595656
H   H11       1.0  0.21260  0.71790  0.15920  1.0000 0.1292221106
H   H12       1.0  0.78740  0.21790  0.84080  1.0000 0.1292221106
H   H13       1.0  0.97690  0.57950  0.01280  1.0000 0.1401095372
H   H14       1.0  0.02310  0.07950  0.98720  1.0000 0.1401095372
H   H15       1.0  0.08560  0.49360  0.21230  1.0000 0.1401095372
H   H16       1.0  0.91440  0.99360  0.78770  1.0000 0.1401095372
H   H17       1.0  0.53010  0.68730  0.61640  1.0000 0.2618823455
H   H18       1.0  0.46990  0.18730  0.38360  1.0000 0.2715674546
H   H19       1.0  0.31510  0.63350  0.27040  1.0000 0.2715674546
H   H20       1.0  0.68490  0.13350  0.72960  1.0000 0.2715674546
C   C1        1.0  0.78220  0.76720  0.84490  1.0000 0.5431543893
C   C2        1.0  0.21780  0.26720  0.15510  1.0000 0.5431543893
C   C3        1.0  0.64280  0.75050  0.81080  1.0000 -0.0034150518
C   C4        1.0  0.35720  0.25050  0.18920  1.0000 -0.0034150518
C   C5        1.0  0.54160  0.76220  0.84950  1.0000 -0.106552589
C   C6        1.0  0.45840  0.26220  0.15050  1.0000 -0.106552589
C   C7        1.0  0.41000  0.74650  0.81670  1.0000 -0.0297091497
C   C8        1.0  0.59000  0.24650  0.18330  1.0000 -0.0297091497
C   C9        1.0  0.30030  0.76060  0.85740  1.0000 0.6000390556
C   C10       1.0  0.69970  0.26060  0.14260  1.0000 0.6000390556
C   C11       1.0  0.38050  0.72180  0.74680  1.0000 -0.1684055794
C   C12       1.0  0.61950  0.22180  0.25320  1.0000 -0.1684055794
C   C13       1.0  0.48310  0.71070  0.70760  1.0000 0.237089575
C   C14       1.0  0.51690  0.21070  0.29240  1.0000 0.237089575
C   C15       1.0  0.61450  0.72460  0.74000  1.0000 -0.2060001486
C   C16       1.0  0.38550  0.22460  0.26000  1.0000 -0.2045433664
C   C17       1.0  0.34760  0.66460  0.59750  1.0000 0.4736410163
C   C18       1.0  0.65240  0.16460  0.40250  1.0000 0.4736410163
C   C19       1.0  0.34830  0.65240  0.51910  1.0000 -0.1192406211
C   C20       1.0  0.65170  0.15240  0.48090  1.0000 -0.1192406211
C   C21       1.0  0.44240  0.66040  0.48000  1.0000 -0.1192406211
C   C22       1.0  0.55760  0.16040  0.52000  1.0000 -0.1192406211
C   C23       1.0  0.39840  0.64280  0.40690  1.0000 -0.1192406211
C   C24       1.0  0.60160  0.14280  0.59310  1.0000 -0.1192406211
C   C25       1.0  0.26970  0.62270  0.39340  1.0000 -0.1285995686
C   C26       1.0  0.73030  0.12270  0.60660  1.0000 -0.1285995686
C   C27       1.0  0.17910  0.60750  0.32560  1.0000 0.4736410163
C   C28       1.0  0.82090  0.10750  0.67440  1.0000 0.4736410163
C   C29       1.0  0.15790  0.60840  0.19670  1.0000 0.227655024
C   C30       1.0  0.84210  0.10840  0.80330  1.0000 0.227655024
C   C31       1.0  0.16440  0.66990  0.14610  1.0000 -0.1684055794
C   C32       1.0  0.83560  0.16990  0.85390  1.0000 -0.1684055794
C   C33       1.0  0.10060  0.66040  0.07720  1.0000 -0.0356149276
C   C34       1.0  0.89940  0.16040  0.92280  1.0000 -0.0297091497
C   C35       1.0  0.02280  0.58680  0.05870  1.0000 -0.0897039615
C   C36       1.0  0.97720  0.08680  0.94130  1.0000 -0.0897039615
C   C37       1.0  0.01720  0.52860  0.10870  1.0000 -0.0100455917
C   C38       1.0  0.98280  0.02860  0.89130  1.0000 -0.0100455917
C   C39       1.0  0.08710  0.53560  0.17930  1.0000 -0.1684055794
C   C40       1.0  0.91290  0.03560  0.82070  1.0000 -0.1684055794
C   C41       1.0  0.94070  0.45060  0.08980  1.0000 0.6000390556
C   C42       1.0  0.05930  0.95060  0.91020  1.0000 0.6000390556
C   C43       1.0  0.11320  0.72190  0.02210  1.0000 0.6000390556
C   C44       1.0  0.88680  0.22190  0.97790  1.0000 0.6000390556
S   S1        1.0  0.20283  0.62374  0.46788  1.0000 0.2618823455
S   S2        1.0  0.79717  0.12374  0.53212  1.0000 0.2618823455
N   N1        1.0  0.46190  0.68720  0.63700  1.0000 -0.3515530818
N   N2        1.0  0.53810  0.18720  0.36300  1.0000 -0.3515530818
N   N3        1.0  0.23320  0.61920  0.26600  1.0000 -0.3730949753
N   N4        1.0  0.76680  0.11920  0.73400  1.0000 -0.3730949753
O   O1        1.0  0.33010  0.78730  0.92037  1.0000 -0.5970768922
O   O2        1.0  0.66990  0.28730  0.07963  1.0000 -0.5970768922
O   O3        1.0  0.18320  0.74360  0.82592  1.0000 -0.5178756708
O   O4        1.0  0.81680  0.24360  0.17408  1.0000 -0.5178756708
O   O5        1.0  0.87330  0.73990  0.81019  1.0000 -0.5505077634
O   O6        1.0  0.12670  0.23990  0.18981  1.0000 -0.5608822816
O   O7        1.0  0.80810  0.80230  0.90302  1.0000 -0.5147100681
O   O8        1.0  0.19190  0.30230  0.09698  1.0000 -0.5178756708
O   O9        1.0  0.05860  0.70550  0.95914  1.0000 -0.5377522104
O   O10       1.0  0.94140  0.20550  0.04086  1.0000 -0.5377522104
O   O11       1.0  0.17800  0.78520  0.04135  1.0000 -0.5505077634
O   O12       1.0  0.82200  0.28520  0.95865  1.0000 -0.5505077634
O   O13       1.0  0.87150  0.44630  0.02813  1.0000 -0.5608822816
O   O14       1.0  0.12850  0.94630  0.97187  1.0000 -0.5608822816
O   O15       1.0  0.94810  0.39410  0.13583  1.0000 -0.5608822816
O   O16       1.0  0.05190  0.89410  0.86417  1.0000 -0.5608822816
O   O17       1.0  0.24440  0.65600  0.61730  1.0000 -0.4721349918
O   O18       1.0  0.75560  0.15600  0.38270  1.0000 -0.4721349918
O   O19       1.0  0.06600  0.58590  0.32460  1.0000 -0.475968241
O   O20       1.0  0.93400  0.08590  0.67540  1.0000 -0.475968241
