# DDEC6 charges by PACMAN v1.1 (https://github.com/mtap-research/PACMAN-charge/)
data_2017[AlSi][nan]3[ASR]1
_chemical_formula_sum              "Al15 Si6 H102 C168 O63"
_cell_length_a       17.024
_cell_length_b       17.024
_cell_length_c       30.862
_cell_angle_alpha    90
_cell_angle_beta     90
_cell_angle_gamma    120

_symmetry_space_group_name_H-M    "P 1"
_symmetry_Int_Tables_number       1

loop_
  _symmetry_equiv_pos_as_xyz
  'x, y, z'

loop_
  _atom_site_type_symbol
  _atom_site_label
  _atom_site_symmetry_multiplicity
  _atom_site_fract_x
  _atom_site_fract_y
  _atom_site_fract_z
  _atom_site_occupancy
  _atom_site_charge
Al  Al1       1.0  0.90139  0.09368  0.86306  1.0000 1.5996678948
Al  Al2       1.0  0.13640  0.93060  0.59607  1.0000 1.6295702537
Al  Al3       1.0  0.19229  0.09861  0.52973  1.0000 1.5996678948
Al  Al4       1.0  0.79420  0.86360  0.26274  1.0000 1.6295702537
Al  Al5       1.0  0.90632  0.80771  0.19640  1.0000 1.5996678948
Al  Al6       1.0  0.06940  0.20580  0.92941  1.0000 1.6295702537
Al  Al7       1.0  0.80771  0.90632  0.80360  1.0000 1.5996678948
Al  Al8       1.0  0.20580  0.06940  0.07059  1.0000 1.6295702537
Al  Al9       1.0  0.09368  0.90139  0.13694  1.0000 1.5996678948
Al  Al10      1.0  0.93060  0.13640  0.40392  1.0000 1.6295702537
Al  Al11      1.0  0.09861  0.19229  0.47027  1.0000 1.5996678948
Al  Al12      1.0  0.86360  0.79420  0.73726  1.0000 1.6295702537
Al  Al13      1.0  0.00000  0.83760  0.66667  1.0000 1.4908896566
Al  Al14      1.0  0.83760  0.00000  0.33333  1.0000 1.4908896566
Al  Al15      1.0  0.16240  0.16240  0.00000  1.0000 1.4908896566
Si  Si1       1.0  0.72630  0.26328  0.63619  1.0000 0.6320718011
Si  Si2       1.0  0.53698  0.27370  0.30286  1.0000 0.6320718011
Si  Si3       1.0  0.73672  0.46302  0.96953  1.0000 0.6320718011
Si  Si4       1.0  0.46302  0.73672  0.03047  1.0000 0.6320718011
Si  Si5       1.0  0.26328  0.72630  0.36380  1.0000 0.6320718011
Si  Si6       1.0  0.27370  0.53698  0.69714  1.0000 0.6320718011
H   H1        1.0  0.98161  0.25443  0.57370  1.0000 0.1216149702
H   H2        1.0  0.90480  0.29009  0.62319  1.0000 0.1090561206
H   H3        1.0  0.69355  0.21012  0.54461  1.0000 0.1090561206
H   H4        1.0  0.76326  0.16250  0.49384  1.0000 0.1216149702
H   H5        1.0  0.73707  0.01242  0.70318  1.0000 0.1295857658
H   H6        1.0  0.82145  0.22965  0.78073  1.0000 0.1216149702
H   H7        1.0  0.79762  0.30483  0.72563  1.0000 0.1038505142
H   H8        1.0  0.71006  0.08895  0.64870  1.0000 0.1090561206
H   H9        1.0  0.61892  0.29871  0.57578  1.0000 0.1090561206
H   H10       1.0  0.46850  0.24829  0.56530  1.0000 0.1216149702
H   H11       1.0  0.40435  0.04314  0.64459  1.0000 0.1216149702
H   H12       1.0  0.55231  0.10194  0.66485  1.0000 0.1090561206
H   H13       1.0  0.87194  0.43723  0.60269  1.0000 0.1090561206
H   H14       1.0  0.68271  0.36280  0.69612  1.0000 0.1090561206
H   H15       1.0  0.73938  0.51240  0.71695  1.0000 0.1295857658
H   H16       1.0  0.90090  0.58449  0.61526  1.0000 0.1216149702
H   H17       1.0  0.01512  0.08984  0.88564  1.0000 0.4257689545
H   H18       1.0  0.27282  0.01839  0.24037  1.0000 0.1216149702
H   H19       1.0  0.38529  0.09520  0.28986  1.0000 0.1090561206
H   H20       1.0  0.51657  0.30645  0.21128  1.0000 0.1090561206
H   H21       1.0  0.39924  0.23674  0.16050  1.0000 0.1216149702
H   H22       1.0  0.27535  0.26293  0.36985  1.0000 0.1295857658
H   H23       1.0  0.40820  0.17855  0.44740  1.0000 0.1216149702
H   H24       1.0  0.50721  0.20238  0.39230  1.0000 0.1038505142
H   H25       1.0  0.37889  0.28994  0.31537  1.0000 0.1090561206
H   H26       1.0  0.67979  0.38108  0.24244  1.0000 0.1090561206
H   H27       1.0  0.77979  0.53150  0.23197  1.0000 0.1216149702
H   H28       1.0  0.63879  0.59565  0.31126  1.0000 0.1216149702
H   H29       1.0  0.54963  0.44769  0.33151  1.0000 0.1090561206
H   H30       1.0  0.56529  0.12806  0.26936  1.0000 0.1090561206
H   H31       1.0  0.68009  0.31729  0.36278  1.0000 0.1090561206
H   H32       1.0  0.77302  0.26062  0.38361  1.0000 0.1295857658
H   H33       1.0  0.68359  0.09910  0.28193  1.0000 0.1216149702
H   H34       1.0  0.07472  0.98488  0.55231  1.0000 0.4257689545
H   H35       1.0  0.74557  0.72718  0.90704  1.0000 0.1216149702
H   H36       1.0  0.70991  0.61471  0.95653  1.0000 0.1090561206
H   H37       1.0  0.78988  0.48343  0.87795  1.0000 0.1090561206
H   H38       1.0  0.83750  0.60076  0.82717  1.0000 0.1216149702
H   H39       1.0  0.98758  0.72465  0.03652  1.0000 0.1295857658
H   H40       1.0  0.77035  0.59180  0.11407  1.0000 0.1216149702
H   H41       1.0  0.69517  0.49279  0.05897  1.0000 0.1038505142
H   H42       1.0  0.91105  0.62111  0.98204  1.0000 0.1090561206
H   H43       1.0  0.70129  0.32021  0.90911  1.0000 0.1090561206
H   H44       1.0  0.75171  0.22021  0.89864  1.0000 0.1216149702
H   H45       1.0  0.95686  0.36121  0.97793  1.0000 0.1216149702
H   H46       1.0  0.89806  0.45037  0.99818  1.0000 0.1090561206
H   H47       1.0  0.56277  0.43471  0.93603  1.0000 0.1090561206
H   H48       1.0  0.63720  0.31991  0.02945  1.0000 0.1090561206
H   H49       1.0  0.48760  0.22698  0.05028  1.0000 0.1295857658
H   H50       1.0  0.41551  0.31641  0.94860  1.0000 0.1216149702
H   H51       1.0  0.91016  0.92528  0.21898  1.0000 0.4257689545
H   H52       1.0  0.72718  0.74557  0.09296  1.0000 0.1216149702
H   H53       1.0  0.61471  0.70991  0.04347  1.0000 0.1090561206
H   H54       1.0  0.48343  0.78988  0.12205  1.0000 0.1090561206
H   H55       1.0  0.60076  0.83750  0.17283  1.0000 0.1216149702
H   H56       1.0  0.72465  0.98758  0.96348  1.0000 0.1295857658
H   H57       1.0  0.59180  0.77035  0.88593  1.0000 0.1216149702
H   H58       1.0  0.49279  0.69517  0.94103  1.0000 0.1038505142
H   H59       1.0  0.62111  0.91105  0.01796  1.0000 0.1090561206
H   H60       1.0  0.32021  0.70129  0.09089  1.0000 0.1090561206
H   H61       1.0  0.22021  0.75171  0.10136  1.0000 0.1216149702
H   H62       1.0  0.36121  0.95686  0.02207  1.0000 0.1216149702
H   H63       1.0  0.45037  0.89806  0.00182  1.0000 0.1090561206
H   H64       1.0  0.43471  0.56277  0.06397  1.0000 0.1090561206
H   H65       1.0  0.31991  0.63720  0.97055  1.0000 0.1090561206
H   H66       1.0  0.22698  0.48760  0.94972  1.0000 0.1295857658
H   H67       1.0  0.31641  0.41551  0.05140  1.0000 0.1216149702
H   H68       1.0  0.92528  0.91016  0.78102  1.0000 0.4257689545
H   H69       1.0  0.25443  0.98161  0.42629  1.0000 0.1216149702
H   H70       1.0  0.29009  0.90480  0.37681  1.0000 0.1090561206
H   H71       1.0  0.21012  0.69355  0.45538  1.0000 0.1090561206
H   H72       1.0  0.16250  0.76326  0.50616  1.0000 0.1216149702
H   H73       1.0  0.01242  0.73707  0.29681  1.0000 0.1295857658
H   H74       1.0  0.22965  0.82145  0.21926  1.0000 0.1216149702
H   H75       1.0  0.30483  0.79762  0.27437  1.0000 0.1038505142
H   H76       1.0  0.08895  0.71006  0.35130  1.0000 0.1090561206
H   H77       1.0  0.29871  0.61892  0.42423  1.0000 0.1090561206
H   H78       1.0  0.24829  0.46850  0.43469  1.0000 0.1216149702
H   H79       1.0  0.04314  0.40435  0.35540  1.0000 0.1216149702
H   H80       1.0  0.10194  0.55231  0.33515  1.0000 0.1090561206
H   H81       1.0  0.43723  0.87194  0.39731  1.0000 0.1090561206
H   H82       1.0  0.36280  0.68271  0.30388  1.0000 0.1090561206
H   H83       1.0  0.51240  0.73938  0.28306  1.0000 0.1295857658
H   H84       1.0  0.58449  0.90090  0.38473  1.0000 0.1216149702
H   H85       1.0  0.08984  0.01512  0.11435  1.0000 0.4257689545
H   H86       1.0  0.01839  0.27282  0.75963  1.0000 0.1216149702
H   H87       1.0  0.09520  0.38529  0.71014  1.0000 0.1090561206
H   H88       1.0  0.30645  0.51657  0.78872  1.0000 0.1090561206
H   H89       1.0  0.23674  0.39924  0.83950  1.0000 0.1216149702
H   H90       1.0  0.26293  0.27535  0.63015  1.0000 0.1295857658
H   H91       1.0  0.17855  0.40820  0.55260  1.0000 0.1216149702
H   H92       1.0  0.20238  0.50721  0.60770  1.0000 0.1038505142
H   H93       1.0  0.28994  0.37889  0.68463  1.0000 0.1090561206
H   H94       1.0  0.38108  0.67979  0.75756  1.0000 0.1090561206
H   H95       1.0  0.53150  0.77979  0.76803  1.0000 0.1216149702
H   H96       1.0  0.59565  0.63879  0.68874  1.0000 0.1216149702
H   H97       1.0  0.44769  0.54963  0.66849  1.0000 0.1090561206
H   H98       1.0  0.12806  0.56529  0.73064  1.0000 0.1090561206
H   H99       1.0  0.31729  0.68009  0.63722  1.0000 0.1090561206
H   H100      1.0  0.26062  0.77302  0.61639  1.0000 0.1295857658
H   H101      1.0  0.09910  0.68359  0.71807  1.0000 0.1216149702
H   H102      1.0  0.98488  0.07472  0.44769  1.0000 0.4257689545
C   C1        1.0  0.80110  0.06060  0.78082  1.0000 0.6106289158
C   C2        1.0  0.92380  0.24450  0.56783  1.0000 -0.0981220003
C   C3        1.0  0.87740  0.26540  0.59674  1.0000 -0.0981220003
C   C4        1.0  0.79270  0.25230  0.58933  1.0000 -0.1995387904
C   C5        1.0  0.75010  0.21660  0.55034  1.0000 -0.0981220003
C   C6        1.0  0.79260  0.19030  0.51953  1.0000 -0.1070023267
C   C7        1.0  0.87970  0.20670  0.52814  1.0000 -0.0267130268
C   C8        1.0  0.74620  0.07030  0.70793  1.0000 -0.0981220003
C   C9        1.0  0.77660  0.11250  0.74713  1.0000 -0.0085320642
C   C10       1.0  0.79740  0.20100  0.75443  1.0000 -0.1070023267
C   C11       1.0  0.78130  0.24440  0.72174  1.0000 -0.0939855577
C   C12       1.0  0.74170  0.20300  0.68283  1.0000 -0.216359503
C   C13       1.0  0.72970  0.11610  0.67573  1.0000 -0.0981220003
C   C14       1.0  0.32000  0.09140  0.58893  1.0000 0.6194876611
C   C15       1.0  0.57520  0.24960  0.59143  1.0000 -0.1070023267
C   C16       1.0  0.48570  0.21540  0.58303  1.0000 -0.0981220003
C   C17       1.0  0.41770  0.13230  0.60003  1.0000 -0.0464261672
C   C18       1.0  0.44780  0.09600  0.63104  1.0000 -0.0981220003
C   C19       1.0  0.53610  0.13040  0.64384  1.0000 -0.0981220003
C   C20       1.0  0.60000  0.20980  0.62364  1.0000 -0.2114830012
C   C21       1.0  0.92330  0.18100  0.49253  1.0000 0.6106289158
C   C22       1.0  0.84260  0.45080  0.62433  1.0000 -0.0939855577
C   C23       1.0  0.77420  0.38600  0.64943  1.0000 -0.1995387904
C   C24       1.0  0.73290  0.40860  0.68193  1.0000 -0.0981220003
C   C25       1.0  0.76490  0.49820  0.69373  1.0000 -0.1070023267
C   C26       1.0  0.83460  0.56480  0.67063  1.0000 -0.0085320642
C   C27       1.0  0.86370  0.53890  0.63453  1.0000 -0.117635478
C   C28       1.0  0.86240  0.66310  0.68483  1.0000 0.5590095401
C   C29       1.0  0.25950  0.19890  0.44749  1.0000 0.6106289158
C   C30       1.0  0.32070  0.07620  0.23450  1.0000 -0.0981220003
C   C31       1.0  0.38800  0.12260  0.26340  1.0000 -0.0981220003
C   C32       1.0  0.45960  0.20730  0.25600  1.0000 -0.1995387904
C   C33       1.0  0.46650  0.24990  0.21700  1.0000 -0.0981220003
C   C34       1.0  0.39770  0.20740  0.18620  1.0000 -0.1070023267
C   C35       1.0  0.32700  0.12030  0.19480  1.0000 -0.0267130268
C   C36       1.0  0.32410  0.25380  0.37460  1.0000 -0.0981220003
C   C37       1.0  0.33590  0.22340  0.41380  1.0000 -0.0085320642
C   C38       1.0  0.40360  0.20260  0.42110  1.0000 -0.1070023267
C   C39       1.0  0.46310  0.21870  0.38840  1.0000 -0.0939855577
C   C40       1.0  0.46130  0.25830  0.34950  1.0000 -0.216359503
C   C41       1.0  0.38640  0.27030  0.34240  1.0000 -0.0981220003
C   C42       1.0  0.77140  0.68000  0.25560  1.0000 0.6194876611
C   C43       1.0  0.67440  0.42480  0.25810  1.0000 -0.1070023267
C   C44       1.0  0.72970  0.51430  0.24970  1.0000 -0.0981220003
C   C45       1.0  0.71460  0.58230  0.26670  1.0000 -0.0464261672
C   C46       1.0  0.64820  0.55220  0.29770  1.0000 -0.0981220003
C   C47       1.0  0.59430  0.46390  0.31050  1.0000 -0.0981220003
C   C48       1.0  0.60980  0.40000  0.29030  1.0000 -0.2114830012
C   C49       1.0  0.25770  0.07670  0.15920  1.0000 0.6106289158
C   C50       1.0  0.60820  0.15740  0.29100  1.0000 -0.0939855577
C   C51       1.0  0.61180  0.22580  0.31610  1.0000 -0.1995387904
C   C52       1.0  0.67570  0.26710  0.34860  1.0000 -0.0981220003
C   C53       1.0  0.73330  0.23510  0.36040  1.0000 -0.1070023267
C   C54       1.0  0.73020  0.16540  0.33730  1.0000 -0.0085320642
C   C55       1.0  0.67520  0.13630  0.30120  1.0000 -0.117635478
C   C56       1.0  0.80070  0.13760  0.35150  1.0000 0.5590095401
C   C57       1.0  0.93940  0.74050  0.11416  1.0000 0.6106289158
C   C58       1.0  0.75550  0.67930  0.90117  1.0000 -0.0981220003
C   C59       1.0  0.73460  0.61200  0.93007  1.0000 -0.0981220003
C   C60       1.0  0.74770  0.54040  0.92267  1.0000 -0.1995387904
C   C61       1.0  0.78340  0.53350  0.88367  1.0000 -0.0981220003
C   C62       1.0  0.80970  0.60230  0.85287  1.0000 -0.1070023267
C   C63       1.0  0.79330  0.67300  0.86147  1.0000 -0.0267130268
C   C64       1.0  0.92970  0.67590  0.04127  1.0000 -0.0981220003
C   C65       1.0  0.88750  0.66410  0.08047  1.0000 -0.0085320642
C   C66       1.0  0.79900  0.59640  0.08777  1.0000 -0.1070023267
C   C67       1.0  0.75560  0.53690  0.05507  1.0000 -0.0939855577
C   C68       1.0  0.79700  0.53870  0.01617  1.0000 -0.216359503
C   C69       1.0  0.88390  0.61360  0.00907  1.0000 -0.0981220003
C   C70       1.0  0.90860  0.22860  0.92227  1.0000 0.6194876611
C   C71       1.0  0.75040  0.32560  0.92477  1.0000 -0.1070023267
C   C72       1.0  0.78460  0.27030  0.91637  1.0000 -0.0981220003
C   C73       1.0  0.86770  0.28540  0.93337  1.0000 -0.0464261672
C   C74       1.0  0.90400  0.35180  0.96437  1.0000 -0.0981220003
C   C75       1.0  0.86960  0.40570  0.97717  1.0000 -0.0981220003
C   C76       1.0  0.79020  0.39020  0.95697  1.0000 -0.2114830012
C   C77       1.0  0.81900  0.74230  0.82587  1.0000 0.6106289158
C   C78       1.0  0.54920  0.39180  0.95767  1.0000 -0.0981220003
C   C79       1.0  0.61400  0.38820  0.98277  1.0000 -0.1995387904
C   C80       1.0  0.59140  0.32430  0.01527  1.0000 -0.0981220003
C   C81       1.0  0.50180  0.26670  0.02707  1.0000 -0.1070023267
C   C82       1.0  0.43520  0.26980  0.00397  1.0000 -0.0085320642
C   C83       1.0  0.46110  0.32480  0.96787  1.0000 -0.117635478
C   C84       1.0  0.33690  0.19930  0.01817  1.0000 0.5590095401
C   C85       1.0  0.74050  0.93940  0.88584  1.0000 0.6106289158
C   C86       1.0  0.67930  0.75550  0.09883  1.0000 -0.0981220003
C   C87       1.0  0.61200  0.73460  0.06993  1.0000 -0.0981220003
C   C88       1.0  0.54040  0.74770  0.07733  1.0000 -0.1995387904
C   C89       1.0  0.53350  0.78340  0.11633  1.0000 -0.0981220003
C   C90       1.0  0.60230  0.80970  0.14713  1.0000 -0.1070023267
C   C91       1.0  0.67300  0.79330  0.13853  1.0000 -0.0267130268
C   C92       1.0  0.67590  0.92970  0.95873  1.0000 -0.0981220003
C   C93       1.0  0.66410  0.88750  0.91953  1.0000 -0.0085320642
C   C94       1.0  0.59640  0.79900  0.91223  1.0000 -0.1070023267
C   C95       1.0  0.53690  0.75560  0.94493  1.0000 -0.0939855577
C   C96       1.0  0.53870  0.79700  0.98383  1.0000 -0.216359503
C   C97       1.0  0.61360  0.88390  0.99093  1.0000 -0.0981220003
C   C98       1.0  0.22860  0.90860  0.07773  1.0000 0.6194876611
C   C99       1.0  0.32560  0.75040  0.07523  1.0000 -0.1070023267
C   C100      1.0  0.27030  0.78460  0.08363  1.0000 -0.0981220003
C   C101      1.0  0.28540  0.86770  0.06663  1.0000 -0.0464261672
C   C102      1.0  0.35180  0.90400  0.03563  1.0000 -0.0981220003
C   C103      1.0  0.40570  0.86960  0.02283  1.0000 -0.0981220003
C   C104      1.0  0.39020  0.79020  0.04303  1.0000 -0.2114830012
C   C105      1.0  0.74230  0.81900  0.17413  1.0000 0.6106289158
C   C106      1.0  0.39180  0.54920  0.04233  1.0000 -0.0939855577
C   C107      1.0  0.38820  0.61400  0.01723  1.0000 -0.1995387904
C   C108      1.0  0.32430  0.59140  0.98473  1.0000 -0.0981220003
C   C109      1.0  0.26670  0.50180  0.97293  1.0000 -0.1070023267
C   C110      1.0  0.26980  0.43520  0.99603  1.0000 -0.0085320642
C   C111      1.0  0.32480  0.46110  0.03213  1.0000 -0.117635478
C   C112      1.0  0.19930  0.33690  0.98183  1.0000 0.5590095401
C   C113      1.0  0.06060  0.80110  0.21917  1.0000 0.6106289158
C   C114      1.0  0.24450  0.92380  0.43217  1.0000 -0.0981220003
C   C115      1.0  0.26540  0.87740  0.40326  1.0000 -0.0981220003
C   C116      1.0  0.25230  0.79270  0.41066  1.0000 -0.1995387904
C   C117      1.0  0.21660  0.75010  0.44966  1.0000 -0.0981220003
C   C118      1.0  0.19030  0.79260  0.48046  1.0000 -0.1070023267
C   C119      1.0  0.20670  0.87970  0.47186  1.0000 -0.0267130268
C   C120      1.0  0.07030  0.74620  0.29207  1.0000 -0.0981220003
C   C121      1.0  0.11250  0.77660  0.25287  1.0000 -0.0085320642
C   C122      1.0  0.20100  0.79740  0.24556  1.0000 -0.1070023267
C   C123      1.0  0.24440  0.78130  0.27826  1.0000 -0.0939855577
C   C124      1.0  0.20300  0.74170  0.31716  1.0000 -0.216359503
C   C125      1.0  0.11610  0.72970  0.32427  1.0000 -0.0981220003
C   C126      1.0  0.09140  0.32000  0.41107  1.0000 0.6194876611
C   C127      1.0  0.24960  0.57520  0.40856  1.0000 -0.1070023267
C   C128      1.0  0.21540  0.48570  0.41696  1.0000 -0.0981220003
C   C129      1.0  0.13230  0.41770  0.39996  1.0000 -0.0464261672
C   C130      1.0  0.09600  0.44780  0.36896  1.0000 -0.0981220003
C   C131      1.0  0.13040  0.53610  0.35616  1.0000 -0.0981220003
C   C132      1.0  0.20980  0.60000  0.37637  1.0000 -0.2114830012
C   C133      1.0  0.18100  0.92330  0.50747  1.0000 0.6106289158
C   C134      1.0  0.45080  0.84260  0.37566  1.0000 -0.0939855577
C   C135      1.0  0.38600  0.77420  0.35057  1.0000 -0.1995387904
C   C136      1.0  0.40860  0.73290  0.31806  1.0000 -0.0981220003
C   C137      1.0  0.49820  0.76490  0.30627  1.0000 -0.1070023267
C   C138      1.0  0.56480  0.83460  0.32937  1.0000 -0.0085320642
C   C139      1.0  0.53890  0.86370  0.36546  1.0000 -0.117635478
C   C140      1.0  0.66310  0.86240  0.31516  1.0000 0.5590095401
C   C141      1.0  0.19890  0.25950  0.55251  1.0000 0.6106289158
C   C142      1.0  0.07620  0.32070  0.76550  1.0000 -0.0981220003
C   C143      1.0  0.12260  0.38800  0.73660  1.0000 -0.0981220003
C   C144      1.0  0.20730  0.45960  0.74400  1.0000 -0.1995387904
C   C145      1.0  0.24990  0.46650  0.78300  1.0000 -0.0981220003
C   C146      1.0  0.20740  0.39770  0.81380  1.0000 -0.1070023267
C   C147      1.0  0.12030  0.32700  0.80520  1.0000 -0.0267130268
C   C148      1.0  0.25380  0.32410  0.62540  1.0000 -0.0981220003
C   C149      1.0  0.22340  0.33590  0.58620  1.0000 -0.0085320642
C   C150      1.0  0.20260  0.40360  0.57890  1.0000 -0.1070023267
C   C151      1.0  0.21870  0.46310  0.61160  1.0000 -0.0939855577
C   C152      1.0  0.25830  0.46130  0.65050  1.0000 -0.216359503
C   C153      1.0  0.27030  0.38640  0.65760  1.0000 -0.0981220003
C   C154      1.0  0.68000  0.77140  0.74440  1.0000 0.6194876611
C   C155      1.0  0.42480  0.67440  0.74190  1.0000 -0.1070023267
C   C156      1.0  0.51430  0.72970  0.75030  1.0000 -0.0981220003
C   C157      1.0  0.58230  0.71460  0.73330  1.0000 -0.0464261672
C   C158      1.0  0.55220  0.64820  0.70230  1.0000 -0.0981220003
C   C159      1.0  0.46390  0.59430  0.68950  1.0000 -0.0981220003
C   C160      1.0  0.40000  0.60980  0.70970  1.0000 -0.2114830012
C   C161      1.0  0.07670  0.25770  0.84080  1.0000 0.6106289158
C   C162      1.0  0.15740  0.60820  0.70900  1.0000 -0.0939855577
C   C163      1.0  0.22580  0.61180  0.68390  1.0000 -0.1995387904
C   C164      1.0  0.26710  0.67570  0.65140  1.0000 -0.0981220003
C   C165      1.0  0.23510  0.73330  0.63960  1.0000 -0.1070023267
C   C166      1.0  0.16540  0.73020  0.66270  1.0000 -0.0085320642
C   C167      1.0  0.13630  0.67520  0.69880  1.0000 -0.117635478
C   C168      1.0  0.13760  0.80070  0.64850  1.0000 0.5590095401
O   O1        1.0  0.89740  0.16400  0.45524  1.0000 -0.5798126082
O   O2        1.0  0.00290  0.19030  0.50312  1.0000 -0.5715512653
O   O3        1.0  0.25720  0.02670  0.61384  1.0000 -0.6159121672
O   O4        1.0  0.30170  0.11930  0.55466  1.0000 -0.5715512653
O   O5        1.0  0.84030  0.68480  0.71193  1.0000 -0.4396582589
O   O6        1.0  0.94100  0.72570  0.66343  1.0000 -0.4396582589
O   O7        1.0  0.79510  0.99100  0.77277  1.0000 -0.4844890157
O   O8        1.0  0.82710  0.10110  0.81942  1.0000 -0.593148313
O   O9        1.0  0.92600  0.84880  0.69533  1.0000 -0.9768093943
O   O10       1.0  0.98450  0.10370  0.90273  1.0000 -0.9692448298
O   O11       1.0  0.26660  0.10260  0.12191  1.0000 -0.5798126082
O   O12       1.0  0.18740  0.99710  0.16979  1.0000 -0.5715512653
O   O13       1.0  0.76950  0.74280  0.28050  1.0000 -0.6159121672
O   O14       1.0  0.81760  0.69830  0.22132  1.0000 -0.5715512653
O   O15       1.0  0.84450  0.15970  0.37860  1.0000 -0.4396582589
O   O16       1.0  0.78470  0.05900  0.33010  1.0000 -0.4396582589
O   O17       1.0  0.19590  0.20490  0.43943  1.0000 -0.4844890157
O   O18       1.0  0.27400  0.17290  0.48609  1.0000 -0.593148313
O   O19       1.0  0.92280  0.07400  0.36200  1.0000 -0.9768093943
O   O20       1.0  0.11920  0.01550  0.56940  1.0000 -0.9629178563
O   O21       1.0  0.83600  0.73340  0.78858  1.0000 -0.5798126082
O   O22       1.0  0.80970  0.81260  0.83646  1.0000 -0.5715512653
O   O23       1.0  0.97330  0.23050  0.94717  1.0000 -0.6159121672
O   O24       1.0  0.88070  0.18240  0.88799  1.0000 -0.5715512653
O   O25       1.0  0.31520  0.15550  0.04527  1.0000 -0.4396582589
O   O26       1.0  0.27430  0.21530  0.99677  1.0000 -0.4396582589
O   O27       1.0  0.00900  0.80410  0.10610  1.0000 -0.4850714723
O   O28       1.0  0.89890  0.72600  0.15276  1.0000 -0.593148313
O   O29       1.0  0.15120  0.07720  0.02867  1.0000 -0.9768093943
O   O30       1.0  0.89630  0.88080  0.23607  1.0000 -0.9629178563
O   O31       1.0  0.73340  0.83600  0.21142  1.0000 -0.5798126082
O   O32       1.0  0.81260  0.80970  0.16354  1.0000 -0.5715512653
O   O33       1.0  0.23050  0.97330  0.05283  1.0000 -0.6159121672
O   O34       1.0  0.18240  0.88070  0.11201  1.0000 -0.5715512653
O   O35       1.0  0.15550  0.31520  0.95473  1.0000 -0.4396582589
O   O36       1.0  0.21530  0.27430  0.00323  1.0000 -0.4396582589
O   O37       1.0  0.80410  0.00900  0.89390  1.0000 -0.4850714723
O   O38       1.0  0.72600  0.89890  0.84724  1.0000 -0.593148313
O   O39       1.0  0.07720  0.15120  0.97133  1.0000 -0.9768093943
O   O40       1.0  0.88080  0.89630  0.76393  1.0000 -0.9629178563
O   O41       1.0  0.16400  0.89740  0.54475  1.0000 -0.5798126082
O   O42       1.0  0.19030  0.00290  0.49688  1.0000 -0.5715512653
O   O43       1.0  0.02670  0.25720  0.38616  1.0000 -0.6143821398
O   O44       1.0  0.11930  0.30170  0.44534  1.0000 -0.5715512653
O   O45       1.0  0.68480  0.84030  0.28807  1.0000 -0.4396582589
O   O46       1.0  0.72570  0.94100  0.33656  1.0000 -0.4396582589
O   O47       1.0  0.99100  0.79510  0.22723  1.0000 -0.4844890157
O   O48       1.0  0.10110  0.82710  0.18057  1.0000 -0.593148313
O   O49       1.0  0.84880  0.92600  0.30466  1.0000 -0.9768093943
O   O50       1.0  0.10370  0.98450  0.09727  1.0000 -0.9629178563
O   O51       1.0  0.10260  0.26660  0.87809  1.0000 -0.5798126082
O   O52       1.0  0.99710  0.18740  0.83021  1.0000 -0.5715512653
O   O53       1.0  0.74280  0.76950  0.71950  1.0000 -0.6159121672
O   O54       1.0  0.69830  0.81760  0.77868  1.0000 -0.5715512653
O   O55       1.0  0.15970  0.84450  0.62140  1.0000 -0.4396582589
O   O56       1.0  0.05900  0.78470  0.66990  1.0000 -0.4396582589
O   O57       1.0  0.20490  0.19590  0.56057  1.0000 -0.4844890157
O   O58       1.0  0.17290  0.27400  0.51391  1.0000 -0.593148313
O   O59       1.0  0.07400  0.92280  0.63800  1.0000 -0.9768093943
O   O60       1.0  0.01550  0.11920  0.43060  1.0000 -0.9629178563
O   O61       1.0  0.90270  0.00000  0.83333  1.0000 -1.0352945844
O   O62       1.0  0.09730  0.09730  0.50000  1.0000 -1.0344168464
O   O63       1.0  0.00000  0.90270  0.16667  1.0000 -1.0344168464
