# DDEC6 charges by PACMAN v1.1 (https://github.com/mtap-research/PACMAN-charge/)
data_2017[Co][bnn]3[ASR]4
_chemical_formula_sum              "Co12 H96 C168 O60"
_cell_length_a       25.2009
_cell_length_b       25.2009
_cell_length_c       20.497
_cell_angle_alpha    87.3606
_cell_angle_beta     92.6394
_cell_angle_gamma    31.4455

_symmetry_space_group_name_H-M    "P 1"
_symmetry_Int_Tables_number       1

loop_
  _symmetry_equiv_pos_as_xyz
  'x, y, z'

loop_
  _atom_site_type_symbol
  _atom_site_label
  _atom_site_symmetry_multiplicity
  _atom_site_fract_x
  _atom_site_fract_y
  _atom_site_fract_z
  _atom_site_occupancy
  _atom_site_charge
Co  Co1       1.0  0.40542  0.40542  0.75000  1.0000 1.0700993197
Co  Co2       1.0  0.59458  0.59458  0.25000  1.0000 1.0700993197
Co  Co3       1.0  0.68326  0.68326  0.75000  1.0000 1.0700993197
Co  Co4       1.0  0.31674  0.31674  0.25000  1.0000 1.0700993197
Co  Co5       1.0  0.51123  0.86803  0.60701  1.0000 0.9773814083
Co  Co6       1.0  0.86803  0.51123  0.89299  1.0000 0.9773814083
Co  Co7       1.0  0.48877  0.13197  0.39299  1.0000 0.9773814083
Co  Co8       1.0  0.13197  0.48877  0.10701  1.0000 0.974705364
Co  Co9       1.0  0.60546  0.17518  0.68070  1.0000 0.9773814083
Co  Co10      1.0  0.17518  0.60546  0.81930  1.0000 0.9773814083
Co  Co11      1.0  0.39454  0.82482  0.31930  1.0000 0.9773814083
Co  Co12      1.0  0.82482  0.39454  0.18070  1.0000 0.9773814083
H   H1        1.0  0.24750  0.43650  0.68760  1.0000 0.1222493627
H   H2        1.0  0.43650  0.24750  0.81240  1.0000 0.1222493627
H   H3        1.0  0.75250  0.56350  0.31240  1.0000 0.1222493627
H   H4        1.0  0.56350  0.75250  0.18760  1.0000 0.1222493627
H   H5        1.0  0.92440  0.54460  0.66740  1.0000 0.1282400232
H   H6        1.0  0.54460  0.92440  0.83260  1.0000 0.1282400232
H   H7        1.0  0.07560  0.45540  0.33260  1.0000 0.1282400232
H   H8        1.0  0.45540  0.07560  0.16740  1.0000 0.1282400232
H   H9        1.0  0.06260  0.46000  0.62290  1.0000 0.1282400232
H   H10       1.0  0.46000  0.06260  0.87710  1.0000 0.1282400232
H   H11       1.0  0.93740  0.54000  0.37710  1.0000 0.1282400232
H   H12       1.0  0.54000  0.93740  0.12290  1.0000 0.1282400232
H   H13       1.0  0.09330  0.53690  0.63800  1.0000 0.1282400232
H   H14       1.0  0.53690  0.09330  0.86200  1.0000 0.1282400232
H   H15       1.0  0.90670  0.46310  0.36200  1.0000 0.1282400232
H   H16       1.0  0.46310  0.90670  0.13800  1.0000 0.1282400232
H   H17       1.0  0.72380  0.49560  0.68210  1.0000 0.1282400232
H   H18       1.0  0.49560  0.72380  0.81790  1.0000 0.1282400232
H   H19       1.0  0.27620  0.50440  0.31790  1.0000 0.1282400232
H   H20       1.0  0.50440  0.27620  0.18210  1.0000 0.1282400232
H   H21       1.0  0.36980  0.29660  0.52850  1.0000 0.1222493627
H   H22       1.0  0.29660  0.36980  0.97150  1.0000 0.1222493627
H   H23       1.0  0.63020  0.70340  0.47150  1.0000 0.1222493627
H   H24       1.0  0.70340  0.63020  0.02850  1.0000 0.1222493627
H   H25       1.0  0.72700  0.78660  0.52320  1.0000 0.1222493627
H   H26       1.0  0.78660  0.72700  0.97680  1.0000 0.1222493627
H   H27       1.0  0.27300  0.21340  0.47680  1.0000 0.1222493627
H   H28       1.0  0.21340  0.27300  0.02320  1.0000 0.1222493627
H   H29       1.0  0.21910  0.39210  0.48170  1.0000 0.1398599807
H   H30       1.0  0.39210  0.21910  0.01830  1.0000 0.1398599807
H   H31       1.0  0.78090  0.60790  0.51830  1.0000 0.1398599807
H   H32       1.0  0.60790  0.78090  0.98170  1.0000 0.1398599807
H   H33       1.0  0.82290  0.89810  0.97300  1.0000 0.1398599807
H   H34       1.0  0.89810  0.82290  0.52700  1.0000 0.1398599807
H   H35       1.0  0.17710  0.10190  0.02700  1.0000 0.1398599807
H   H36       1.0  0.10190  0.17710  0.47300  1.0000 0.1398599807
H   H37       1.0  0.54990  0.24550  0.93370  1.0000 0.1222493627
H   H38       1.0  0.24550  0.54990  0.56630  1.0000 0.1222493627
H   H39       1.0  0.45010  0.75450  0.06630  1.0000 0.1222493627
H   H40       1.0  0.75450  0.45010  0.43370  1.0000 0.1222493627
H   H41       1.0  0.50040  0.13720  0.16520  1.0000 0.112861182
H   H42       1.0  0.13720  0.50040  0.33480  1.0000 0.112861182
H   H43       1.0  0.49960  0.86280  0.83480  1.0000 0.112861182
H   H44       1.0  0.86280  0.49960  0.66520  1.0000 0.112861182
H   H45       1.0  0.52080  0.53920  0.61640  1.0000 0.1282400232
H   H46       1.0  0.53920  0.52080  0.88360  1.0000 0.1282400232
H   H47       1.0  0.47920  0.46080  0.38360  1.0000 0.1282400232
H   H48       1.0  0.46080  0.47920  0.11640  1.0000 0.1282400232
H   H49       1.0  0.61330  0.16010  0.03980  1.0000 0.1222493627
H   H50       1.0  0.16010  0.61330  0.46020  1.0000 0.1222493627
H   H51       1.0  0.38670  0.83990  0.96020  1.0000 0.1222493627
H   H52       1.0  0.83990  0.38670  0.53980  1.0000 0.1222493627
H   H53       1.0  0.69960  0.30820  0.51390  1.0000 0.1398599807
H   H54       1.0  0.30820  0.69960  0.98610  1.0000 0.1398599807
H   H55       1.0  0.30040  0.69180  0.48610  1.0000 0.1398599807
H   H56       1.0  0.69180  0.30040  0.01390  1.0000 0.1398599807
H   H57       1.0  0.54400  0.69520  0.51150  1.0000 0.1282400232
H   H58       1.0  0.69520  0.54400  0.98850  1.0000 0.1282400232
H   H59       1.0  0.45600  0.30480  0.48850  1.0000 0.1282400232
H   H60       1.0  0.30480  0.45600  0.01150  1.0000 0.1282400232
H   H61       1.0  0.72550  0.40950  0.64340  1.0000 0.1398599807
H   H62       1.0  0.40950  0.72550  0.85660  1.0000 0.1398599807
H   H63       1.0  0.27450  0.59050  0.35660  1.0000 0.1398599807
H   H64       1.0  0.59050  0.27450  0.14340  1.0000 0.1398599807
H   H65       1.0  0.59700  0.06800  0.07700  1.0000 0.1282400232
H   H66       1.0  0.06800  0.59700  0.42300  1.0000 0.1282400232
H   H67       1.0  0.40300  0.93200  0.92300  1.0000 0.1282400232
H   H68       1.0  0.93200  0.40300  0.57700  1.0000 0.1282400232
H   H69       1.0  0.48810  0.48690  0.67110  1.0000 0.1222493627
H   H70       1.0  0.48690  0.48810  0.82890  1.0000 0.1222493627
H   H71       1.0  0.51190  0.51310  0.32890  1.0000 0.1222493627
H   H72       1.0  0.51310  0.51190  0.17110  1.0000 0.1222493627
H   H73       1.0  0.66750  0.25430  0.57040  1.0000 0.1222493627
H   H74       1.0  0.25430  0.66750  0.92960  1.0000 0.1222493627
H   H75       1.0  0.33250  0.74570  0.42960  1.0000 0.1222493627
H   H76       1.0  0.74570  0.33250  0.07040  1.0000 0.1222493627
H   H77       1.0  0.55120  0.60560  0.47600  1.0000 0.1398599807
H   H78       1.0  0.60560  0.55120  0.02400  1.0000 0.1398599807
H   H79       1.0  0.44880  0.39440  0.52400  1.0000 0.1398599807
H   H80       1.0  0.39440  0.44880  0.97600  1.0000 0.1398599807
H   H81       1.0  0.73470  0.00330  0.28520  1.0000 0.1222493627
H   H82       1.0  0.00330  0.73470  0.21480  1.0000 0.1222493627
H   H83       1.0  0.26530  0.99670  0.71480  1.0000 0.1222493627
H   H84       1.0  0.99670  0.26530  0.78520  1.0000 0.1222493627
H   H85       1.0  0.86760  0.70680  0.48530  1.0000 0.1398599807
H   H86       1.0  0.70680  0.86760  0.01470  1.0000 0.1398599807
H   H87       1.0  0.13240  0.29320  0.51470  1.0000 0.1398599807
H   H88       1.0  0.29320  0.13240  0.98530  1.0000 0.1398599807
H   H89       1.0  0.76420  0.98060  0.86840  1.0000 0.1222493627
H   H90       1.0  0.98060  0.76420  0.63160  1.0000 0.1222493627
H   H91       1.0  0.23580  0.01940  0.13160  1.0000 0.1222493627
H   H92       1.0  0.01940  0.23580  0.36840  1.0000 0.1222493627
H   H93       1.0  0.81770  0.95630  0.19600  1.0000 0.1282400232
H   H94       1.0  0.95630  0.81770  0.30400  1.0000 0.1282400232
H   H95       1.0  0.18230  0.04370  0.80400  1.0000 0.1282400232
H   H96       1.0  0.04370  0.18230  0.69600  1.0000 0.1282400232
C   C1        1.0  0.32940  0.35260  0.61480  1.0000 -0.0589632555
C   C2        1.0  0.35260  0.32940  0.88520  1.0000 -0.0589632555
C   C3        1.0  0.67060  0.64740  0.38520  1.0000 -0.0589632555
C   C4        1.0  0.64740  0.67060  0.11480  1.0000 -0.0589632555
C   C5        1.0  0.64820  0.12360  0.88810  1.0000 -0.0703929472
C   C6        1.0  0.12360  0.64820  0.61190  1.0000 -0.0703929472
C   C7        1.0  0.35180  0.87640  0.11190  1.0000 -0.0703929472
C   C8        1.0  0.87640  0.35180  0.38810  1.0000 -0.0703929472
C   C9        1.0  0.56920  0.36860  0.62360  1.0000 -0.0703929472
C   C10       1.0  0.36860  0.56920  0.87640  1.0000 -0.0703929472
C   C11       1.0  0.43080  0.63140  0.37640  1.0000 -0.0703929472
C   C12       1.0  0.63140  0.43080  0.12360  1.0000 -0.0703929472
C   C13       1.0  0.81310  0.67210  0.60190  1.0000 -0.0524709789
C   C14       1.0  0.67210  0.81310  0.89810  1.0000 -0.0524709789
C   C15       1.0  0.18690  0.32790  0.39810  1.0000 -0.0524709789
C   C16       1.0  0.32790  0.18690  0.10190  1.0000 -0.0524709789
C   C17       1.0  0.62460  0.66600  0.62850  1.0000 0.5809223311
C   C18       1.0  0.66600  0.62460  0.87150  1.0000 0.5809223311
C   C19       1.0  0.37540  0.33400  0.37150  1.0000 0.5809223311
C   C20       1.0  0.33400  0.37540  0.12850  1.0000 0.5809223311
C   C21       1.0  0.24220  0.42740  0.64580  1.0000 -0.0703929472
C   C22       1.0  0.42740  0.24220  0.85420  1.0000 -0.0703929472
C   C23       1.0  0.75780  0.57260  0.35420  1.0000 -0.0703929472
C   C24       1.0  0.57260  0.75780  0.14580  1.0000 -0.0703929472
C   C25       1.0  0.63080  0.60600  0.60110  1.0000 -0.0272669174
C   C26       1.0  0.60600  0.63080  0.89890  1.0000 -0.0272669174
C   C27       1.0  0.36920  0.39400  0.39890  1.0000 -0.0272669174
C   C28       1.0  0.39400  0.36920  0.10110  1.0000 -0.0272669174
C   C29       1.0  0.14400  0.47120  0.55450  1.0000 0.2387447138
C   C30       1.0  0.47120  0.14400  0.94550  1.0000 0.2387447138
C   C31       1.0  0.85600  0.52880  0.44550  1.0000 0.2387447138
C   C32       1.0  0.52880  0.85600  0.05450  1.0000 0.2387447138
C   C33       1.0  0.91180  0.57740  0.62940  1.0000 -0.0703929472
C   C34       1.0  0.57740  0.91180  0.87060  1.0000 -0.0703929472
C   C35       1.0  0.08820  0.42260  0.37060  1.0000 -0.0703929472
C   C36       1.0  0.42260  0.08820  0.12940  1.0000 -0.0703929472
C   C37       1.0  0.99550  0.52650  0.60370  1.0000 -0.2192378929
C   C38       1.0  0.52650  0.99550  0.89630  1.0000 -0.2192378929
C   C39       1.0  0.00450  0.47350  0.39630  1.0000 -0.2192378929
C   C40       1.0  0.47350  0.00450  0.10370  1.0000 -0.2192378929
C   C41       1.0  0.61780  0.42320  0.56380  1.0000 0.2387447138
C   C42       1.0  0.42320  0.61780  0.93620  1.0000 0.2387447138
C   C43       1.0  0.38220  0.57680  0.43620  1.0000 0.2387447138
C   C44       1.0  0.57680  0.38220  0.06380  1.0000 0.2387447138
C   C45       1.0  0.15070  0.48670  0.61690  1.0000 -0.1987471101
C   C46       1.0  0.48670  0.15070  0.88310  1.0000 -0.1987471101
C   C47       1.0  0.84930  0.51330  0.38310  1.0000 -0.1987471101
C   C48       1.0  0.51330  0.84930  0.11690  1.0000 -0.1987471101
C   C49       1.0  0.68760  0.51880  0.64070  1.0000 -0.0917996285
C   C50       1.0  0.51880  0.68760  0.85930  1.0000 -0.0917996285
C   C51       1.0  0.31240  0.48120  0.35930  1.0000 -0.0917996285
C   C52       1.0  0.48120  0.31240  0.14070  1.0000 -0.0917996285
C   C53       1.0  0.31440  0.34420  0.55150  1.0000 -0.0703929472
C   C54       1.0  0.34420  0.31440  0.94850  1.0000 -0.0703929472
C   C55       1.0  0.68560  0.65580  0.44850  1.0000 -0.0703929472
C   C56       1.0  0.65580  0.68560  0.05150  1.0000 -0.0703929472
C   C57       1.0  0.63840  0.50080  0.55640  1.0000 0.2114590513
C   C58       1.0  0.50080  0.63840  0.94360  1.0000 0.2114590513
C   C59       1.0  0.36160  0.49920  0.44360  1.0000 0.2114590513
C   C60       1.0  0.49920  0.36160  0.05640  1.0000 0.2114590513
C   C61       1.0  0.54280  0.34140  0.65770  1.0000 0.5890086251
C   C62       1.0  0.34140  0.54280  0.84230  1.0000 0.5890086251
C   C63       1.0  0.45720  0.65860  0.34230  1.0000 0.5890086251
C   C64       1.0  0.65860  0.45720  0.15770  1.0000 0.5890086251
C   C65       1.0  0.72400  0.72460  0.62970  1.0000 0.5890086251
C   C66       1.0  0.72460  0.72400  0.87030  1.0000 0.5890086251
C   C67       1.0  0.27600  0.27540  0.37030  1.0000 0.5890086251
C   C68       1.0  0.27540  0.27600  0.12970  1.0000 0.5890086251
C   C69       1.0  0.61310  0.07290  0.23500  1.0000 -0.0703929472
C   C70       1.0  0.07290  0.61310  0.26500  1.0000 -0.0703929472
C   C71       1.0  0.38690  0.92710  0.76500  1.0000 -0.0703929472
C   C72       1.0  0.92710  0.38690  0.73500  1.0000 -0.0703929472
C   C73       1.0  0.79390  0.72250  0.54470  1.0000 -0.080069494
C   C74       1.0  0.72250  0.79390  0.95530  1.0000 -0.080069494
C   C75       1.0  0.20610  0.27750  0.45530  1.0000 -0.080069494
C   C76       1.0  0.27750  0.20610  0.04470  1.0000 -0.080069494
C   C77       1.0  0.22520  0.40100  0.52330  1.0000 -0.1772710015
C   C78       1.0  0.40100  0.22520  0.97670  1.0000 -0.1772710015
C   C79       1.0  0.77480  0.59900  0.47670  1.0000 -0.1772710015
C   C80       1.0  0.59900  0.77480  0.02330  1.0000 -0.1772710015
C   C81       1.0  0.76850  0.96890  0.96570  1.0000 -0.2101478507
C   C82       1.0  0.96890  0.76850  0.53430  1.0000 -0.2101478507
C   C83       1.0  0.23150  0.03110  0.03430  1.0000 -0.2101478507
C   C84       1.0  0.03110  0.23150  0.46570  1.0000 -0.2101478507
C   C85       1.0  0.97660  0.57680  0.54950  1.0000 0.2387447138
C   C86       1.0  0.57680  0.97660  0.95050  1.0000 0.2387447138
C   C87       1.0  0.02340  0.42320  0.45050  1.0000 0.2387447138
C   C88       1.0  0.42320  0.02340  0.04950  1.0000 0.2387447138
C   C89       1.0  0.60620  0.17420  0.94080  1.0000 -0.0703929472
C   C90       1.0  0.17420  0.60620  0.55920  1.0000 -0.0703929472
C   C91       1.0  0.39380  0.82580  0.05920  1.0000 -0.0703929472
C   C92       1.0  0.82580  0.39380  0.44080  1.0000 -0.0703929472
C   C93       1.0  0.56500  0.09780  0.17170  1.0000 -0.0589632555
C   C94       1.0  0.09780  0.56500  0.32830  1.0000 -0.0589632555
C   C95       1.0  0.43500  0.90220  0.82830  1.0000 -0.0589632555
C   C96       1.0  0.90220  0.43500  0.67170  1.0000 -0.0589632555
C   C97       1.0  0.55120  0.48160  0.60750  1.0000 -0.2264195425
C   C98       1.0  0.48160  0.55120  0.89250  1.0000 -0.2264195425
C   C99       1.0  0.44880  0.51840  0.39250  1.0000 -0.2264195425
C   C100      1.0  0.51840  0.44880  0.10750  1.0000 -0.2264195425
C   C101      1.0  0.64530  0.12250  0.00510  1.0000 -0.2192378929
C   C102      1.0  0.12250  0.64530  0.49490  1.0000 -0.2192378929
C   C103      1.0  0.35470  0.87750  0.99490  1.0000 -0.2192378929
C   C104      1.0  0.87750  0.35470  0.50510  1.0000 -0.2192378929
C   C105      1.0  0.71450  0.00610  0.12940  1.0000 0.2387447138
C   C106      1.0  0.00610  0.71450  0.37060  1.0000 0.2387447138
C   C107      1.0  0.28550  0.99390  0.87060  1.0000 0.2387447138
C   C108      1.0  0.99390  0.28550  0.62940  1.0000 0.2387447138
C   C109      1.0  0.65810  0.34310  0.54660  1.0000 -0.2101478507
C   C110      1.0  0.34310  0.65810  0.95340  1.0000 -0.2101478507
C   C111      1.0  0.34190  0.65690  0.45340  1.0000 -0.2101478507
C   C112      1.0  0.65690  0.34190  0.04660  1.0000 -0.2101478507
C   C113      1.0  0.58070  0.63750  0.53870  1.0000 -0.080069494
C   C114      1.0  0.63750  0.58070  0.96130  1.0000 -0.080069494
C   C115      1.0  0.41930  0.36250  0.46130  1.0000 -0.080069494
C   C116      1.0  0.36250  0.41930  0.03870  1.0000 -0.080069494
C   C117      1.0  0.68920  0.46760  0.61730  1.0000 -0.1891641845
C   C118      1.0  0.46760  0.68920  0.88270  1.0000 -0.1891641845
C   C119      1.0  0.31080  0.53240  0.38270  1.0000 -0.1891641845
C   C120      1.0  0.53240  0.31080  0.11730  1.0000 -0.1891641845
C   C121      1.0  0.62230  0.05830  0.11880  1.0000 -0.2192378929
C   C122      1.0  0.05830  0.62230  0.38120  1.0000 -0.2192378929
C   C123      1.0  0.37770  0.94170  0.88120  1.0000 -0.2192378929
C   C124      1.0  0.94170  0.37770  0.61880  1.0000 -0.2192378929
C   C125      1.0  0.72630  0.02130  0.01810  1.0000 0.2657355326
C   C126      1.0  0.02130  0.72630  0.48190  1.0000 0.2657355326
C   C127      1.0  0.27370  0.97870  0.98190  1.0000 0.2657355326
C   C128      1.0  0.97870  0.27370  0.51810  1.0000 0.2657355326
C   C129      1.0  0.53010  0.45090  0.63880  1.0000 -0.0703929472
C   C130      1.0  0.45090  0.53010  0.86120  1.0000 -0.0703929472
C   C131      1.0  0.46990  0.54910  0.36120  1.0000 -0.0703929472
C   C132      1.0  0.54910  0.46990  0.13880  1.0000 -0.0703929472
C   C133      1.0  0.63610  0.31250  0.57940  1.0000 -0.0703929472
C   C134      1.0  0.31250  0.63610  0.92060  1.0000 -0.0703929472
C   C135      1.0  0.36390  0.68750  0.42060  1.0000 -0.0703929472
C   C136      1.0  0.68750  0.36390  0.07940  1.0000 -0.0703929472
C   C137      1.0  0.58530  0.58430  0.51780  1.0000 -0.1772710015
C   C138      1.0  0.58430  0.58530  0.98220  1.0000 -0.1772710015
C   C139      1.0  0.41470  0.41570  0.48220  1.0000 -0.1772710015
C   C140      1.0  0.41570  0.41470  0.01780  1.0000 -0.1772710015
C   C141      1.0  0.70500  0.01960  0.24280  1.0000 -0.0589632555
C   C142      1.0  0.01960  0.70500  0.25720  1.0000 -0.0589632555
C   C143      1.0  0.29500  0.98040  0.75720  1.0000 -0.0589632555
C   C144      1.0  0.98040  0.29500  0.74280  1.0000 -0.0589632555
C   C145      1.0  0.87870  0.67290  0.52120  1.0000 -0.2101478507
C   C146      1.0  0.67290  0.87870  0.97880  1.0000 -0.2101478507
C   C147      1.0  0.12130  0.32710  0.47880  1.0000 -0.2101478507
C   C148      1.0  0.32710  0.12130  0.02120  1.0000 -0.2101478507
C   C149      1.0  0.73150  0.01890  0.90270  1.0000 -0.0703929472
C   C150      1.0  0.01890  0.73150  0.59730  1.0000 -0.0703929472
C   C151      1.0  0.26850  0.98110  0.09730  1.0000 -0.0703929472
C   C152      1.0  0.98110  0.26850  0.40270  1.0000 -0.0703929472
C   C153      1.0  0.75740  0.98780  0.19030  1.0000 -0.2101478507
C   C154      1.0  0.98780  0.75740  0.30970  1.0000 -0.2101478507
C   C155      1.0  0.24260  0.01220  0.80970  1.0000 -0.2101478507
C   C156      1.0  0.01220  0.24260  0.69030  1.0000 -0.2101478507
C   C157      1.0  0.60540  0.17980  0.82270  1.0000 0.5809223311
C   C158      1.0  0.17980  0.60540  0.67730  1.0000 0.5809223311
C   C159      1.0  0.39460  0.82020  0.17730  1.0000 0.5809223311
C   C160      1.0  0.82020  0.39460  0.32270  1.0000 0.5809223311
C   C161      1.0  0.42490  0.29310  0.64760  1.0000 0.5589877622
C   C162      1.0  0.29310  0.42490  0.85240  1.0000 0.5589877622
C   C163      1.0  0.57510  0.70690  0.35240  1.0000 0.5589877622
C   C164      1.0  0.70690  0.57510  0.14760  1.0000 0.5589877622
C   C165      1.0  0.56440  0.09960  0.29140  1.0000 0.5589877622
C   C166      1.0  0.09960  0.56440  0.20860  1.0000 0.5589877622
C   C167      1.0  0.43560  0.90040  0.70860  1.0000 0.5589877622
C   C168      1.0  0.90040  0.43560  0.79140  1.0000 0.5589877622
O   O1        1.0  0.43297  0.31457  0.69520  1.0000 -0.5534118158
O   O2        1.0  0.31457  0.43297  0.80480  1.0000 -0.5534118158
O   O3        1.0  0.56703  0.68543  0.30480  1.0000 -0.5534118158
O   O4        1.0  0.68543  0.56703  0.19520  1.0000 -0.5534118158
O   O5        1.0  0.66838  0.63578  0.68460  1.0000 -0.5289315326
O   O6        1.0  0.63578  0.66838  0.81540  1.0000 -0.5289315326
O   O7        1.0  0.33162  0.36422  0.31540  1.0000 -0.5289315326
O   O8        1.0  0.36422  0.33162  0.18460  1.0000 -0.5289315326
O   O9        1.0  0.50969  0.21109  0.62270  1.0000 -0.564878915
O   O10       1.0  0.21109  0.50969  0.87730  1.0000 -0.564878915
O   O11       1.0  0.49031  0.78891  0.37730  1.0000 -0.564878915
O   O12       1.0  0.78891  0.49031  0.12270  1.0000 -0.564878915
O   O13       1.0  0.74473  0.68293  0.68560  1.0000 -0.5713702036
O   O14       1.0  0.68293  0.74473  0.81440  1.0000 -0.5713702036
O   O15       1.0  0.25527  0.31707  0.31440  1.0000 -0.5713702036
O   O16       1.0  0.31707  0.25527  0.18560  1.0000 -0.5713702036
O   O17       1.0  0.47622  0.39862  0.69280  1.0000 -0.5070826454
O   O18       1.0  0.39862  0.47622  0.80720  1.0000 -0.5070826454
O   O19       1.0  0.52378  0.60138  0.30720  1.0000 -0.5070826454
O   O20       1.0  0.60138  0.52378  0.19280  1.0000 -0.5070826454
O   O21       1.0  0.64720  0.12480  0.77520  1.0000 -0.5890113456
O   O22       1.0  0.12480  0.64720  0.72480  1.0000 -0.5890113456
O   O23       1.0  0.35280  0.87520  0.22480  1.0000 -0.5890113456
O   O24       1.0  0.87520  0.35280  0.27520  1.0000 -0.5890113456
O   O25       1.0  0.05340  0.53300  0.51820  1.0000 -0.2192378929
O   O26       1.0  0.53300  0.05340  0.98180  1.0000 -0.2192378929
O   O27       1.0  0.94660  0.46700  0.48180  1.0000 -0.2192378929
O   O28       1.0  0.46700  0.94660  0.01820  1.0000 -0.2192378929
O   O29       1.0  0.59842  0.25422  0.64630  1.0000 -0.5983074052
O   O30       1.0  0.25422  0.59842  0.85370  1.0000 -0.5983074052
O   O31       1.0  0.40158  0.74578  0.35370  1.0000 -0.5983074052
O   O32       1.0  0.74578  0.40158  0.14630  1.0000 -0.5983074052
O   O33       1.0  0.57007  0.74667  0.59050  1.0000 -0.5713702036
O   O34       1.0  0.74667  0.57007  0.90950  1.0000 -0.5713702036
O   O35       1.0  0.42993  0.25333  0.40950  1.0000 -0.5713702036
O   O36       1.0  0.25333  0.42993  0.09050  1.0000 -0.5713702036
O   O37       1.0  0.63680  0.80400  0.59570  1.0000 -0.5713702036
O   O38       1.0  0.80400  0.63680  0.90430  1.0000 -0.5713702036
O   O39       1.0  0.36320  0.19600  0.40430  1.0000 -0.5713702036
O   O40       1.0  0.19600  0.36320  0.09570  1.0000 -0.5713702036
O   O41       1.0  0.64428  0.44588  0.52940  1.0000 -0.2192378929
O   O42       1.0  0.44588  0.64428  0.97060  1.0000 -0.2192378929
O   O43       1.0  0.35572  0.55412  0.47060  1.0000 -0.2192378929
O   O44       1.0  0.55412  0.35572  0.02940  1.0000 -0.2192378929
O   O45       1.0  0.77170  0.96550  0.07680  1.0000 -0.1987471101
O   O46       1.0  0.96550  0.77170  0.42320  1.0000 -0.1987471101
O   O47       1.0  0.22830  0.03450  0.92320  1.0000 -0.1987471101
O   O48       1.0  0.03450  0.22830  0.57680  1.0000 -0.1987471101
O   O49       1.0  0.53595  0.27115  0.81390  1.0000 -0.5205502404
O   O50       1.0  0.27115  0.53595  0.68610  1.0000 -0.5205502404
O   O51       1.0  0.46405  0.72885  0.18610  1.0000 -0.5205502404
O   O52       1.0  0.72885  0.46405  0.31390  1.0000 -0.5205502404
O   O53       1.0  0.47433  0.15733  0.28590  1.0000 -0.5786581976
O   O54       1.0  0.15733  0.47433  0.21410  1.0000 -0.5786581976
O   O55       1.0  0.52567  0.84267  0.71410  1.0000 -0.5786581976
O   O56       1.0  0.84267  0.52567  0.78590  1.0000 -0.5786581976
O   O57       1.0  0.60890  0.06770  0.34890  1.0000 -0.5205502404
O   O58       1.0  0.06770  0.60890  0.15110  1.0000 -0.5205502404
O   O59       1.0  0.39110  0.93230  0.65110  1.0000 -0.5205502404
O   O60       1.0  0.93230  0.39110  0.84890  1.0000 -0.5205502404
