# DDEC6 charges by PACMAN v1.1 (https://github.com/mtap-research/PACMAN-charge/)
data_2017[Eu][nan]3[ASR]6
_chemical_formula_sum              "Eu4 H36 C84 N4 O32"
_cell_length_a       11.5055
_cell_length_b       11.5055
_cell_length_c       21.9773
_cell_angle_alpha    83.8796
_cell_angle_beta     96.1204
_cell_angle_gamma    117.452

_symmetry_space_group_name_H-M    "P 1"
_symmetry_Int_Tables_number       1

loop_
  _symmetry_equiv_pos_as_xyz
  'x, y, z'

loop_
  _atom_site_type_symbol
  _atom_site_label
  _atom_site_symmetry_multiplicity
  _atom_site_fract_x
  _atom_site_fract_y
  _atom_site_fract_z
  _atom_site_occupancy
  _atom_site_charge
Eu  Eu1       1.0  0.33856  0.00166  0.02568  1.0000 2.0936113547
Eu  Eu2       1.0  0.00166  0.33856  0.47432  1.0000 2.0936113547
Eu  Eu3       1.0  0.66144  0.99834  0.97432  1.0000 2.0936113547
Eu  Eu4       1.0  0.99834  0.66144  0.52568  1.0000 2.0936113547
H   H1        1.0  0.62000  0.92280  0.31920  1.0000 0.1142140429
H   H2        1.0  0.92280  0.62000  0.18080  1.0000 0.1142140429
H   H3        1.0  0.38000  0.07720  0.68080  1.0000 0.1142140429
H   H4        1.0  0.07720  0.38000  0.81920  1.0000 0.1142140429
H   H5        1.0  0.04530  0.34350  0.18350  1.0000 0.1387776567
H   H6        1.0  0.34350  0.04530  0.31650  1.0000 0.13055666
H   H7        1.0  0.95470  0.65650  0.81650  1.0000 0.13055666
H   H8        1.0  0.65650  0.95470  0.68350  1.0000 0.13055666
H   H9        1.0  0.81260  0.65720  0.05110  1.0000 0.1466650727
H   H10       1.0  0.65720  0.81260  0.44890  1.0000 0.1466650727
H   H11       1.0  0.18740  0.34280  0.94890  1.0000 0.1466650727
H   H12       1.0  0.34280  0.18740  0.55110  1.0000 0.1466650727
H   H13       1.0  0.51670  0.34830  0.91670  1.0000 0.1387776567
H   H14       1.0  0.34830  0.51670  0.58330  1.0000 0.1387776567
H   H15       1.0  0.48330  0.65170  0.08330  1.0000 0.1387776567
H   H16       1.0  0.65170  0.48330  0.41670  1.0000 0.1387776567
H   H17       1.0  0.91780  0.27660  0.27090  1.0000 0.13055666
H   H18       1.0  0.27660  0.91780  0.22910  1.0000 0.13055666
H   H19       1.0  0.08220  0.72340  0.72910  1.0000 0.13055666
H   H20       1.0  0.72340  0.08220  0.77090  1.0000 0.13055666
H   H21       1.0  0.54010  0.56230  0.90760  1.0000 0.13055666
H   H22       1.0  0.56230  0.54010  0.59240  1.0000 0.13055666
H   H23       1.0  0.45990  0.43770  0.09240  1.0000 0.13055666
H   H24       1.0  0.43770  0.45990  0.40760  1.0000 0.13055666
H   H25       1.0  0.52590  0.90990  0.21930  1.0000 0.1387776567
H   H26       1.0  0.90990  0.52590  0.28070  1.0000 0.1387776567
H   H27       1.0  0.47410  0.09010  0.78070  1.0000 0.1387776567
H   H28       1.0  0.09010  0.47410  0.71930  1.0000 0.1387776567
H   H29       1.0  0.14440  0.52580  0.11380  1.0000 0.13055666
H   H30       1.0  0.52580  0.14440  0.38620  1.0000 0.13055666
H   H31       1.0  0.85560  0.47420  0.88620  1.0000 0.13055666
H   H32       1.0  0.47420  0.85560  0.61380  1.0000 0.13055666
H   H33       1.0  0.00980  0.58740  0.04410  1.0000 0.1466650727
H   H34       1.0  0.58740  0.00980  0.45590  1.0000 0.1466650727
H   H35       1.0  0.99020  0.41260  0.95590  1.0000 0.1466650727
H   H36       1.0  0.41260  0.99020  0.54410  1.0000 0.1466650727
C   C1        1.0  0.66250  0.99110  0.28890  1.0000 -0.0911825348
C   C2        1.0  0.99110  0.66250  0.21110  1.0000 -0.0911825348
C   C3        1.0  0.33750  0.00890  0.71110  1.0000 -0.0911825348
C   C4        1.0  0.00890  0.33750  0.78890  1.0000 -0.0911825348
C   C5        1.0  0.99330  0.36990  0.15450  1.0000 -0.1779184986
C   C6        1.0  0.36990  0.99330  0.34550  1.0000 -0.1779184986
C   C7        1.0  0.00670  0.63010  0.84550  1.0000 -0.1779184986
C   C8        1.0  0.63010  0.00670  0.65450  1.0000 -0.1779184986
C   C9        1.0  0.61510  0.05190  0.11860  1.0000 0.6505236577
C   C10       1.0  0.05190  0.61510  0.38140  1.0000 0.6505236577
C   C11       1.0  0.38490  0.94810  0.88140  1.0000 0.6505236577
C   C12       1.0  0.94810  0.38490  0.61860  1.0000 0.6505236577
C   C13       1.0  0.67660  0.62880  0.97900  1.0000 -0.0036434697
C   C14       1.0  0.62880  0.67660  0.52100  1.0000 -0.0036434697
C   C15       1.0  0.32340  0.37120  0.02100  1.0000 -0.0036434697
C   C16       1.0  0.37120  0.32340  0.47900  1.0000 -0.0036434697
C   C17       1.0  0.75490  0.59510  0.02300  1.0000 -0.1097214104
C   C18       1.0  0.59510  0.75490  0.47700  1.0000 -0.1097214104
C   C19       1.0  0.24510  0.40490  0.97700  1.0000 -0.1097214104
C   C20       1.0  0.40490  0.24510  0.52300  1.0000 -0.1097214104
C   C21       1.0  0.83650  0.43610  0.07160  1.0000 0.2214392412
C   C22       1.0  0.43610  0.83650  0.42840  1.0000 0.2214392412
C   C23       1.0  0.16350  0.56390  0.92840  1.0000 0.2214392412
C   C24       1.0  0.56390  0.16350  0.57160  1.0000 0.2214392412
C   C25       1.0  0.84120  0.11000  0.36920  1.0000 0.6059275816
C   C26       1.0  0.11000  0.84120  0.13080  1.0000 0.6059275816
C   C27       1.0  0.15880  0.89000  0.63080  1.0000 0.6059275816
C   C28       1.0  0.89000  0.15880  0.86920  1.0000 0.6059275816
C   C29       1.0  0.65950  0.37770  0.98610  1.0000 -0.0392174416
C   C30       1.0  0.37770  0.65950  0.51390  1.0000 -0.0392174416
C   C31       1.0  0.34050  0.62230  0.01390  1.0000 -0.0392174416
C   C32       1.0  0.62230  0.34050  0.48610  1.0000 -0.0392174416
C   C33       1.0  0.67260  0.07960  0.18370  1.0000 -0.011378192
C   C34       1.0  0.07960  0.67260  0.31630  1.0000 -0.011378192
C   C35       1.0  0.32740  0.92040  0.81630  1.0000 -0.011378192
C   C36       1.0  0.92040  0.32740  0.68370  1.0000 -0.011378192
C   C37       1.0  0.57930  0.41190  0.94300  1.0000 -0.0989898679
C   C38       1.0  0.41190  0.57930  0.55700  1.0000 -0.0989898679
C   C39       1.0  0.42070  0.58810  0.05700  1.0000 -0.0989898679
C   C40       1.0  0.58810  0.42070  0.44300  1.0000 -0.0989898679
C   C41       1.0  0.68010  0.76070  0.97730  1.0000 0.5579378705
C   C42       1.0  0.76070  0.68010  0.52270  1.0000 0.5579378705
C   C43       1.0  0.31990  0.23930  0.02270  1.0000 0.5579378705
C   C44       1.0  0.23930  0.31990  0.47730  1.0000 0.5579378705
C   C45       1.0  0.78840  0.19060  0.19880  1.0000 0.0266466445
C   C46       1.0  0.19060  0.78840  0.30120  1.0000 0.0266466445
C   C47       1.0  0.21160  0.80940  0.80120  1.0000 0.0266466445
C   C48       1.0  0.80940  0.21160  0.69880  1.0000 0.0266466445
C   C49       1.0  0.85610  0.30110  0.15260  1.0000 0.2214392412
C   C50       1.0  0.30110  0.85610  0.34740  1.0000 0.2214392412
C   C51       1.0  0.14390  0.69890  0.84740  1.0000 0.2214392412
C   C52       1.0  0.69890  0.14390  0.65260  1.0000 0.2214392412
C   C53       1.0  0.84020  0.20040  0.25980  1.0000 -0.1280652036
C   C54       1.0  0.20040  0.84020  0.24020  1.0000 -0.1280652036
C   C55       1.0  0.15980  0.79960  0.74020  1.0000 -0.1280652036
C   C56       1.0  0.79960  0.15980  0.75980  1.0000 -0.1280652036
C   C57       1.0  0.59100  0.53820  0.93840  1.0000 -0.0911825348
C   C58       1.0  0.53820  0.59100  0.56160  1.0000 -0.0911825348
C   C59       1.0  0.40900  0.46180  0.06160  1.0000 -0.0911825348
C   C60       1.0  0.46180  0.40900  0.43840  1.0000 -0.0911825348
C   C61       1.0  0.60790  0.98230  0.22930  1.0000 -0.1097214104
C   C62       1.0  0.98230  0.60790  0.27070  1.0000 -0.1097214104
C   C63       1.0  0.39210  0.01770  0.77070  1.0000 -0.1097214104
C   C64       1.0  0.01770  0.39210  0.72930  1.0000 -0.1097214104
C   C65       1.0  0.65380  0.24720  0.98300  1.0000 0.622934709
C   C66       1.0  0.24720  0.65380  0.51700  1.0000 0.622934709
C   C67       1.0  0.34620  0.75280  0.01700  1.0000 0.622934709
C   C68       1.0  0.75280  0.34620  0.48300  1.0000 0.622934709
C   C69       1.0  0.74860  0.46960  0.02580  1.0000 0.0397471299
C   C70       1.0  0.46960  0.74860  0.47420  1.0000 0.0397471299
C   C71       1.0  0.25140  0.53040  0.97420  1.0000 0.0397471299
C   C72       1.0  0.53040  0.25140  0.52580  1.0000 0.0397471299
C   C73       1.0  0.05160  0.47720  0.11350  1.0000 -0.0267948618
C   C74       1.0  0.47720  0.05160  0.38650  1.0000 -0.0267948618
C   C75       1.0  0.94840  0.52280  0.88650  1.0000 -0.0267948618
C   C76       1.0  0.52280  0.94840  0.61350  1.0000 -0.0267948618
C   C77       1.0  0.77950  0.09990  0.30450  1.0000 -0.011378192
C   C78       1.0  0.09990  0.77950  0.19550  1.0000 -0.011378192
C   C79       1.0  0.22050  0.90010  0.69550  1.0000 -0.011378192
C   C80       1.0  0.90010  0.22050  0.80450  1.0000 -0.011378192
C   C81       1.0  0.97240  0.51240  0.07190  1.0000 -0.1538429235
C   C82       1.0  0.51240  0.97240  0.42810  1.0000 -0.1553679754
C   C83       1.0  0.02760  0.48760  0.92810  1.0000 -0.1553679754
C   C84       1.0  0.48760  0.02760  0.57190  1.0000 -0.1538429235
N   N1        1.0  0.77810  0.33170  0.11077  1.0000 -0.2965738524
N   N2        1.0  0.33170  0.77810  0.38923  1.0000 -0.2965738524
N   N3        1.0  0.22190  0.66830  0.88923  1.0000 -0.2965738524
N   N4        1.0  0.66830  0.22190  0.61077  1.0000 -0.2965738524
O   O1        1.0  0.54377  0.14403  0.98439  1.0000 -0.729209279
O   O2        1.0  0.14403  0.54377  0.51561  1.0000 -0.729209279
O   O3        1.0  0.45623  0.85597  0.01561  1.0000 -0.729209279
O   O4        1.0  0.85597  0.45623  0.48439  1.0000 -0.729209279
O   O5        1.0  0.68626  0.04214  0.08155  1.0000 -0.6338739295
O   O6        1.0  0.04214  0.68626  0.41845  1.0000 -0.6338739295
O   O7        1.0  0.31374  0.95786  0.91845  1.0000 -0.6338739295
O   O8        1.0  0.95786  0.31374  0.58155  1.0000 -0.6338739295
O   O9        1.0  0.75761  0.24099  0.97654  1.0000 -0.582039823
O   O10       1.0  0.24099  0.75761  0.52346  1.0000 -0.582039823
O   O11       1.0  0.24239  0.75901  0.02346  1.0000 -0.582039823
O   O12       1.0  0.75901  0.24239  0.47654  1.0000 -0.582039823
O   O13       1.0  0.50019  0.03361  0.10824  1.0000 -0.6089203407
O   O14       1.0  0.03361  0.50019  0.39176  1.0000 -0.6089203407
O   O15       1.0  0.49981  0.96639  0.89176  1.0000 -0.6089203407
O   O16       1.0  0.96639  0.49981  0.60824  1.0000 -0.6089203407
O   O17       1.0  0.72734  0.83006  0.02269  1.0000 -0.582039823
O   O18       1.0  0.83006  0.72734  0.47731  1.0000 -0.582039823
O   O19       1.0  0.27266  0.16994  0.97731  1.0000 -0.582039823
O   O20       1.0  0.16994  0.27266  0.52269  1.0000 -0.582039823
O   O21       1.0  0.91970  0.22270  0.38567  1.0000 -0.6567485382
O   O22       1.0  0.22270  0.91970  0.11433  1.0000 -0.6567485382
O   O23       1.0  0.08030  0.77730  0.61433  1.0000 -0.6567485382
O   O24       1.0  0.77730  0.08030  0.88567  1.0000 -0.6567485382
O   O25       1.0  0.63117  0.79903  0.93028  1.0000 -0.5967495639
O   O26       1.0  0.79903  0.63117  0.56972  1.0000 -0.5967495639
O   O27       1.0  0.36883  0.20097  0.06972  1.0000 -0.5967495639
O   O28       1.0  0.20097  0.36883  0.43028  1.0000 -0.5967495639
O   O29       1.0  0.81368  0.00492  0.40171  1.0000 -0.509634604
O   O30       1.0  0.00492  0.81368  0.09829  1.0000 -0.509634604
O   O31       1.0  0.18632  0.99508  0.59829  1.0000 -0.509634604
O   O32       1.0  0.99508  0.18632  0.90171  1.0000 -0.509634604
