# DDEC6 charges by PACMAN v1.1 (https://github.com/mtap-research/PACMAN-charge/)
data_2017[Cu][ths]3[ASR]4
_chemical_formula_sum              "Cu8 C24 O48"
_cell_length_a       8.7069
_cell_length_b       33.9181
_cell_length_c       8.7595
_cell_angle_alpha    90
_cell_angle_beta     107.797
_cell_angle_gamma    90

_symmetry_space_group_name_H-M    "P 1"
_symmetry_Int_Tables_number       1

loop_
  _symmetry_equiv_pos_as_xyz
  'x, y, z'

loop_
  _atom_site_type_symbol
  _atom_site_label
  _atom_site_symmetry_multiplicity
  _atom_site_fract_x
  _atom_site_fract_y
  _atom_site_fract_z
  _atom_site_occupancy
  _atom_site_charge
Cu  Cu1       1.0  0.51304  0.79635  0.24930  1.0000 0.9192718173
Cu  Cu2       1.0  0.98696  0.29635  0.75070  1.0000 0.9192718173
Cu  Cu3       1.0  0.48696  0.20365  0.75070  1.0000 0.9088605866
Cu  Cu4       1.0  0.01304  0.70365  0.24930  1.0000 0.9192718173
Cu  Cu5       1.0  0.50017  0.95422  0.25936  1.0000 0.9088605866
Cu  Cu6       1.0  0.99983  0.45422  0.74064  1.0000 0.9088605866
Cu  Cu7       1.0  0.49983  0.04578  0.74064  1.0000 0.9088605866
Cu  Cu8       1.0  0.00017  0.54578  0.25936  1.0000 0.9088605866
C   C1        1.0  0.43410  0.87636  0.17990  1.0000 0.5690352276
C   C2        1.0  0.06590  0.37636  0.82010  1.0000 0.5690352276
C   C3        1.0  0.56590  0.12364  0.82010  1.0000 0.5690352276
C   C4        1.0  0.93410  0.62364  0.17990  1.0000 0.5690352276
C   C5        1.0  0.58810  0.87400  0.32840  1.0000 0.5609039023
C   C6        1.0  0.91190  0.37400  0.67160  1.0000 0.5609039023
C   C7        1.0  0.41190  0.12600  0.67160  1.0000 0.5609039023
C   C8        1.0  0.08810  0.62600  0.32840  1.0000 0.5609039023
C   C9        1.0  0.27300  0.74103  0.18360  1.0000 0.5520522997
C   C10       1.0  0.22700  0.24103  0.81640  1.0000 0.5520522997
C   C11       1.0  0.72700  0.25897  0.81640  1.0000 0.5520522997
C   C12       1.0  0.77300  0.75897  0.18360  1.0000 0.5520522997
C   C13       1.0  0.25930  0.76312  0.33430  1.0000 0.5403123528
C   C14       1.0  0.24070  0.26312  0.66570  1.0000 0.5403123528
C   C15       1.0  0.74070  0.23688  0.66570  1.0000 0.5403123528
C   C16       1.0  0.75930  0.73688  0.33430  1.0000 0.5403123528
C   C17       1.0  0.57860  0.98908  0.99840  1.0000 0.5609039023
C   C18       1.0  0.92140  0.48908  0.00160  1.0000 0.5609039023
C   C19       1.0  0.42140  0.01092  0.00160  1.0000 0.5609039023
C   C20       1.0  0.07860  0.51092  0.99840  1.0000 0.5609039023
C   C21       1.0  0.42900  0.98822  0.51380  1.0000 0.5403123528
C   C22       1.0  0.07100  0.48822  0.48620  1.0000 0.5403123528
C   C23       1.0  0.57100  0.01178  0.48620  1.0000 0.5403123528
C   C24       1.0  0.92900  0.51178  0.51380  1.0000 0.5403123528
O   O1        1.0  0.38455  0.84542  0.10642  1.0000 -0.4205870166
O   O2        1.0  0.11545  0.34542  0.89358  1.0000 -0.4205870166
O   O3        1.0  0.61545  0.15458  0.89358  1.0000 -0.4205870166
O   O4        1.0  0.88455  0.65458  0.10642  1.0000 -0.4205870166
O   O5        1.0  0.37085  0.90970  0.14520  1.0000 -0.4413720593
O   O6        1.0  0.12915  0.40970  0.85480  1.0000 -0.4305060282
O   O7        1.0  0.62915  0.09030  0.85480  1.0000 -0.4305060282
O   O8        1.0  0.87085  0.59030  0.14520  1.0000 -0.4305060282
O   O9        1.0  0.63544  0.84013  0.37801  1.0000 -0.4413720593
O   O10       1.0  0.86456  0.34013  0.62199  1.0000 -0.4413720593
O   O11       1.0  0.36456  0.15987  0.62199  1.0000 -0.4413720593
O   O12       1.0  0.13544  0.65987  0.37801  1.0000 -0.4413720593
O   O13       1.0  0.65266  0.90542  0.38557  1.0000 -0.4305060282
O   O14       1.0  0.84734  0.40542  0.61443  1.0000 -0.4305060282
O   O15       1.0  0.34734  0.09458  0.61443  1.0000 -0.4205870166
O   O16       1.0  0.15266  0.59458  0.38557  1.0000 -0.4305060282
O   O17       1.0  0.34994  0.79297  0.37574  1.0000 -0.4554961219
O   O18       1.0  0.15006  0.29297  0.62426  1.0000 -0.4488027349
O   O19       1.0  0.65006  0.20703  0.62426  1.0000 -0.4488027349
O   O20       1.0  0.84994  0.70703  0.37574  1.0000 -0.4488027349
O   O21       1.0  0.16590  0.75072  0.40360  1.0000 -0.3922932118
O   O22       1.0  0.33410  0.25072  0.59640  1.0000 -0.3922932118
O   O23       1.0  0.83410  0.24928  0.59640  1.0000 -0.3922932118
O   O24       1.0  0.66590  0.74928  0.40360  1.0000 -0.3922932118
O   O25       1.0  0.37575  0.75393  0.12217  1.0000 -0.4488027349
O   O26       1.0  0.12425  0.25393  0.87783  1.0000 -0.4488027349
O   O27       1.0  0.62425  0.24607  0.87783  1.0000 -0.4488027349
O   O28       1.0  0.87575  0.74607  0.12217  1.0000 -0.4488027349
O   O29       1.0  0.18301  0.71228  0.13533  1.0000 -0.4108129576
O   O30       1.0  0.31699  0.21228  0.86467  1.0000 -0.4108129576
O   O31       1.0  0.81699  0.28772  0.86467  1.0000 -0.4108129576
O   O32       1.0  0.68301  0.78772  0.13533  1.0000 -0.4108129576
O   O33       1.0  0.61849  0.95971  0.09075  1.0000 -0.4488027349
O   O34       1.0  0.88151  0.45971  0.90925  1.0000 -0.4488027349
O   O35       1.0  0.38151  0.04029  0.90925  1.0000 -0.4413720593
O   O36       1.0  0.11849  0.54029  0.09075  1.0000 -0.4488027349
O   O37       1.0  0.65227  0.00140  0.90900  1.0000 -0.4025738234
O   O38       1.0  0.84773  0.50140  0.09100  1.0000 -0.4025738234
O   O39       1.0  0.34773  0.99860  0.09100  1.0000 -0.4108129576
O   O40       1.0  0.15227  0.49860  0.90900  1.0000 -0.4025738234
O   O41       1.0  0.38232  0.95863  0.42796  1.0000 -0.4305060282
O   O42       1.0  0.11768  0.45863  0.57204  1.0000 -0.4305060282
O   O43       1.0  0.61768  0.04137  0.57204  1.0000 -0.4305060282
O   O44       1.0  0.88232  0.54137  0.42796  1.0000 -0.4305060282
O   O45       1.0  0.37262  0.00090  0.61927  1.0000 -0.4413720593
O   O46       1.0  0.12738  0.50090  0.38073  1.0000 -0.4413720593
O   O47       1.0  0.62738  0.99910  0.38073  1.0000 -0.4413720593
O   O48       1.0  0.87262  0.49910  0.61927  1.0000 -0.4413720593
