# DDEC6 charges by PACMAN v1.1 (https://github.com/mtap-research/PACMAN-charge/)
data_2017[Tb][nan]3[ASR]7
_chemical_formula_sum              "Tb4 H36 C84 N4 O32"
_cell_length_a       11.4688
_cell_length_b       11.4688
_cell_length_c       21.9364
_cell_angle_alpha    83.8614
_cell_angle_beta     96.1386
_cell_angle_gamma    117.487

_symmetry_space_group_name_H-M    "P 1"
_symmetry_Int_Tables_number       1

loop_
  _symmetry_equiv_pos_as_xyz
  'x, y, z'

loop_
  _atom_site_type_symbol
  _atom_site_label
  _atom_site_symmetry_multiplicity
  _atom_site_fract_x
  _atom_site_fract_y
  _atom_site_fract_z
  _atom_site_occupancy
  _atom_site_charge
Tb  Tb1       1.0  0.83840  0.49992  0.52574  1.0000 2.0679036821
Tb  Tb2       1.0  0.49992  0.83840  0.97426  1.0000 2.0679036821
Tb  Tb3       1.0  0.16160  0.50008  0.47426  1.0000 2.0679036821
Tb  Tb4       1.0  0.50008  0.16160  0.02574  1.0000 2.0679036821
H   H1        1.0  0.11960  0.42060  0.81920  1.0000 0.1131589109
H   H2        1.0  0.42060  0.11960  0.68080  1.0000 0.1131589109
H   H3        1.0  0.88040  0.57940  0.18080  1.0000 0.1131589109
H   H4        1.0  0.57940  0.88040  0.31920  1.0000 0.1131589109
H   H5        1.0  0.54690  0.84550  0.68340  1.0000 0.1310585441
H   H6        1.0  0.84550  0.54690  0.81660  1.0000 0.1310585441
H   H7        1.0  0.45310  0.15450  0.31660  1.0000 0.1310585441
H   H8        1.0  0.15450  0.45310  0.18340  1.0000 0.1310585441
H   H9        1.0  0.31390  0.15890  0.55040  1.0000 0.1464704195
H   H10       1.0  0.15890  0.31390  0.94960  1.0000 0.1464704195
H   H11       1.0  0.68610  0.84110  0.44960  1.0000 0.1464704195
H   H12       1.0  0.84110  0.68610  0.05040  1.0000 0.1464704195
H   H13       1.0  0.01580  0.85000  0.41500  1.0000 0.1424746694
H   H14       1.0  0.85000  0.01580  0.08500  1.0000 0.1424746694
H   H15       1.0  0.98420  0.15000  0.58500  1.0000 0.1424746694
H   H16       1.0  0.15000  0.98420  0.91500  1.0000 0.1424746694
H   H17       1.0  0.03790  0.06410  0.40700  1.0000 0.1310585441
H   H18       1.0  0.06410  0.03790  0.09300  1.0000 0.1310585441
H   H19       1.0  0.96210  0.93590  0.59300  1.0000 0.1310585441
H   H20       1.0  0.93590  0.96210  0.90700  1.0000 0.1310585441
H   H21       1.0  0.41600  0.77660  0.77100  1.0000 0.1310585441
H   H22       1.0  0.77660  0.41600  0.72900  1.0000 0.1310585441
H   H23       1.0  0.58400  0.22340  0.22900  1.0000 0.1310585441
H   H24       1.0  0.22340  0.58400  0.27100  1.0000 0.1310585441
H   H25       1.0  0.02390  0.40890  0.71940  1.0000 0.1310585441
H   H26       1.0  0.40890  0.02390  0.78060  1.0000 0.1310585441
H   H27       1.0  0.97610  0.59110  0.28060  1.0000 0.1310585441
H   H28       1.0  0.59110  0.97610  0.21940  1.0000 0.1310585441
H   H29       1.0  0.51020  0.08980  0.54330  1.0000 0.1464704195
H   H30       1.0  0.08980  0.51020  0.95670  1.0000 0.1464704195
H   H31       1.0  0.48980  0.91020  0.45670  1.0000 0.1464704195
H   H32       1.0  0.91020  0.48980  0.04330  1.0000 0.1464704195
H   H33       1.0  0.64460  0.02800  0.61350  1.0000 0.1310585441
H   H34       1.0  0.02800  0.64460  0.88650  1.0000 0.1310585441
H   H35       1.0  0.35540  0.97200  0.38650  1.0000 0.1310585441
H   H36       1.0  0.97200  0.35540  0.11350  1.0000 0.1310585441
C   C1        1.0  0.16152  0.48968  0.78891  1.0000 -0.0899743089
C   C2        1.0  0.48968  0.16152  0.71109  1.0000 -0.0899743089
C   C3        1.0  0.83848  0.51032  0.21109  1.0000 -0.0899743089
C   C4        1.0  0.51032  0.83848  0.28891  1.0000 -0.0899743089
C   C5        1.0  0.11405  0.55101  0.61808  1.0000 0.6536235059
C   C6        1.0  0.55101  0.11405  0.88192  1.0000 0.6536235059
C   C7        1.0  0.88595  0.44899  0.38192  1.0000 0.6536235059
C   C8        1.0  0.44899  0.88595  0.11808  1.0000 0.6536235059
C   C9        1.0  0.49427  0.87137  0.65434  1.0000 -0.1834193026
C   C10       1.0  0.87137  0.49427  0.84566  1.0000 -0.1834193026
C   C11       1.0  0.50573  0.12863  0.34566  1.0000 -0.1834193026
C   C12       1.0  0.12863  0.50573  0.15434  1.0000 -0.1834193026
C   C13       1.0  0.25539  0.09661  0.52238  1.0000 -0.1080281994
C   C14       1.0  0.09661  0.25539  0.97762  1.0000 -0.1080281994
C   C15       1.0  0.74461  0.90339  0.47762  1.0000 -0.1080281994
C   C16       1.0  0.90339  0.74461  0.02238  1.0000 -0.1080281994
C   C17       1.0  0.33567  0.93713  0.57082  1.0000 0.2247693384
C   C18       1.0  0.93713  0.33567  0.92918  1.0000 0.2247693384
C   C19       1.0  0.66433  0.06287  0.42918  1.0000 0.2247693384
C   C20       1.0  0.06287  0.66433  0.07082  1.0000 0.2247693384
C   C21       1.0  0.28830  0.68990  0.69832  1.0000 0.0235857343
C   C22       1.0  0.68990  0.28830  0.80168  1.0000 0.0235857343
C   C23       1.0  0.71170  0.31010  0.30168  1.0000 0.0235857343
C   C24       1.0  0.31010  0.71170  0.19832  1.0000 0.0235857343
C   C25       1.0  0.17150  0.57790  0.68303  1.0000 -0.0187548259
C   C26       1.0  0.57790  0.17150  0.81697  1.0000 -0.0187548259
C   C27       1.0  0.82850  0.42210  0.31697  1.0000 -0.0187548259
C   C28       1.0  0.42210  0.82850  0.18303  1.0000 -0.0187548259
C   C29       1.0  0.17639  0.13061  0.47782  1.0000 0.0037422709
C   C30       1.0  0.13061  0.17639  0.02218  1.0000 0.0037422709
C   C31       1.0  0.82361  0.86939  0.52218  1.0000 0.0037422709
C   C32       1.0  0.86939  0.82361  0.97782  1.0000 0.0037422709
C   C33       1.0  0.15627  0.87893  0.48530  1.0000 -0.0187548259
C   C34       1.0  0.87893  0.15627  0.01470  1.0000 -0.0187548259
C   C35       1.0  0.84373  0.12107  0.51470  1.0000 -0.0187548259
C   C36       1.0  0.12107  0.84373  0.98530  1.0000 -0.0187548259
C   C37       1.0  0.35501  0.80079  0.65209  1.0000 0.2270758258
C   C38       1.0  0.80079  0.35501  0.84791  1.0000 0.2270758258
C   C39       1.0  0.64499  0.19921  0.34791  1.0000 0.2270758258
C   C40       1.0  0.19921  0.64499  0.15209  1.0000 0.2270758258
C   C41       1.0  0.18032  0.26388  0.47643  1.0000 0.5524280215
C   C42       1.0  0.26388  0.18032  0.02357  1.0000 0.5524280215
C   C43       1.0  0.81968  0.73612  0.52357  1.0000 0.5524280215
C   C44       1.0  0.73612  0.81968  0.97643  1.0000 0.5524280215
C   C45       1.0  0.07763  0.91337  0.44178  1.0000 -0.1080281994
C   C46       1.0  0.91337  0.07763  0.05822  1.0000 -0.1080281994
C   C47       1.0  0.92237  0.08663  0.55822  1.0000 -0.1080281994
C   C48       1.0  0.08663  0.92237  0.94178  1.0000 -0.1080281994
C   C49       1.0  0.08945  0.03995  0.43756  1.0000 -0.0899743089
C   C50       1.0  0.03995  0.08945  0.06244  1.0000 -0.0899743089
C   C51       1.0  0.91055  0.96005  0.56244  1.0000 -0.0899743089
C   C52       1.0  0.96005  0.91055  0.93756  1.0000 -0.0899743089
C   C53       1.0  0.34091  0.61069  0.86897  1.0000 0.6007099594
C   C54       1.0  0.61069  0.34091  0.63103  1.0000 0.6007099594
C   C55       1.0  0.65909  0.38931  0.13103  1.0000 0.6007099594
C   C56       1.0  0.38931  0.65909  0.36897  1.0000 0.6007099594
C   C57       1.0  0.33873  0.69967  0.75979  1.0000 -0.1272220393
C   C58       1.0  0.69967  0.33873  0.74021  1.0000 -0.1272220393
C   C59       1.0  0.66127  0.30033  0.24021  1.0000 -0.1272220393
C   C60       1.0  0.30033  0.66127  0.25979  1.0000 -0.1272220393
C   C61       1.0  0.15084  0.74616  0.48275  1.0000 0.6204837704
C   C62       1.0  0.74616  0.15084  0.01725  1.0000 0.6204837704
C   C63       1.0  0.84916  0.25384  0.51725  1.0000 0.6204837704
C   C64       1.0  0.25384  0.84916  0.98275  1.0000 0.6204837704
C   C65       1.0  0.24738  0.97102  0.52518  1.0000 0.0313266212
C   C66       1.0  0.97102  0.24738  0.97482  1.0000 0.0313266212
C   C67       1.0  0.75262  0.02898  0.47482  1.0000 0.0313266212
C   C68       1.0  0.02898  0.75262  0.02518  1.0000 0.0313266212
C   C69       1.0  0.10661  0.48119  0.72927  1.0000 -0.1080281994
C   C70       1.0  0.48119  0.10661  0.77073  1.0000 -0.1080281994
C   C71       1.0  0.89339  0.51881  0.27073  1.0000 -0.1080281994
C   C72       1.0  0.51881  0.89339  0.22927  1.0000 -0.1080281994
C   C73       1.0  0.27892  0.60008  0.80455  1.0000 -0.0111695431
C   C74       1.0  0.60008  0.27892  0.69545  1.0000 -0.0111695431
C   C75       1.0  0.72108  0.39992  0.19545  1.0000 -0.0111695431
C   C76       1.0  0.39992  0.72108  0.30455  1.0000 -0.0111695431
C   C77       1.0  0.47252  0.01468  0.57115  1.0000 -0.1567062405
C   C78       1.0  0.01468  0.47252  0.92885  1.0000 -0.1567062405
C   C79       1.0  0.52748  0.98532  0.42885  1.0000 -0.1567062405
C   C80       1.0  0.98532  0.52748  0.07115  1.0000 -0.1567062405
C   C81       1.0  0.55138  0.97882  0.61312  1.0000 -0.0267121248
C   C82       1.0  0.97882  0.55138  0.88688  1.0000 -0.0267121248
C   C83       1.0  0.44862  0.02118  0.38688  1.0000 -0.0267121248
C   C84       1.0  0.02118  0.44862  0.11312  1.0000 -0.0267121248
N   N1        1.0  0.27794  0.83186  0.61046  1.0000 -0.2992036646
N   N2        1.0  0.83186  0.27794  0.88954  1.0000 -0.2992036646
N   N3        1.0  0.72206  0.16814  0.38954  1.0000 -0.2992036646
N   N4        1.0  0.16814  0.72206  0.11046  1.0000 -0.2992036646
O   O1        1.0  0.04240  0.64282  0.48529  1.0000 -0.7028367972
O   O2        1.0  0.64282  0.04240  0.01471  1.0000 -0.7028367972
O   O3        1.0  0.95760  0.35718  0.51471  1.0000 -0.7028367972
O   O4        1.0  0.35718  0.95760  0.98529  1.0000 -0.7028367972
O   O5        1.0  0.18667  0.54259  0.58051  1.0000 -0.6414406305
O   O6        1.0  0.54259  0.18667  0.91949  1.0000 -0.6414406305
O   O7        1.0  0.81333  0.45741  0.41949  1.0000 -0.6414406305
O   O8        1.0  0.45741  0.81333  0.08051  1.0000 -0.6414406305
O   O9        1.0  0.25520  0.74056  0.47566  1.0000 -0.5815358093
O   O10       1.0  0.74056  0.25520  0.02434  1.0000 -0.5815358093
O   O11       1.0  0.74480  0.25944  0.52434  1.0000 -0.5815358093
O   O12       1.0  0.25944  0.74480  0.97566  1.0000 -0.5815358093
O   O13       1.0  0.99764  0.53158  0.60795  1.0000 -0.6109129196
O   O14       1.0  0.53158  0.99764  0.89205  1.0000 -0.6109129196
O   O15       1.0  0.00236  0.46842  0.39205  1.0000 -0.6109129196
O   O16       1.0  0.46842  0.00236  0.10795  1.0000 -0.6109129196
O   O17       1.0  0.22776  0.33232  0.52231  1.0000 -0.5815358093
O   O18       1.0  0.33232  0.22776  0.97769  1.0000 -0.5815358093
O   O19       1.0  0.77224  0.66768  0.47769  1.0000 -0.5815358093
O   O20       1.0  0.66768  0.77224  0.02231  1.0000 -0.5815358093
O   O21       1.0  0.13178  0.30378  0.42966  1.0000 -0.5961362874
O   O22       1.0  0.30378  0.13178  0.07034  1.0000 -0.5961362874
O   O23       1.0  0.86822  0.69622  0.57034  1.0000 -0.5961362874
O   O24       1.0  0.69622  0.86822  0.92966  1.0000 -0.5961362874
O   O25       1.0  0.31389  0.50469  0.90202  1.0000 -0.5077012038
O   O26       1.0  0.50469  0.31389  0.59798  1.0000 -0.5077012038
O   O27       1.0  0.68611  0.49531  0.09798  1.0000 -0.5077012038
O   O28       1.0  0.49531  0.68611  0.40202  1.0000 -0.5077012038
O   O29       1.0  0.41758  0.72322  0.88575  1.0000 -0.6414406305
O   O30       1.0  0.72322  0.41758  0.61425  1.0000 -0.6414406305
O   O31       1.0  0.58242  0.27678  0.11425  1.0000 -0.6414406305
O   O32       1.0  0.27678  0.58242  0.38575  1.0000 -0.6414406305
