# DDEC6 charges by PACMAN v1.1 (https://github.com/mtap-research/PACMAN-charge/)
data_2017[Dy][kgd]2[ASR]1
_chemical_formula_sum              "Dy2 H20 C22 N2 O14"
_cell_length_a       8.573
_cell_length_b       9.0161
_cell_length_c       10.332
_cell_angle_alpha    104.63
_cell_angle_beta     101.61
_cell_angle_gamma    95.55

_symmetry_space_group_name_H-M    "P 1"
_symmetry_Int_Tables_number       1

loop_
  _symmetry_equiv_pos_as_xyz
  'x, y, z'

loop_
  _atom_site_type_symbol
  _atom_site_label
  _atom_site_symmetry_multiplicity
  _atom_site_fract_x
  _atom_site_fract_y
  _atom_site_fract_z
  _atom_site_occupancy
  _atom_site_charge
Dy  Dy1       1.0  0.42345  0.28799  0.02898  1.0000 2.0467700149
Dy  Dy2       1.0  0.57655  0.71201  0.97102  1.0000 2.0467700149
H   H1        1.0  0.75800  0.21560  0.39510  1.0000 0.1217982729
H   H2        1.0  0.67450  0.31630  0.59020  1.0000 0.1114209453
H   H3        1.0  0.75920  0.74210  0.54730  1.0000 0.1217982729
H   H4        1.0  0.85610  0.64650  0.36090  1.0000 0.1217982729
H   H5        1.0  0.92970  0.16620  0.27760  1.0000 0.137183358
H   H6        1.0  0.97010  0.18630  0.14130  1.0000 0.156397366
H   H7        1.0  0.97570  0.40250  0.09310  1.0000 0.156397366
H   H8        1.0  0.00940  0.54290  0.22500  1.0000 0.137183358
H   H9        1.0  0.55120  0.20430  0.84030  1.0000 0.3402258541
H   H10       1.0  0.48660  0.27370  0.74150  1.0000 0.382563063
H   H11       1.0  0.24200  0.78440  0.60490  1.0000 0.1217982729
H   H12       1.0  0.32550  0.68370  0.40980  1.0000 0.1114209453
H   H13       1.0  0.24080  0.25790  0.45270  1.0000 0.1217982729
H   H14       1.0  0.14390  0.35350  0.63910  1.0000 0.1217982729
H   H15       1.0  0.07030  0.83380  0.72240  1.0000 0.137183358
H   H16       1.0  0.02990  0.81370  0.85870  1.0000 0.156397366
H   H17       1.0  0.02430  0.59750  0.90690  1.0000 0.156397366
H   H18       1.0  0.99060  0.45710  0.77500  1.0000 0.137183358
H   H19       1.0  0.44880  0.79570  0.15970  1.0000 0.3402258541
H   H20       1.0  0.51340  0.72630  0.25850  1.0000 0.382563063
C   C1        1.0  0.81800  0.41940  0.35390  1.0000 0.1912841881
C   C2        1.0  0.76100  0.32220  0.42630  1.0000 -0.1990400468
C   C3        1.0  0.70870  0.38310  0.54260  1.0000 -0.0809915316
C   C4        1.0  0.70500  0.53830  0.59160  1.0000 -0.0659426366
C   C5        1.0  0.76100  0.63600  0.51780  1.0000 -0.0809915316
C   C6        1.0  0.81690  0.57850  0.40550  1.0000 -0.1903901314
C   C7        1.0  0.65100  0.60100  0.71770  1.0000 0.5545270825
C   C8        1.0  0.88970  0.19800  0.19570  1.0000 -0.2714437162
C   C9        1.0  0.73640  0.08940  0.11320  1.0000 0.6918970729
C   C10       1.0  0.92640  0.46140  0.16200  1.0000 -0.2566035007
C   C11       1.0  0.79790  0.53650  0.09070  1.0000 0.6361772204
C   C12       1.0  0.18200  0.58060  0.64610  1.0000 0.1912841881
C   C13       1.0  0.23900  0.67780  0.57370  1.0000 -0.1990400468
C   C14       1.0  0.29130  0.61690  0.45740  1.0000 -0.0809915316
C   C15       1.0  0.29500  0.46170  0.40840  1.0000 -0.0659426366
C   C16       1.0  0.23900  0.36400  0.48220  1.0000 -0.0809915316
C   C17       1.0  0.18310  0.42150  0.59450  1.0000 -0.1903901314
C   C18       1.0  0.34900  0.39900  0.28230  1.0000 0.5545270825
C   C19       1.0  0.11030  0.80200  0.80430  1.0000 -0.2714437162
C   C20       1.0  0.26360  0.91060  0.88680  1.0000 0.6918970729
C   C21       1.0  0.07360  0.53860  0.83800  1.0000 -0.2566035007
C   C22       1.0  0.20210  0.46350  0.90930  1.0000 0.6361772204
N   N1        1.0  0.87420  0.36050  0.23720  1.0000 -0.0594477569
N   N2        1.0  0.12580  0.63950  0.76280  1.0000 -0.0594477569
O   O1        1.0  0.61010  0.14600  0.08530  1.0000 -0.7046024417
O   O2        1.0  0.74700  0.94940  0.07650  1.0000 -0.6420578177
O   O3        1.0  0.65000  0.48030  0.06640  1.0000 -0.7340739583
O   O4        1.0  0.84000  0.65030  0.05440  1.0000 -0.5858623003
O   O5        1.0  0.59570  0.51040  0.77910  1.0000 -0.6420578177
O   O6        1.0  0.66050  0.74720  0.77130  1.0000 -0.6420578177
O   O7        1.0  0.46910  0.23880  0.80720  1.0000 -0.7518587028
O   O8        1.0  0.38990  0.85400  0.91470  1.0000 -0.7046024417
O   O9        1.0  0.25300  0.05060  0.92350  1.0000 -0.6420578177
O   O10       1.0  0.35000  0.51970  0.93360  1.0000 -0.7340739583
O   O11       1.0  0.16000  0.34970  0.94560  1.0000 -0.5858623003
O   O12       1.0  0.40430  0.48960  0.22090  1.0000 -0.6420578177
O   O13       1.0  0.33950  0.25280  0.22870  1.0000 -0.6420578177
O   O14       1.0  0.53090  0.76120  0.19280  1.0000 -0.7518587028
