# DDEC6 charges by PACMAN v1.1 (https://github.com/mtap-research/PACMAN-charge/)
data_2017[Nd][nan]3[ASR]7
_chemical_formula_sum              "Nd2 P6 H30 C24 O24"
_cell_length_a       10.3912
_cell_length_b       11.8723
_cell_length_c       11.879
_cell_angle_alpha    82.379
_cell_angle_beta     87.725
_cell_angle_gamma    81.666

_symmetry_space_group_name_H-M    "P 1"
_symmetry_Int_Tables_number       1

loop_
  _symmetry_equiv_pos_as_xyz
  'x, y, z'

loop_
  _atom_site_type_symbol
  _atom_site_label
  _atom_site_symmetry_multiplicity
  _atom_site_fract_x
  _atom_site_fract_y
  _atom_site_fract_z
  _atom_site_occupancy
  _atom_site_charge
Nd  Nd1       1.0  0.98104  0.07738  0.23929  1.0000 2.1886083465
Nd  Nd2       1.0  0.01896  0.92262  0.76071  1.0000 2.1886083465
P   P1        1.0  0.70199  0.31665  0.27806  1.0000 1.2626752835
P   P2        1.0  0.29801  0.68335  0.72194  1.0000 1.2626752835
P   P3        1.0  0.11861  0.11678  0.50462  1.0000 1.2735909205
P   P4        1.0  0.88139  0.88322  0.49538  1.0000 1.2735909205
P   P5        1.0  0.84630  0.10744  0.96536  1.0000 1.2735909205
P   P6        1.0  0.15370  0.89256  0.03464  1.0000 1.2735909205
H   H1        1.0  0.55130  0.33030  0.17880  1.0000 0.3748857361
H   H2        1.0  0.44870  0.66970  0.82120  1.0000 0.3748857361
H   H3        1.0  0.81960  0.32890  0.53750  1.0000 0.3434028309
H   H4        1.0  0.18040  0.67110  0.46250  1.0000 0.3434028309
H   H5        1.0  0.20250  0.25640  0.44840  1.0000 0.3824759107
H   H6        1.0  0.79750  0.74360  0.55160  1.0000 0.3824759107
H   H7        1.0  0.24510  0.94660  0.31310  1.0000 0.3469748031
H   H8        1.0  0.75490  0.05340  0.68690  1.0000 0.3469748031
H   H9        1.0  0.75590  0.26840  0.95680  1.0000 0.3886663001
H   H10       1.0  0.24410  0.73160  0.04320  1.0000 0.3886663001
H   H11       1.0  0.75690  0.94850  0.21130  1.0000 0.3622182887
H   H12       1.0  0.24310  0.05150  0.78870  1.0000 0.3622182887
H   H13       1.0  0.67120  0.24630  0.46790  1.0000 0.113353571
H   H14       1.0  0.32880  0.75370  0.53210  1.0000 0.113353571
H   H15       1.0  0.45620  0.31410  0.50520  1.0000 0.1185080108
H   H16       1.0  0.54380  0.68590  0.49480  1.0000 0.1185080108
H   H17       1.0  0.70340  0.54500  0.44000  1.0000 0.1267953944
H   H18       1.0  0.29660  0.45500  0.56000  1.0000 0.1267953944
H   H19       1.0  0.20260  0.92680  0.48460  1.0000 0.1267953944
H   H20       1.0  0.79740  0.07320  0.51540  1.0000 0.1267953944
H   H21       1.0  0.35780  0.93020  0.63800  1.0000 0.1185080108
H   H22       1.0  0.64220  0.06980  0.36200  1.0000 0.1185080108
H   H23       1.0  0.42660  0.07090  0.32000  1.0000 0.1185080108
H   H24       1.0  0.57340  0.92910  0.68000  1.0000 0.1185080108
H   H25       1.0  0.82010  0.91540  0.02350  1.0000 0.139518125
H   H26       1.0  0.17990  0.08460  0.97650  1.0000 0.139518125
H   H27       1.0  0.56490  0.10570  0.13250  1.0000 0.1185080108
H   H28       1.0  0.43510  0.89430  0.86750  1.0000 0.1185080108
H   H29       1.0  0.65380  0.88160  0.90740  1.0000 0.1185080108
H   H30       1.0  0.34620  0.11840  0.09260  1.0000 0.1185080108
C   C1        1.0  0.69440  0.31990  0.43140  1.0000 -0.1596884299
C   C2        1.0  0.30560  0.68010  0.56860  1.0000 -0.1596884299
C   C3        1.0  0.59520  0.41420  0.46790  1.0000 0.0515615326
C   C4        1.0  0.40480  0.58580  0.53210  1.0000 0.0515615326
C   C5        1.0  0.47430  0.38880  0.50310  1.0000 -0.1313778292
C   C6        1.0  0.52570  0.61120  0.49690  1.0000 -0.1313778292
C   C7        1.0  0.62180  0.52670  0.46420  1.0000 -0.1077199745
C   C8        1.0  0.37820  0.47330  0.53580  1.0000 -0.1077199745
C   C9        1.0  0.22770  0.99990  0.44880  1.0000 -0.1655337432
C   C10       1.0  0.77230  0.00010  0.55120  1.0000 -0.1655337432
C   C11       1.0  0.36950  0.00040  0.47390  1.0000 0.0624628309
C   C12       1.0  0.63050  0.99960  0.52610  1.0000 0.0624628309
C   C13       1.0  0.41460  0.95830  0.58220  1.0000 -0.1414933968
C   C14       1.0  0.58540  0.04170  0.41780  1.0000 -0.1414933968
C   C15       1.0  0.45570  0.04210  0.39260  1.0000 -0.1313778292
C   C16       1.0  0.54430  0.95790  0.60740  1.0000 -0.1313778292
C   C17       1.0  0.77430  0.98740  0.04590  1.0000 -0.1596884299
C   C18       1.0  0.22570  0.01260  0.95410  1.0000 -0.1655337432
C   C19       1.0  0.63110  0.99290  0.02380  1.0000 0.0721741301
C   C20       1.0  0.36890  0.00710  0.97620  1.0000 0.0721741301
C   C21       1.0  0.53900  0.06320  0.07920  1.0000 -0.1313778292
C   C22       1.0  0.46100  0.93680  0.92080  1.0000 -0.1313778292
C   C23       1.0  0.59220  0.92930  0.94460  1.0000 -0.1313778292
C   C24       1.0  0.40780  0.07070  0.05540  1.0000 -0.1313778292
O   O1        1.0  0.79990  0.21570  0.25910  1.0000 -0.8693427362
O   O2        1.0  0.20010  0.78430  0.74090  1.0000 -0.8693427362
O   O3        1.0  0.56440  0.30120  0.24470  1.0000 -0.6145115513
O   O4        1.0  0.43560  0.69880  0.75530  1.0000 -0.6145115513
O   O5        1.0  0.73910  0.42950  0.22010  1.0000 -0.6846091169
O   O6        1.0  0.26090  0.57050  0.77990  1.0000 -0.6846091169
O   O7        1.0  0.82090  0.33060  0.46830  1.0000 -0.3898692745
O   O8        1.0  0.17910  0.66940  0.53170  1.0000 -0.3898692745
O   O9        1.0  0.08170  0.07310  0.62400  1.0000 -0.853092255
O   O10       1.0  0.91830  0.92690  0.37600  1.0000 -0.853092255
O   O11       1.0  0.01090  0.15360  0.42080  1.0000 -0.8404051978
O   O12       1.0  0.98910  0.84640  0.57920  1.0000 -0.8404051978
O   O13       1.0  0.19810  0.21940  0.51150  1.0000 -0.5901295561
O   O14       1.0  0.80190  0.78060  0.48850  1.0000 -0.5901295561
O   O15       1.0  0.20440  0.00980  0.33000  1.0000 -0.5292750615
O   O16       1.0  0.79560  0.99020  0.67000  1.0000 -0.5292750615
O   O17       1.0  0.89400  0.07030  0.85340  1.0000 -0.8693427362
O   O18       1.0  0.10600  0.92970  0.14660  1.0000 -0.8693427362
O   O19       1.0  0.94410  0.14110  0.03970  1.0000 -0.8693427362
O   O20       1.0  0.05590  0.85890  0.96030  1.0000 -0.8693427362
O   O21       1.0  0.73340  0.20940  0.94000  1.0000 -0.5901295561
O   O22       1.0  0.26660  0.79060  0.06000  1.0000 -0.5901295561
O   O23       1.0  0.79830  0.99000  0.16380  1.0000 -0.5196826476
O   O24       1.0  0.20170  0.01000  0.83620  1.0000 -0.5196826476
