# DDEC6 charges by PACMAN v1.1 (https://github.com/mtap-research/PACMAN-charge/)
data_2017[Cd][sql]2[ASR]11
_chemical_formula_sum              "Cd4 H80 C96 N16"
_cell_length_a       15.248
_cell_length_b       15.9
_cell_length_c       16.581
_cell_angle_alpha    90
_cell_angle_beta     90
_cell_angle_gamma    90

_symmetry_space_group_name_H-M    "P 1"
_symmetry_Int_Tables_number       1

loop_
  _symmetry_equiv_pos_as_xyz
  'x, y, z'

loop_
  _atom_site_type_symbol
  _atom_site_label
  _atom_site_symmetry_multiplicity
  _atom_site_fract_x
  _atom_site_fract_y
  _atom_site_fract_z
  _atom_site_occupancy
  _atom_site_charge
Cd  Cd1       1.0  0.25098  0.21128  0.99863  1.0000 0.5983808629
Cd  Cd2       1.0  0.75098  0.71128  0.50137  1.0000 0.5983808629
Cd  Cd3       1.0  0.74902  0.71128  0.00137  1.0000 0.5983808629
Cd  Cd4       1.0  0.24902  0.21128  0.49863  1.0000 0.5983808629
H   H1        1.0  0.94660  0.64760  0.46990  1.0000 0.0869198285
H   H2        1.0  0.02790  0.55980  0.38980  1.0000 0.1174139158
H   H3        1.0  0.81060  0.51620  0.25860  1.0000 0.1174139158
H   H4        1.0  0.73620  0.60660  0.34150  1.0000 0.0830777417
H   H5        1.0  0.94280  0.44170  0.22140  1.0000 0.1079153504
H   H6        1.0  0.27990  0.02640  0.93410  1.0000 0.0869198285
H   H7        1.0  0.35970  0.94780  0.84480  1.0000 0.1174139158
H   H8        1.0  0.44160  0.16420  0.74350  1.0000 0.1174139158
H   H9        1.0  0.35980  0.23640  0.83710  1.0000 0.0830777417
H   H10       1.0  0.49170  0.02820  0.68460  1.0000 0.1079153504
H   H11       1.0  0.47980  0.89700  0.79180  1.0000 0.1079153504
H   H12       1.0  0.29120  0.31900  0.15790  1.0000 0.0830777417
H   H13       1.0  0.22530  0.40430  0.25240  1.0000 0.1174139158
H   H14       1.0  0.09030  0.46660  0.31150  1.0000 0.1079153504
H   H15       1.0  0.99220  0.34410  0.15400  1.0000 0.1174139158
H   H16       1.0  0.06490  0.25890  0.06490  1.0000 0.0869198285
H   H17       1.0  0.69170  0.89440  0.54160  1.0000 0.0869198285
H   H18       1.0  0.60350  0.97450  0.62350  1.0000 0.1174139158
H   H19       1.0  0.54690  0.76460  0.74850  1.0000 0.1174139158
H   H20       1.0  0.63830  0.69160  0.66340  1.0000 0.0869198285
H   H21       1.0  0.44660  0.14760  0.03010  1.0000 0.0869198285
H   H22       1.0  0.52790  0.05980  0.11020  1.0000 0.1174139158
H   H23       1.0  0.31060  0.01620  0.24140  1.0000 0.1174139158
H   H24       1.0  0.23620  0.10660  0.15850  1.0000 0.0830777417
H   H25       1.0  0.44280  0.94170  0.27860  1.0000 0.1079153504
H   H26       1.0  0.77990  0.52640  0.56590  1.0000 0.0869198285
H   H27       1.0  0.85970  0.44780  0.65520  1.0000 0.1174139158
H   H28       1.0  0.94160  0.66420  0.75650  1.0000 0.1174139158
H   H29       1.0  0.85980  0.73640  0.66290  1.0000 0.0830777417
H   H30       1.0  0.99170  0.52820  0.81540  1.0000 0.1079153504
H   H31       1.0  0.97980  0.39700  0.70820  1.0000 0.1079153504
H   H32       1.0  0.79120  0.81900  0.34210  1.0000 0.0830777417
H   H33       1.0  0.72530  0.90430  0.24760  1.0000 0.1174139158
H   H34       1.0  0.59030  0.96660  0.18850  1.0000 0.1079153504
H   H35       1.0  0.49220  0.84410  0.34600  1.0000 0.1174139158
H   H36       1.0  0.56490  0.75890  0.43510  1.0000 0.0869198285
H   H37       1.0  0.19170  0.39440  0.95840  1.0000 0.0869198285
H   H38       1.0  0.10350  0.47450  0.87650  1.0000 0.1174139158
H   H39       1.0  0.04690  0.26460  0.75150  1.0000 0.1174139158
H   H40       1.0  0.13830  0.19160  0.83660  1.0000 0.0869198285
H   H41       1.0  0.05340  0.14760  0.53010  1.0000 0.0869198285
H   H42       1.0  0.97210  0.05980  0.61020  1.0000 0.1174139158
H   H43       1.0  0.18940  0.01620  0.74140  1.0000 0.1174139158
H   H44       1.0  0.26380  0.10660  0.65850  1.0000 0.0830777417
H   H45       1.0  0.05720  0.94170  0.77860  1.0000 0.1079153504
H   H46       1.0  0.72010  0.52640  0.06590  1.0000 0.0869198285
H   H47       1.0  0.64030  0.44780  0.15520  1.0000 0.1174139158
H   H48       1.0  0.55840  0.66420  0.25650  1.0000 0.1174139158
H   H49       1.0  0.64020  0.73640  0.16290  1.0000 0.0830777417
H   H50       1.0  0.50830  0.52820  0.31540  1.0000 0.1079153504
H   H51       1.0  0.52020  0.39700  0.20820  1.0000 0.1079153504
H   H52       1.0  0.70880  0.81900  0.84210  1.0000 0.0830777417
H   H53       1.0  0.77470  0.90430  0.74760  1.0000 0.1174139158
H   H54       1.0  0.90970  0.96660  0.68850  1.0000 0.1079153504
H   H55       1.0  0.00780  0.84410  0.84600  1.0000 0.1174139158
H   H56       1.0  0.93510  0.75890  0.93510  1.0000 0.0869198285
H   H57       1.0  0.30830  0.39440  0.45840  1.0000 0.0869198285
H   H58       1.0  0.39650  0.47450  0.37650  1.0000 0.1174139158
H   H59       1.0  0.45310  0.26460  0.25150  1.0000 0.1174139158
H   H60       1.0  0.36170  0.19160  0.33660  1.0000 0.0869198285
H   H61       1.0  0.55340  0.64760  0.96990  1.0000 0.0869198285
H   H62       1.0  0.47210  0.55980  0.88980  1.0000 0.1174139158
H   H63       1.0  0.68940  0.51620  0.75860  1.0000 0.1174139158
H   H64       1.0  0.76380  0.60660  0.84150  1.0000 0.0830777417
H   H65       1.0  0.55720  0.44170  0.72140  1.0000 0.1079153504
H   H66       1.0  0.22010  0.02640  0.43410  1.0000 0.0869198285
H   H67       1.0  0.14030  0.94780  0.34480  1.0000 0.1174139158
H   H68       1.0  0.05840  0.16420  0.24350  1.0000 0.1174139158
H   H69       1.0  0.14020  0.23640  0.33710  1.0000 0.0830777417
H   H70       1.0  0.00830  0.02820  0.18460  1.0000 0.1079153504
H   H71       1.0  0.02020  0.89700  0.29180  1.0000 0.1079153504
H   H72       1.0  0.20880  0.31900  0.65790  1.0000 0.0830777417
H   H73       1.0  0.27470  0.40430  0.75240  1.0000 0.1174139158
H   H74       1.0  0.40970  0.46660  0.81150  1.0000 0.1079153504
H   H75       1.0  0.50780  0.34410  0.65400  1.0000 0.1174139158
H   H76       1.0  0.43510  0.25890  0.56490  1.0000 0.0869198285
H   H77       1.0  0.80830  0.89440  0.04160  1.0000 0.0869198285
H   H78       1.0  0.89650  0.97450  0.12350  1.0000 0.1174139158
H   H79       1.0  0.95310  0.76460  0.24850  1.0000 0.1174139158
H   H80       1.0  0.86170  0.69160  0.16340  1.0000 0.0869198285
C   C1        1.0  0.91950  0.62060  0.42680  1.0000 0.0307142417
C   C2        1.0  0.96850  0.56760  0.37930  1.0000 -0.2122149754
C   C3        1.0  0.92850  0.52560  0.31520  1.0000 0.1412879566
C   C4        1.0  0.83960  0.54200  0.30140  1.0000 -0.2305640896
C   C5        1.0  0.79530  0.59630  0.35130  1.0000 0.0307142417
C   C6        1.0  0.97490  0.46610  0.26300  1.0000 -0.1540860839
C   C7        1.0  0.31380  0.05390  0.89570  1.0000 0.0307142417
C   C8        1.0  0.36180  0.00620  0.84280  1.0000 -0.2122149754
C   C9        1.0  0.41450  0.04800  0.78540  1.0000 0.1412879566
C   C10       1.0  0.41060  0.13480  0.78280  1.0000 -0.2305640896
C   C11       1.0  0.36050  0.17800  0.83870  1.0000 0.0307142417
C   C12       1.0  0.47290  0.00170  0.73160  1.0000 -0.1699808844
C   C13       1.0  0.50070  0.92400  0.74590  1.0000 -0.1640675783
C   C14       1.0  0.56190  0.87820  0.69450  1.0000 0.1412879566
C   C15       1.0  0.23050  0.32450  0.15740  1.0000 0.0307142417
C   C16       1.0  0.19140  0.37620  0.21430  1.0000 -0.236332272
C   C17       1.0  0.10030  0.38560  0.21330  1.0000 0.1412879566
C   C18       1.0  0.05740  0.44410  0.26950  1.0000 -0.1699808844
C   C19       1.0  0.05310  0.34020  0.15600  1.0000 -0.2122149754
C   C20       1.0  0.09720  0.28950  0.10240  1.0000 0.0219267124
C   C21       1.0  0.66200  0.86850  0.58380  1.0000 0.0307142417
C   C22       1.0  0.60850  0.91690  0.63220  1.0000 -0.2122149754
C   C23       1.0  0.57510  0.79240  0.70650  1.0000 -0.2305640896
C   C24       1.0  0.63040  0.74900  0.65530  1.0000 0.0307142417
C   C25       1.0  0.41950  0.12060  0.07320  1.0000 0.0307142417
C   C26       1.0  0.46850  0.06760  0.12070  1.0000 -0.2122149754
C   C27       1.0  0.42850  0.02560  0.18480  1.0000 0.1412879566
C   C28       1.0  0.33960  0.04200  0.19860  1.0000 -0.2305640896
C   C29       1.0  0.29530  0.09630  0.14870  1.0000 0.0307142417
C   C30       1.0  0.47490  0.96610  0.23700  1.0000 -0.1540860839
C   C31       1.0  0.81380  0.55390  0.60430  1.0000 0.0307142417
C   C32       1.0  0.86180  0.50620  0.65720  1.0000 -0.2122149754
C   C33       1.0  0.91450  0.54800  0.71460  1.0000 0.1412879566
C   C34       1.0  0.91060  0.63480  0.71720  1.0000 -0.2305640896
C   C35       1.0  0.86050  0.67800  0.66130  1.0000 0.0307142417
C   C36       1.0  0.97290  0.50170  0.76840  1.0000 -0.1699808844
C   C37       1.0  0.00070  0.42400  0.75410  1.0000 -0.1640675783
C   C38       1.0  0.06190  0.37820  0.80550  1.0000 0.1412879566
C   C39       1.0  0.73050  0.82450  0.34260  1.0000 0.0307142417
C   C40       1.0  0.69140  0.87620  0.28570  1.0000 -0.236332272
C   C41       1.0  0.60030  0.88560  0.28670  1.0000 0.1412879566
C   C42       1.0  0.55740  0.94410  0.23050  1.0000 -0.1699808844
C   C43       1.0  0.55310  0.84020  0.34400  1.0000 -0.2122149754
C   C44       1.0  0.59720  0.78950  0.39760  1.0000 0.0219267124
C   C45       1.0  0.16200  0.36850  0.91620  1.0000 0.0307142417
C   C46       1.0  0.10850  0.41690  0.86780  1.0000 -0.2122149754
C   C47       1.0  0.07510  0.29240  0.79350  1.0000 -0.2305640896
C   C48       1.0  0.13040  0.24900  0.84470  1.0000 0.0307142417
C   C49       1.0  0.08050  0.12060  0.57320  1.0000 0.0307142417
C   C50       1.0  0.03150  0.06760  0.62070  1.0000 -0.2122149754
C   C51       1.0  0.07150  0.02560  0.68480  1.0000 0.1412879566
C   C52       1.0  0.16040  0.04200  0.69860  1.0000 -0.2305640896
C   C53       1.0  0.20470  0.09630  0.64870  1.0000 0.0307142417
C   C54       1.0  0.02510  0.96610  0.73700  1.0000 -0.1540860839
C   C55       1.0  0.68620  0.55390  0.10430  1.0000 0.0307142417
C   C56       1.0  0.63820  0.50620  0.15720  1.0000 -0.2122149754
C   C57       1.0  0.58550  0.54800  0.21460  1.0000 0.1412879566
C   C58       1.0  0.58940  0.63480  0.21720  1.0000 -0.2305640896
C   C59       1.0  0.63950  0.67800  0.16130  1.0000 0.0307142417
C   C60       1.0  0.52710  0.50170  0.26840  1.0000 -0.1699808844
C   C61       1.0  0.49930  0.42400  0.25410  1.0000 -0.1640675783
C   C62       1.0  0.43810  0.37820  0.30550  1.0000 0.1412879566
C   C63       1.0  0.76950  0.82450  0.84260  1.0000 0.0307142417
C   C64       1.0  0.80860  0.87620  0.78570  1.0000 -0.236332272
C   C65       1.0  0.89970  0.88560  0.78670  1.0000 0.1412879566
C   C66       1.0  0.94260  0.94410  0.73050  1.0000 -0.1699808844
C   C67       1.0  0.94690  0.84020  0.84400  1.0000 -0.2122149754
C   C68       1.0  0.90280  0.78950  0.89760  1.0000 0.0219267124
C   C69       1.0  0.33800  0.36850  0.41620  1.0000 0.0307142417
C   C70       1.0  0.39150  0.41690  0.36780  1.0000 -0.2122149754
C   C71       1.0  0.42490  0.29240  0.29350  1.0000 -0.2305640896
C   C72       1.0  0.36960  0.24900  0.34470  1.0000 0.0307142417
C   C73       1.0  0.58050  0.62060  0.92680  1.0000 0.0307142417
C   C74       1.0  0.53150  0.56760  0.87930  1.0000 -0.2122149754
C   C75       1.0  0.57150  0.52560  0.81520  1.0000 0.1412879566
C   C76       1.0  0.66040  0.54200  0.80140  1.0000 -0.2305640896
C   C77       1.0  0.70470  0.59630  0.85130  1.0000 0.0307142417
C   C78       1.0  0.52510  0.46610  0.76300  1.0000 -0.1540860839
C   C79       1.0  0.18620  0.05390  0.39570  1.0000 0.0307142417
C   C80       1.0  0.13820  0.00620  0.34280  1.0000 -0.2122149754
C   C81       1.0  0.08550  0.04800  0.28540  1.0000 0.1412879566
C   C82       1.0  0.08940  0.13480  0.28280  1.0000 -0.2305640896
C   C83       1.0  0.13950  0.17800  0.33870  1.0000 0.0307142417
C   C84       1.0  0.02710  0.00170  0.23160  1.0000 -0.1699808844
C   C85       1.0  0.99930  0.92400  0.24590  1.0000 -0.1640675783
C   C86       1.0  0.93810  0.87820  0.19450  1.0000 0.1412879566
C   C87       1.0  0.26950  0.32450  0.65740  1.0000 0.0307142417
C   C88       1.0  0.30860  0.37620  0.71430  1.0000 -0.236332272
C   C89       1.0  0.39970  0.38560  0.71330  1.0000 0.1412879566
C   C90       1.0  0.44260  0.44410  0.76950  1.0000 -0.1699808844
C   C91       1.0  0.44690  0.34020  0.65600  1.0000 -0.2122149754
C   C92       1.0  0.40280  0.28950  0.60240  1.0000 0.0219267124
C   C93       1.0  0.83800  0.86850  0.08380  1.0000 0.0307142417
C   C94       1.0  0.89150  0.91690  0.13220  1.0000 -0.2122149754
C   C95       1.0  0.92490  0.79240  0.20650  1.0000 -0.2305640896
C   C96       1.0  0.86960  0.74900  0.15530  1.0000 0.0307142417
N   N1        1.0  0.83400  0.63490  0.41329  1.0000 -0.2482258555
N   N2        1.0  0.31310  0.13860  0.89478  1.0000 -0.2619063024
N   N3        1.0  0.18510  0.28220  0.10180  1.0000 -0.2619063024
N   N4        1.0  0.67300  0.78610  0.59490  1.0000 -0.2482258555
N   N5        1.0  0.33400  0.13490  0.08671  1.0000 -0.2482258555
N   N6        1.0  0.81310  0.63860  0.60522  1.0000 -0.2619063024
N   N7        1.0  0.68510  0.78220  0.39820  1.0000 -0.2619063024
N   N8        1.0  0.17300  0.28610  0.90510  1.0000 -0.2482258555
N   N9        1.0  0.16600  0.13490  0.58671  1.0000 -0.2482258555
N   N10       1.0  0.68690  0.63860  0.10522  1.0000 -0.2619063024
N   N11       1.0  0.81490  0.78220  0.89820  1.0000 -0.2619063024
N   N12       1.0  0.32700  0.28610  0.40510  1.0000 -0.2482258555
N   N13       1.0  0.66600  0.63490  0.91329  1.0000 -0.2482258555
N   N14       1.0  0.18690  0.13860  0.39478  1.0000 -0.2619063024
N   N15       1.0  0.31490  0.28220  0.60180  1.0000 -0.2619063024
N   N16       1.0  0.82700  0.78610  0.09490  1.0000 -0.2482258555
