# DDEC6 charges by PACMAN v1.1 (https://github.com/mtap-research/PACMAN-charge/)
data_2017[Cd][tav]3[ASR]1
_chemical_formula_sum              "Cd4 H28 C52 N4 O16"
_cell_length_a       10.1557
_cell_length_b       10.1557
_cell_length_c       20.605
_cell_angle_alpha    89.7535
_cell_angle_beta     90.2465
_cell_angle_gamma    42.3068

_symmetry_space_group_name_H-M    "P 1"
_symmetry_Int_Tables_number       1

loop_
  _symmetry_equiv_pos_as_xyz
  'x, y, z'

loop_
  _atom_site_type_symbol
  _atom_site_label
  _atom_site_symmetry_multiplicity
  _atom_site_fract_x
  _atom_site_fract_y
  _atom_site_fract_z
  _atom_site_occupancy
  _atom_site_charge
Cd  Cd1       1.0  0.01343  0.69305  0.52554  1.0000 0.9234155133
Cd  Cd2       1.0  0.69305  0.01343  0.97446  1.0000 0.9234155133
Cd  Cd3       1.0  0.98657  0.30695  0.47446  1.0000 0.9234155133
Cd  Cd4       1.0  0.30695  0.98657  0.02554  1.0000 0.9234155133
H   H1        1.0  0.74080  0.79120  0.41010  1.0000 0.1268426473
H   H2        1.0  0.24270  0.36730  0.30010  1.0000 0.1227260842
H   H3        1.0  0.09210  0.83530  0.40970  1.0000 0.1268426473
H   H4        1.0  0.05390  0.88910  0.29920  1.0000 0.1372995142
H   H5        1.0  0.48100  0.32320  0.46540  1.0000 0.1372995142
H   H6        1.0  0.60930  0.40270  0.29550  1.0000 0.1227260842
H   H7        1.0  0.70010  0.83450  0.30030  1.0000 0.1372995142
H   H8        1.0  0.79120  0.74080  0.08990  1.0000 0.1268426473
H   H9        1.0  0.36730  0.24270  0.19990  1.0000 0.1227260842
H   H10       1.0  0.83530  0.09210  0.09030  1.0000 0.1268426473
H   H11       1.0  0.88910  0.05390  0.20080  1.0000 0.1372995142
H   H12       1.0  0.32320  0.48100  0.03460  1.0000 0.1372995142
H   H13       1.0  0.40270  0.60930  0.20450  1.0000 0.1227260842
H   H14       1.0  0.83450  0.70010  0.19970  1.0000 0.1372995142
H   H15       1.0  0.25920  0.20880  0.58990  1.0000 0.1268426473
H   H16       1.0  0.75730  0.63270  0.69990  1.0000 0.1227260842
H   H17       1.0  0.90790  0.16470  0.59030  1.0000 0.1268426473
H   H18       1.0  0.94610  0.11090  0.70080  1.0000 0.1372995142
H   H19       1.0  0.51900  0.67680  0.53460  1.0000 0.1372995142
H   H20       1.0  0.39070  0.59730  0.70450  1.0000 0.1227260842
H   H21       1.0  0.29990  0.16550  0.69970  1.0000 0.1372995142
H   H22       1.0  0.20880  0.25920  0.91010  1.0000 0.1268426473
H   H23       1.0  0.63270  0.75730  0.80010  1.0000 0.1227260842
H   H24       1.0  0.16470  0.90790  0.90970  1.0000 0.1268426473
H   H25       1.0  0.11090  0.94610  0.79920  1.0000 0.1372995142
H   H26       1.0  0.67680  0.51900  0.96540  1.0000 0.1372995142
H   H27       1.0  0.59730  0.39070  0.79550  1.0000 0.1227260842
H   H28       1.0  0.16550  0.29990  0.80030  1.0000 0.1372995142
C   C1        1.0  0.81120  0.80200  0.38720  1.0000 0.098014222
C   C2        1.0  0.32320  0.36800  0.32130  1.0000 -0.1641481728
C   C3        1.0  0.70850  0.34890  0.42070  1.0000 0.5434477492
C   C4        1.0  0.56900  0.35980  0.38640  1.0000 -0.0021576278
C   C5        1.0  0.22360  0.33940  0.42880  1.0000 0.5543056591
C   C6        1.0  0.87790  0.85950  0.28590  1.0000 0.1094929665
C   C7        1.0  0.34420  0.34600  0.38800  1.0000 -0.0226143808
C   C8        1.0  0.01740  0.82940  0.38680  1.0000 0.0841451581
C   C9        1.0  0.42040  0.39100  0.28580  1.0000 0.0597924604
C   C10       1.0  0.99370  0.86370  0.32040  1.0000 -0.1816661717
C   C11       1.0  0.46660  0.34020  0.42050  1.0000 -0.1210544766
C   C12       1.0  0.54310  0.38710  0.31860  1.0000 -0.1701819286
C   C13       1.0  0.78290  0.83230  0.32130  1.0000 -0.1816661717
C   C14       1.0  0.80200  0.81120  0.11280  1.0000 0.098014222
C   C15       1.0  0.36800  0.32320  0.17870  1.0000 -0.1641481728
C   C16       1.0  0.34890  0.70850  0.07930  1.0000 0.5434477492
C   C17       1.0  0.35980  0.56900  0.11360  1.0000 -0.0021576278
C   C18       1.0  0.33940  0.22360  0.07120  1.0000 0.5543056591
C   C19       1.0  0.85950  0.87790  0.21410  1.0000 0.1094929665
C   C20       1.0  0.34600  0.34420  0.11200  1.0000 -0.0226143808
C   C21       1.0  0.82940  0.01740  0.11320  1.0000 0.0841451581
C   C22       1.0  0.39100  0.42040  0.21420  1.0000 0.0597924604
C   C23       1.0  0.86370  0.99370  0.17960  1.0000 -0.1816661717
C   C24       1.0  0.34020  0.46660  0.07950  1.0000 -0.1210544766
C   C25       1.0  0.38710  0.54310  0.18140  1.0000 -0.1701819286
C   C26       1.0  0.83230  0.78290  0.17870  1.0000 -0.1816661717
C   C27       1.0  0.18880  0.19800  0.61280  1.0000 0.098014222
C   C28       1.0  0.67680  0.63200  0.67870  1.0000 -0.1641481728
C   C29       1.0  0.29150  0.65110  0.57930  1.0000 0.5434477492
C   C30       1.0  0.43100  0.64020  0.61360  1.0000 -0.0021576278
C   C31       1.0  0.77640  0.66060  0.57120  1.0000 0.5543056591
C   C32       1.0  0.12210  0.14050  0.71410  1.0000 0.1094929665
C   C33       1.0  0.65580  0.65400  0.61200  1.0000 -0.0226143808
C   C34       1.0  0.98260  0.17060  0.61320  1.0000 0.0841451581
C   C35       1.0  0.57960  0.60900  0.71420  1.0000 0.0597924604
C   C36       1.0  0.00630  0.13630  0.67960  1.0000 -0.1816661717
C   C37       1.0  0.53340  0.65980  0.57950  1.0000 -0.1210544766
C   C38       1.0  0.45690  0.61290  0.68140  1.0000 -0.1701819286
C   C39       1.0  0.21710  0.16770  0.67870  1.0000 -0.1816661717
C   C40       1.0  0.19800  0.18880  0.88720  1.0000 0.098014222
C   C41       1.0  0.63200  0.67680  0.82130  1.0000 -0.1641481728
C   C42       1.0  0.65110  0.29150  0.92070  1.0000 0.5434477492
C   C43       1.0  0.64020  0.43100  0.88640  1.0000 -0.0021576278
C   C44       1.0  0.66060  0.77640  0.92880  1.0000 0.5543056591
C   C45       1.0  0.14050  0.12210  0.78590  1.0000 0.1094929665
C   C46       1.0  0.65400  0.65580  0.88800  1.0000 -0.0226143808
C   C47       1.0  0.17060  0.98260  0.88680  1.0000 0.0841451581
C   C48       1.0  0.60900  0.57960  0.78580  1.0000 0.0597924604
C   C49       1.0  0.13630  0.00630  0.82040  1.0000 -0.1816661717
C   C50       1.0  0.65980  0.53340  0.92050  1.0000 -0.1210544766
C   C51       1.0  0.61290  0.45690  0.81860  1.0000 -0.1701819286
C   C52       1.0  0.16770  0.21710  0.82130  1.0000 -0.1816661717
N   N1        1.0  0.93590  0.78750  0.41990  1.0000 -0.2615829543
N   N2        1.0  0.78750  0.93590  0.08010  1.0000 -0.2615829543
N   N3        1.0  0.06410  0.21250  0.58010  1.0000 -0.2615829543
N   N4        1.0  0.21250  0.06410  0.91990  1.0000 -0.2615829543
O   O1        1.0  0.14050  0.30790  0.39780  1.0000 -0.5174860195
O   O2        1.0  0.77060  0.40460  0.39160  1.0000 -0.54081188
O   O3        1.0  0.76090  0.28390  0.47810  1.0000 -0.560139975
O   O4        1.0  0.20950  0.36730  0.48790  1.0000 -0.560139975
O   O5        1.0  0.30790  0.14050  0.10220  1.0000 -0.5174860195
O   O6        1.0  0.40460  0.77060  0.10840  1.0000 -0.54081188
O   O7        1.0  0.28390  0.76090  0.02190  1.0000 -0.560139975
O   O8        1.0  0.36730  0.20950  0.01210  1.0000 -0.560139975
O   O9        1.0  0.85950  0.69210  0.60220  1.0000 -0.5174860195
O   O10       1.0  0.22940  0.59540  0.60840  1.0000 -0.54081188
O   O11       1.0  0.23910  0.71610  0.52190  1.0000 -0.560139975
O   O12       1.0  0.79050  0.63270  0.51210  1.0000 -0.560139975
O   O13       1.0  0.69210  0.85950  0.89780  1.0000 -0.5174860195
O   O14       1.0  0.59540  0.22940  0.89160  1.0000 -0.54081188
O   O15       1.0  0.71610  0.23910  0.97810  1.0000 -0.560139975
O   O16       1.0  0.63270  0.79050  0.98790  1.0000 -0.560139975
