# DDEC6 charges by PACMAN v1.1 (https://github.com/mtap-research/PACMAN-charge/)
data_2017[Zn][sql]2[ASR]5
_chemical_formula_sum              "Zn4 H48 C52 S4 N24 O16"
_cell_length_a       6.4235
_cell_length_b       15.4396
_cell_length_c       19.219
_cell_angle_alpha    90
_cell_angle_beta     90.755
_cell_angle_gamma    90

_symmetry_space_group_name_H-M    "P 1"
_symmetry_Int_Tables_number       1

loop_
  _symmetry_equiv_pos_as_xyz
  'x, y, z'

loop_
  _atom_site_type_symbol
  _atom_site_label
  _atom_site_symmetry_multiplicity
  _atom_site_fract_x
  _atom_site_fract_y
  _atom_site_fract_z
  _atom_site_occupancy
  _atom_site_charge
Zn  Zn1       1.0  0.39349  0.35527  0.72366  1.0000 0.7861030952
Zn  Zn2       1.0  0.60651  0.85527  0.77634  1.0000 0.7861030952
Zn  Zn3       1.0  0.60651  0.64473  0.27634  1.0000 0.7861030952
Zn  Zn4       1.0  0.39349  0.14473  0.22366  1.0000 0.7861030952
H   H1        1.0  0.68210  0.24320  0.57290  1.0000 0.1189865177
H   H2        1.0  0.48480  0.11360  0.60320  1.0000 0.1289792371
H   H3        1.0  0.82740  0.45530  0.71360  1.0000 0.1289792371
H   H4        1.0  0.42750  0.41540  0.56390  1.0000 0.1110046984
H   H5        1.0  0.09820  0.51640  0.56750  1.0000 0.1189865177
H   H6        1.0  0.10360  0.54040  0.64700  1.0000 0.1110046984
H   H7        1.0  0.87540  0.63850  0.54770  1.0000 0.1189865177
H   H8        1.0  0.90830  0.66450  0.62590  1.0000 0.0985658572
H   H9        1.0  0.24550  0.65310  0.53390  1.0000 0.1189865177
H   H10       1.0  0.12750  0.74060  0.54580  1.0000 0.1189865177
H   H11       1.0  0.27030  0.83150  0.64910  1.0000 0.1398665162
H   H12       1.0  0.60830  0.65550  0.73900  1.0000 0.1110046984
H   H13       1.0  0.31790  0.74320  0.92710  1.0000 0.1189865177
H   H14       1.0  0.51520  0.61360  0.89680  1.0000 0.1289792371
H   H15       1.0  0.17260  0.95530  0.78640  1.0000 0.1289792371
H   H16       1.0  0.57250  0.91540  0.93610  1.0000 0.1110046984
H   H17       1.0  0.90180  0.01640  0.93250  1.0000 0.1189865177
H   H18       1.0  0.89640  0.04040  0.85300  1.0000 0.1110046984
H   H19       1.0  0.12460  0.13850  0.95230  1.0000 0.1189865177
H   H20       1.0  0.09170  0.16450  0.87410  1.0000 0.0985658572
H   H21       1.0  0.75450  0.15310  0.96610  1.0000 0.1189865177
H   H22       1.0  0.87250  0.24060  0.95420  1.0000 0.1189865177
H   H23       1.0  0.72970  0.33150  0.85090  1.0000 0.1398665162
H   H24       1.0  0.39170  0.15550  0.76100  1.0000 0.1110046984
H   H25       1.0  0.31790  0.75680  0.42710  1.0000 0.1189865177
H   H26       1.0  0.51520  0.88640  0.39680  1.0000 0.1289792371
H   H27       1.0  0.17260  0.54470  0.28640  1.0000 0.1289792371
H   H28       1.0  0.57250  0.58460  0.43610  1.0000 0.1110046984
H   H29       1.0  0.90180  0.48360  0.43250  1.0000 0.1189865177
H   H30       1.0  0.89640  0.45960  0.35300  1.0000 0.1110046984
H   H31       1.0  0.12460  0.36150  0.45230  1.0000 0.1189865177
H   H32       1.0  0.09170  0.33550  0.37410  1.0000 0.0985658572
H   H33       1.0  0.75450  0.34690  0.46610  1.0000 0.1189865177
H   H34       1.0  0.87250  0.25940  0.45420  1.0000 0.1189865177
H   H35       1.0  0.72970  0.16850  0.35090  1.0000 0.1398665162
H   H36       1.0  0.39170  0.34450  0.26100  1.0000 0.1110046984
H   H37       1.0  0.68210  0.25680  0.07290  1.0000 0.1189865177
H   H38       1.0  0.48480  0.38640  0.10320  1.0000 0.1289792371
H   H39       1.0  0.82740  0.04470  0.21360  1.0000 0.1289792371
H   H40       1.0  0.42750  0.08460  0.06390  1.0000 0.1110046984
H   H41       1.0  0.09820  0.98360  0.06750  1.0000 0.1189865177
H   H42       1.0  0.10360  0.95960  0.14700  1.0000 0.1110046984
H   H43       1.0  0.87540  0.86150  0.04770  1.0000 0.1189865177
H   H44       1.0  0.90830  0.83550  0.12590  1.0000 0.0985658572
H   H45       1.0  0.24550  0.84690  0.03390  1.0000 0.1189865177
H   H46       1.0  0.12750  0.75940  0.04580  1.0000 0.1189865177
H   H47       1.0  0.27030  0.66850  0.14910  1.0000 0.1398665162
H   H48       1.0  0.60830  0.84450  0.23900  1.0000 0.1110046984
C   C1        1.0  0.07950  0.27412  0.63511  1.0000 0.5656463758
C   C2        1.0  0.91970  0.20431  0.63621  1.0000 -0.1186687829
C   C3        1.0  0.73100  0.20080  0.60337  1.0000 -0.1416268243
C   C4        1.0  0.61750  0.12550  0.62064  1.0000 -0.1127683639
C   C5        1.0  0.72180  0.07253  0.66524  1.0000 -0.1186687829
C   C6        1.0  0.64640  0.99048  0.69602  1.0000 0.5570886389
C   C7        1.0  0.75950  0.45531  0.67056  1.0000 0.1110046984
C   C8        1.0  0.54450  0.43449  0.58845  1.0000 0.1398665162
C   C9        1.0  0.01950  0.54285  0.60470  1.0000 -0.1279343038
C   C10       1.0  0.97330  0.63665  0.58653  1.0000 -0.1967411979
C   C11       1.0  0.16770  0.68640  0.56756  1.0000 -0.1186687829
C   C12       1.0  0.33380  0.77922  0.66066  1.0000 0.0942673416
C   C13       1.0  0.51550  0.68235  0.70835  1.0000 0.1398665162
C   C14       1.0  0.92050  0.77412  0.86489  1.0000 0.5656463758
C   C15       1.0  0.08030  0.70431  0.86379  1.0000 -0.1186687829
C   C16       1.0  0.26900  0.70080  0.89663  1.0000 -0.1416268243
C   C17       1.0  0.38250  0.62550  0.87936  1.0000 -0.1127683639
C   C18       1.0  0.27820  0.57253  0.83476  1.0000 -0.1186687829
C   C19       1.0  0.35360  0.49048  0.80398  1.0000 0.5570886389
C   C20       1.0  0.24050  0.95531  0.82944  1.0000 0.1110046984
C   C21       1.0  0.45550  0.93449  0.91155  1.0000 0.1398665162
C   C22       1.0  0.98050  0.04285  0.89530  1.0000 -0.1279343038
C   C23       1.0  0.02670  0.13665  0.91347  1.0000 -0.1967411979
C   C24       1.0  0.83230  0.18640  0.93244  1.0000 -0.1186687829
C   C25       1.0  0.66620  0.27922  0.83934  1.0000 0.0942673416
C   C26       1.0  0.48450  0.18235  0.79165  1.0000 0.1398665162
C   C27       1.0  0.92050  0.72588  0.36489  1.0000 0.5656463758
C   C28       1.0  0.08030  0.79569  0.36379  1.0000 -0.1186687829
C   C29       1.0  0.26900  0.79920  0.39663  1.0000 -0.1416268243
C   C30       1.0  0.38250  0.87450  0.37936  1.0000 -0.1127683639
C   C31       1.0  0.27820  0.92747  0.33476  1.0000 -0.1186687829
C   C32       1.0  0.35360  0.00952  0.30398  1.0000 0.5570886389
C   C33       1.0  0.24050  0.54469  0.32944  1.0000 0.1110046984
C   C34       1.0  0.45550  0.56551  0.41155  1.0000 0.1398665162
C   C35       1.0  0.98050  0.45715  0.39530  1.0000 -0.1279343038
C   C36       1.0  0.02670  0.36335  0.41347  1.0000 -0.1967411979
C   C37       1.0  0.83230  0.31360  0.43244  1.0000 -0.1186687829
C   C38       1.0  0.66620  0.22078  0.33934  1.0000 0.0942673416
C   C39       1.0  0.48450  0.31765  0.29165  1.0000 0.1398665162
C   C40       1.0  0.07950  0.22588  0.13511  1.0000 0.5656463758
C   C41       1.0  0.91970  0.29569  0.13621  1.0000 -0.1186687829
C   C42       1.0  0.73100  0.29920  0.10337  1.0000 -0.1416268243
C   C43       1.0  0.61750  0.37450  0.12064  1.0000 -0.1127683639
C   C44       1.0  0.72180  0.42747  0.16524  1.0000 -0.1186687829
C   C45       1.0  0.64640  0.50952  0.19602  1.0000 0.5570886389
C   C46       1.0  0.75950  0.04469  0.17056  1.0000 0.1110046984
C   C47       1.0  0.54450  0.06551  0.08845  1.0000 0.1398665162
C   C48       1.0  0.01950  0.95715  0.10470  1.0000 -0.1279343038
C   C49       1.0  0.97330  0.86335  0.08653  1.0000 -0.1967411979
C   C50       1.0  0.16770  0.81360  0.06756  1.0000 -0.1186687829
C   C51       1.0  0.33380  0.72078  0.16066  1.0000 0.0942673416
C   C52       1.0  0.51550  0.81765  0.20835  1.0000 0.1398665162
S   S1        1.0  0.95842  0.11520  0.68863  1.0000 0.1398665162
S   S2        1.0  0.04158  0.61520  0.81137  1.0000 0.1398665162
S   S3        1.0  0.04158  0.88480  0.31137  1.0000 0.1398665162
S   S4        1.0  0.95842  0.38480  0.18863  1.0000 0.1398665162
N   N1        1.0  0.58020  0.41545  0.65652  1.0000 -0.3306028142
N   N2        1.0  0.82590  0.49456  0.61475  1.0000 0.1735758291
N   N3        1.0  0.68980  0.48219  0.56051  1.0000 -0.2564501508
N   N4        1.0  0.46830  0.76806  0.71201  1.0000 -0.3097398847
N   N5        1.0  0.30230  0.70466  0.62783  1.0000 0.1626628742
N   N6        1.0  0.41950  0.64112  0.65821  1.0000 -0.2456952675
N   N7        1.0  0.41980  0.91545  0.84348  1.0000 -0.3306028142
N   N8        1.0  0.17410  0.99456  0.88525  1.0000 0.1735758291
N   N9        1.0  0.31020  0.98219  0.93949  1.0000 -0.2564501508
N   N10       1.0  0.53170  0.26806  0.78799  1.0000 -0.3097398847
N   N11       1.0  0.69770  0.20466  0.87217  1.0000 0.1626628742
N   N12       1.0  0.58050  0.14112  0.84179  1.0000 -0.2456952675
N   N13       1.0  0.41980  0.58455  0.34348  1.0000 -0.3306028142
N   N14       1.0  0.17410  0.50544  0.38525  1.0000 0.1735758291
N   N15       1.0  0.31020  0.51781  0.43949  1.0000 -0.2564501508
N   N16       1.0  0.53170  0.23194  0.28799  1.0000 -0.3097398847
N   N17       1.0  0.69770  0.29534  0.37217  1.0000 0.1626628742
N   N18       1.0  0.58050  0.35888  0.34179  1.0000 -0.2456952675
N   N19       1.0  0.58020  0.08455  0.15652  1.0000 -0.3306028142
N   N20       1.0  0.82590  0.00544  0.11475  1.0000 0.1735758291
N   N21       1.0  0.68980  0.01781  0.06051  1.0000 -0.2564501508
N   N22       1.0  0.46830  0.73194  0.21201  1.0000 -0.3097398847
N   N23       1.0  0.30230  0.79534  0.12783  1.0000 0.1626628742
N   N24       1.0  0.41950  0.85888  0.15821  1.0000 -0.2456952675
O   O1        1.0  0.20930  0.26889  0.68449  1.0000 -0.5582042529
O   O2        1.0  0.07340  0.32988  0.59002  1.0000 -0.5403450473
O   O3        1.0  0.77650  0.94851  0.73490  1.0000 -0.5654477819
O   O4        1.0  0.46560  0.96705  0.68511  1.0000 -0.5527236953
O   O5        1.0  0.79070  0.76889  0.81551  1.0000 -0.5582042529
O   O6        1.0  0.92660  0.82988  0.90998  1.0000 -0.5403450473
O   O7        1.0  0.22350  0.44851  0.76510  1.0000 -0.5654477819
O   O8        1.0  0.53440  0.46705  0.81489  1.0000 -0.5527236953
O   O9        1.0  0.79070  0.73111  0.31551  1.0000 -0.5582042529
O   O10       1.0  0.92660  0.67012  0.40998  1.0000 -0.5403450473
O   O11       1.0  0.22350  0.05149  0.26510  1.0000 -0.5654477819
O   O12       1.0  0.53440  0.03295  0.31489  1.0000 -0.5527236953
O   O13       1.0  0.20930  0.23111  0.18449  1.0000 -0.5582042529
O   O14       1.0  0.07340  0.17012  0.09002  1.0000 -0.5403450473
O   O15       1.0  0.77650  0.55149  0.23490  1.0000 -0.5654477819
O   O16       1.0  0.46560  0.53295  0.18511  1.0000 -0.5527236953
