# DDEC6 charges by PACMAN v1.1 (https://github.com/mtap-research/PACMAN-charge/)
data_2017[Tb][nan]3[ASR]10
_chemical_formula_sum              "Tb4 H108 C132 O36"
_cell_length_a       16.0751
_cell_length_b       16.0751
_cell_length_c       30.411
_cell_angle_alpha    69.6804
_cell_angle_beta     110.32
_cell_angle_gamma    146.339

_symmetry_space_group_name_H-M    "P 1"
_symmetry_Int_Tables_number       1

loop_
  _symmetry_equiv_pos_as_xyz
  'x, y, z'

loop_
  _atom_site_type_symbol
  _atom_site_label
  _atom_site_symmetry_multiplicity
  _atom_site_fract_x
  _atom_site_fract_y
  _atom_site_fract_z
  _atom_site_occupancy
  _atom_site_charge
Tb  Tb1       1.0  0.80042  0.29016  0.52220  1.0000 2.0991912401
Tb  Tb2       1.0  0.29016  0.80042  0.97780  1.0000 2.0991912401
Tb  Tb3       1.0  0.19958  0.70984  0.47780  1.0000 2.0991912401
Tb  Tb4       1.0  0.70984  0.19958  0.02220  1.0000 2.0991912401
H   H1        1.0  0.53580  0.26300  0.52520  1.0000 0.1184949568
H   H2        1.0  0.26300  0.53580  0.97480  1.0000 0.1184949568
H   H3        1.0  0.46420  0.73700  0.47480  1.0000 0.1184949568
H   H4        1.0  0.73700  0.46420  0.02520  1.0000 0.1184949568
H   H5        1.0  0.41540  0.27980  0.53580  1.0000 0.1184949568
H   H6        1.0  0.27980  0.41540  0.96420  1.0000 0.1184949568
H   H7        1.0  0.58460  0.72020  0.46420  1.0000 0.1184949568
H   H8        1.0  0.72020  0.58460  0.03580  1.0000 0.1184949568
H   H9        1.0  0.18300  0.14580  0.49100  1.0000 0.1302662436
H   H10       1.0  0.14580  0.18300  0.00900  1.0000 0.1302662436
H   H11       1.0  0.81700  0.85420  0.50900  1.0000 0.1302662436
H   H12       1.0  0.85420  0.81700  0.99100  1.0000 0.1302662436
H   H13       1.0  0.17160  0.93620  0.44060  1.0000 0.1302662436
H   H14       1.0  0.93620  0.17160  0.05940  1.0000 0.1302662436
H   H15       1.0  0.82840  0.06380  0.55940  1.0000 0.1302662436
H   H16       1.0  0.06380  0.82840  0.94060  1.0000 0.1302662436
H   H17       1.0  0.66400  0.91280  0.16700  1.0000 0.1302662436
H   H18       1.0  0.91280  0.66400  0.33300  1.0000 0.1302662436
H   H19       1.0  0.33600  0.08720  0.83300  1.0000 0.1302662436
H   H20       1.0  0.08720  0.33600  0.66700  1.0000 0.1302662436
H   H21       1.0  0.40940  0.48620  0.19050  1.0000 0.1504030294
H   H22       1.0  0.48620  0.40940  0.30950  1.0000 0.1504030294
H   H23       1.0  0.59060  0.51380  0.80950  1.0000 0.1504030294
H   H24       1.0  0.51380  0.59060  0.69050  1.0000 0.1504030294
H   H25       1.0  0.31360  0.45440  0.11310  1.0000 0.1114947005
H   H26       1.0  0.45440  0.31360  0.38690  1.0000 0.1114947005
H   H27       1.0  0.68640  0.54560  0.88690  1.0000 0.1114947005
H   H28       1.0  0.54560  0.68640  0.61310  1.0000 0.1114947005
H   H29       1.0  0.37270  0.64390  0.06350  1.0000 0.1184949568
H   H30       1.0  0.64390  0.37270  0.43650  1.0000 0.1184949568
H   H31       1.0  0.62730  0.35610  0.93650  1.0000 0.1184949568
H   H32       1.0  0.35610  0.62730  0.56350  1.0000 0.1184949568
H   H33       1.0  0.81580  0.10940  0.43800  1.0000 0.1184949568
H   H34       1.0  0.10940  0.81580  0.06200  1.0000 0.1184949568
H   H35       1.0  0.18420  0.89060  0.56200  1.0000 0.1184949568
H   H36       1.0  0.89060  0.18420  0.93800  1.0000 0.1184949568
H   H37       1.0  0.85830  0.03230  0.41180  1.0000 0.1184949568
H   H38       1.0  0.03230  0.85830  0.08820  1.0000 0.1184949568
H   H39       1.0  0.14170  0.96770  0.58820  1.0000 0.1184949568
H   H40       1.0  0.96770  0.14170  0.91180  1.0000 0.1184949568
H   H41       1.0  0.10140  0.20100  0.39730  1.0000 0.1184949568
H   H42       1.0  0.20100  0.10140  0.10270  1.0000 0.1184949568
H   H43       1.0  0.89860  0.79900  0.60270  1.0000 0.1184949568
H   H44       1.0  0.79900  0.89860  0.89730  1.0000 0.1184949568
H   H45       1.0  0.25060  0.53300  0.43180  1.0000 0.1408444913
H   H46       1.0  0.53300  0.25060  0.06820  1.0000 0.1408444913
H   H47       1.0  0.74940  0.46700  0.56820  1.0000 0.1408444913
H   H48       1.0  0.46700  0.74940  0.93180  1.0000 0.1408444913
H   H49       1.0  0.00060  0.87300  0.39140  1.0000 0.0917258542
H   H50       1.0  0.87300  0.00060  0.10860  1.0000 0.0917258542
H   H51       1.0  0.99940  0.12700  0.60860  1.0000 0.0917258542
H   H52       1.0  0.12700  0.99940  0.89140  1.0000 0.0917258542
H   H53       1.0  0.90580  0.75640  0.43440  1.0000 0.0917258542
H   H54       1.0  0.75640  0.90580  0.06560  1.0000 0.0917258542
H   H55       1.0  0.09420  0.24360  0.56560  1.0000 0.0917258542
H   H56       1.0  0.24360  0.09420  0.93440  1.0000 0.0917258542
H   H57       1.0  0.78600  0.92620  0.24780  1.0000 0.1006389053
H   H58       1.0  0.92620  0.78600  0.25220  1.0000 0.1006389053
H   H59       1.0  0.21400  0.07380  0.75220  1.0000 0.1006389053
H   H60       1.0  0.07380  0.21400  0.74780  1.0000 0.1006389053
H   H61       1.0  0.63120  0.84620  0.24690  1.0000 0.0917258542
H   H62       1.0  0.84620  0.63120  0.25310  1.0000 0.0917258542
H   H63       1.0  0.36880  0.15380  0.75310  1.0000 0.0917258542
H   H64       1.0  0.15380  0.36880  0.74690  1.0000 0.0917258542
H   H65       1.0  0.38610  0.40070  0.41810  1.0000 0.1006389053
H   H66       1.0  0.40070  0.38610  0.08190  1.0000 0.1006389053
H   H67       1.0  0.61390  0.59930  0.58190  1.0000 0.1006389053
H   H68       1.0  0.59930  0.61390  0.91810  1.0000 0.1006389053
H   H69       1.0  0.30920  0.38860  0.36680  1.0000 0.1006389053
H   H70       1.0  0.38860  0.30920  0.13320  1.0000 0.1006389053
H   H71       1.0  0.69080  0.61140  0.63320  1.0000 0.1006389053
H   H72       1.0  0.61140  0.69080  0.86680  1.0000 0.1006389053
H   H73       1.0  0.96560  0.94160  0.29750  1.0000 0.1408444913
H   H74       1.0  0.94160  0.96560  0.20250  1.0000 0.1408444913
H   H75       1.0  0.03440  0.05840  0.70250  1.0000 0.1408444913
H   H76       1.0  0.05840  0.03440  0.79750  1.0000 0.1408444913
H   H77       1.0  0.97400  0.04640  0.29690  1.0000 0.1302662436
H   H78       1.0  0.04640  0.97400  0.20310  1.0000 0.1302662436
H   H79       1.0  0.02600  0.95360  0.70310  1.0000 0.1302662436
H   H80       1.0  0.95360  0.02600  0.79690  1.0000 0.1302662436
H   H81       1.0  0.04330  0.02530  0.34150  1.0000 0.1302662436
H   H82       1.0  0.02530  0.04330  0.15850  1.0000 0.1302662436
H   H83       1.0  0.95670  0.97470  0.65850  1.0000 0.1302662436
H   H84       1.0  0.97470  0.95670  0.84150  1.0000 0.1302662436
H   H85       1.0  0.32990  0.53210  0.31650  1.0000 0.1114947005
H   H86       1.0  0.53210  0.32990  0.18350  1.0000 0.1114947005
H   H87       1.0  0.67010  0.46790  0.68350  1.0000 0.1114947005
H   H88       1.0  0.46790  0.67010  0.81650  1.0000 0.1114947005
H   H89       1.0  0.42770  0.66490  0.27630  1.0000 0.1184949568
H   H90       1.0  0.66490  0.42770  0.22370  1.0000 0.1184949568
H   H91       1.0  0.57230  0.33510  0.72370  1.0000 0.1184949568
H   H92       1.0  0.33510  0.57230  0.77630  1.0000 0.1184949568
H   H93       1.0  0.36010  0.51790  0.27760  1.0000 0.1184949568
H   H94       1.0  0.51790  0.36010  0.22240  1.0000 0.1184949568
H   H95       1.0  0.63990  0.48210  0.72240  1.0000 0.1184949568
H   H96       1.0  0.48210  0.63990  0.77760  1.0000 0.1184949568
H   H97       1.0  0.57160  0.54420  0.46470  1.0000 0.1302662436
H   H98       1.0  0.54420  0.57160  0.03530  1.0000 0.1302662436
H   H99       1.0  0.42840  0.45580  0.53530  1.0000 0.1302662436
H   H100      1.0  0.45580  0.42840  0.96470  1.0000 0.1302662436
H   H101      1.0  0.65280  0.53180  0.45730  1.0000 0.1302662436
H   H102      1.0  0.53180  0.65280  0.04270  1.0000 0.1302662436
H   H103      1.0  0.34720  0.46820  0.54270  1.0000 0.1302662436
H   H104      1.0  0.46820  0.34720  0.95730  1.0000 0.1302662436
H   H105      1.0  0.74830  0.68070  0.47250  1.0000 0.1302662436
H   H106      1.0  0.68070  0.74830  0.02750  1.0000 0.1302662436
H   H107      1.0  0.25170  0.31930  0.52750  1.0000 0.1302662436
H   H108      1.0  0.31930  0.25170  0.97250  1.0000 0.1302662436
C   C1        1.0  0.43830  0.07450  0.47980  1.0000 0.6510568178
C   C2        1.0  0.07450  0.43830  0.02020  1.0000 0.6510568178
C   C3        1.0  0.56170  0.92550  0.52020  1.0000 0.6510568178
C   C4        1.0  0.92550  0.56170  0.97980  1.0000 0.6510568178
C   C5        1.0  0.36480  0.09540  0.48250  1.0000 -0.0041472725
C   C6        1.0  0.09540  0.36480  0.01750  1.0000 -0.0041472725
C   C7        1.0  0.63520  0.90460  0.51750  1.0000 -0.0041472725
C   C8        1.0  0.90460  0.63520  0.98250  1.0000 -0.0041472725
C   C9        1.0  0.43920  0.20180  0.51020  1.0000 -0.1472877347
C   C10       1.0  0.20180  0.43920  0.98980  1.0000 -0.1472877347
C   C11       1.0  0.56080  0.79820  0.48980  1.0000 -0.1472877347
C   C12       1.0  0.79820  0.56080  0.01020  1.0000 -0.1472877347
C   C13       1.0  0.36960  0.21560  0.51510  1.0000 -0.0775565066
C   C14       1.0  0.21560  0.36960  0.98490  1.0000 -0.0775565066
C   C15       1.0  0.63040  0.78440  0.48490  1.0000 -0.0775565066
C   C16       1.0  0.78440  0.63040  0.01510  1.0000 -0.0775565066
C   C17       1.0  0.22880  0.13340  0.48910  1.0000 -0.2195884594
C   C18       1.0  0.13340  0.22880  0.01090  1.0000 -0.2195884594
C   C19       1.0  0.77120  0.86660  0.51090  1.0000 -0.2195884594
C   C20       1.0  0.86660  0.77120  0.98910  1.0000 -0.2195884594
C   C21       1.0  0.16180  0.03380  0.46060  1.0000 0.2325237981
C   C22       1.0  0.03380  0.16180  0.03940  1.0000 0.2325237981
C   C23       1.0  0.83820  0.96620  0.53940  1.0000 0.2325237981
C   C24       1.0  0.96620  0.83820  0.96060  1.0000 0.2325237981
C   C25       1.0  0.22350  0.00950  0.45830  1.0000 -0.239020708
C   C26       1.0  0.00950  0.22350  0.04170  1.0000 -0.239020708
C   C27       1.0  0.77650  0.99050  0.54170  1.0000 -0.239020708
C   C28       1.0  0.99050  0.77650  0.95830  1.0000 -0.239020708
C   C29       1.0  0.57200  0.92460  0.07790  1.0000 0.6102314508
C   C30       1.0  0.92460  0.57200  0.42210  1.0000 0.6102314508
C   C31       1.0  0.42800  0.07540  0.92210  1.0000 0.6102314508
C   C32       1.0  0.07540  0.42800  0.57790  1.0000 0.6102314508
C   C33       1.0  0.52300  0.79580  0.10950  1.0000 0.0058101459
C   C34       1.0  0.79580  0.52300  0.39050  1.0000 0.0058101459
C   C35       1.0  0.47700  0.20420  0.89050  1.0000 0.0058101459
C   C36       1.0  0.20420  0.47700  0.60950  1.0000 0.0058101459
C   C37       1.0  0.59130  0.82010  0.15640  1.0000 -0.2633019918
C   C38       1.0  0.82010  0.59130  0.34360  1.0000 -0.2633019918
C   C39       1.0  0.40870  0.17990  0.84360  1.0000 -0.2633019918
C   C40       1.0  0.17990  0.40870  0.65640  1.0000 -0.2633019918
C   C41       1.0  0.54830  0.70250  0.18670  1.0000 0.2619199073
C   C42       1.0  0.70250  0.54830  0.31330  1.0000 0.2619199073
C   C43       1.0  0.45170  0.29750  0.81330  1.0000 0.2619199073
C   C44       1.0  0.29750  0.45170  0.68670  1.0000 0.2619199073
C   C45       1.0  0.44050  0.56530  0.16990  1.0000 -0.1982484522
C   C46       1.0  0.56530  0.44050  0.33010  1.0000 -0.1982484522
C   C47       1.0  0.55950  0.43470  0.83010  1.0000 -0.1982484522
C   C48       1.0  0.43470  0.55950  0.66990  1.0000 -0.1982484522
C   C49       1.0  0.37990  0.54410  0.12440  1.0000 -0.0723930153
C   C50       1.0  0.54410  0.37990  0.37560  1.0000 -0.0723930153
C   C51       1.0  0.62010  0.45590  0.87560  1.0000 -0.0723930153
C   C52       1.0  0.45590  0.62010  0.62440  1.0000 -0.0723930153
C   C53       1.0  0.41890  0.65990  0.09440  1.0000 -0.1344238211
C   C54       1.0  0.65990  0.41890  0.40560  1.0000 -0.1344238211
C   C55       1.0  0.58110  0.34010  0.90560  1.0000 -0.1344238211
C   C56       1.0  0.34010  0.58110  0.59440  1.0000 -0.1344238211
C   C57       1.0  0.00540  0.38600  0.45510  1.0000 0.6403749502
C   C58       1.0  0.38600  0.00540  0.04490  1.0000 0.6403749502
C   C59       1.0  0.99460  0.61400  0.54490  1.0000 0.6403749502
C   C60       1.0  0.61400  0.99460  0.95510  1.0000 0.6403749502
C   C61       1.0  0.02880  0.32960  0.43760  1.0000 0.0018123114
C   C62       1.0  0.32960  0.02880  0.06240  1.0000 0.0018123114
C   C63       1.0  0.97120  0.67040  0.56240  1.0000 0.0018123114
C   C64       1.0  0.67040  0.97120  0.93760  1.0000 0.0018123114
C   C65       1.0  0.91230  0.17890  0.43150  1.0000 -0.1344238211
C   C66       1.0  0.17890  0.91230  0.06850  1.0000 -0.1344238211
C   C67       1.0  0.08770  0.82110  0.56850  1.0000 -0.1344238211
C   C68       1.0  0.82110  0.08770  0.93150  1.0000 -0.1344238211
C   C69       1.0  0.93850  0.13330  0.41640  1.0000 -0.0723930153
C   C70       1.0  0.13330  0.93850  0.08360  1.0000 -0.0723930153
C   C71       1.0  0.06150  0.86670  0.58360  1.0000 -0.0723930153
C   C72       1.0  0.86670  0.06150  0.91640  1.0000 -0.0723930153
C   C73       1.0  0.08380  0.23380  0.40720  1.0000 -0.239020708
C   C74       1.0  0.23380  0.08380  0.09280  1.0000 -0.239020708
C   C75       1.0  0.91620  0.76620  0.59280  1.0000 -0.239020708
C   C76       1.0  0.76620  0.91620  0.90720  1.0000 -0.239020708
C   C77       1.0  0.20060  0.38600  0.41380  1.0000 0.253311745
C   C78       1.0  0.38600  0.20060  0.08620  1.0000 0.253311745
C   C79       1.0  0.79940  0.61400  0.58620  1.0000 0.253311745
C   C80       1.0  0.61400  0.79940  0.91380  1.0000 0.253311745
C   C81       1.0  0.17230  0.43170  0.42820  1.0000 -0.2269372129
C   C82       1.0  0.43170  0.17230  0.07180  1.0000 -0.2269372129
C   C83       1.0  0.82770  0.56830  0.57180  1.0000 -0.2269372129
C   C84       1.0  0.56830  0.82770  0.92820  1.0000 -0.2269372129
C   C85       1.0  0.93850  0.83750  0.41170  1.0000 -0.0569236921
C   C86       1.0  0.83750  0.93850  0.08830  1.0000 -0.0569236921
C   C87       1.0  0.06150  0.16250  0.58830  1.0000 -0.0569236921
C   C88       1.0  0.16250  0.06150  0.91170  1.0000 -0.0569236921
C   C89       1.0  0.68300  0.83180  0.25570  1.0000 -0.0569236921
C   C90       1.0  0.83180  0.68300  0.24430  1.0000 -0.0569236921
C   C91       1.0  0.31700  0.16820  0.74430  1.0000 -0.0569236921
C   C92       1.0  0.16820  0.31700  0.75570  1.0000 -0.0569236921
C   C93       1.0  0.38400  0.45440  0.39160  1.0000 -0.0723930153
C   C94       1.0  0.45440  0.38400  0.10840  1.0000 -0.0723930153
C   C95       1.0  0.61600  0.54560  0.60840  1.0000 -0.0723930153
C   C96       1.0  0.54560  0.61600  0.89160  1.0000 -0.0723930153
C   C97       1.0  0.80300  0.78120  0.38270  1.0000 -0.0480901986
C   C98       1.0  0.78120  0.80300  0.11730  1.0000 -0.0480901986
C   C99       1.0  0.19700  0.21880  0.61730  1.0000 -0.0480901986
C   C100      1.0  0.21880  0.19700  0.88270  1.0000 -0.0480901986
C   C101      1.0  0.81290  0.84310  0.33640  1.0000 0.0794237583
C   C102      1.0  0.84310  0.81290  0.16360  1.0000 0.0794237583
C   C103      1.0  0.18710  0.15690  0.66360  1.0000 0.0794237583
C   C104      1.0  0.15690  0.18710  0.83640  1.0000 0.0794237583
C   C105      1.0  0.68000  0.77600  0.30840  1.0000 -0.0480901986
C   C106      1.0  0.77600  0.68000  0.19160  1.0000 -0.0480901986
C   C107      1.0  0.32000  0.22400  0.69160  1.0000 -0.0480901986
C   C108      1.0  0.22400  0.32000  0.80840  1.0000 -0.0480901986
C   C109      1.0  0.54460  0.65540  0.32690  1.0000 0.0917258542
C   C110      1.0  0.65540  0.54460  0.17310  1.0000 0.0917258542
C   C111      1.0  0.45540  0.34460  0.67310  1.0000 0.0917258542
C   C112      1.0  0.34460  0.45540  0.82690  1.0000 0.0917258542
C   C113      1.0  0.53550  0.59490  0.37420  1.0000 -0.0480901986
C   C114      1.0  0.59490  0.53550  0.12580  1.0000 -0.0480901986
C   C115      1.0  0.46450  0.40510  0.62580  1.0000 -0.0480901986
C   C116      1.0  0.40510  0.46450  0.87420  1.0000 -0.0480901986
C   C117      1.0  0.66620  0.65980  0.40260  1.0000 0.0794237583
C   C118      1.0  0.65980  0.66620  0.09740  1.0000 0.0794237583
C   C119      1.0  0.33380  0.34020  0.59740  1.0000 0.0794237583
C   C120      1.0  0.34020  0.33380  0.90260  1.0000 0.0794237583
C   C121      1.0  0.96260  0.97620  0.31630  1.0000 -0.4630344444
C   C122      1.0  0.97620  0.96260  0.18370  1.0000 -0.4630344444
C   C123      1.0  0.03740  0.02380  0.68370  1.0000 -0.4630344444
C   C124      1.0  0.02380  0.03740  0.81630  1.0000 -0.4630344444
C   C125      1.0  0.40240  0.58620  0.29650  1.0000 -0.4310186961
C   C126      1.0  0.58620  0.40240  0.20350  1.0000 -0.4310186961
C   C127      1.0  0.59760  0.41380  0.70350  1.0000 -0.4310186961
C   C128      1.0  0.41380  0.59760  0.79650  1.0000 -0.4310186961
C   C129      1.0  0.65910  0.59850  0.45400  1.0000 -0.4785149255
C   C130      1.0  0.59850  0.65910  0.04600  1.0000 -0.4785149255
C   C131      1.0  0.34090  0.40150  0.54600  1.0000 -0.4785149255
C   C132      1.0  0.40150  0.34090  0.95400  1.0000 -0.4785149255
O   O1        1.0  0.57680  0.17980  0.49050  1.0000 -0.6775373601
O   O2        1.0  0.17980  0.57680  0.00950  1.0000 -0.6775373601
O   O3        1.0  0.42320  0.82020  0.50950  1.0000 -0.6775373601
O   O4        1.0  0.82020  0.42320  0.99050  1.0000 -0.6775373601
O   O5        1.0  0.35540  0.95720  0.46560  1.0000 -0.6359032476
O   O6        1.0  0.95720  0.35540  0.03440  1.0000 -0.6359032476
O   O7        1.0  0.64460  0.04280  0.53440  1.0000 -0.6359032476
O   O8        1.0  0.04280  0.64460  0.96560  1.0000 -0.6359032476
O   O9        1.0  0.69460  0.05280  0.08690  1.0000 -0.571111151
O   O10       1.0  0.05280  0.69460  0.41310  1.0000 -0.571111151
O   O11       1.0  0.30540  0.94720  0.91310  1.0000 -0.571111151
O   O12       1.0  0.94720  0.30540  0.58690  1.0000 -0.571111151
O   O13       1.0  0.48270  0.89530  0.04100  1.0000 -0.7430298412
O   O14       1.0  0.89530  0.48270  0.45900  1.0000 -0.7430298412
O   O15       1.0  0.51730  0.10470  0.95900  1.0000 -0.7430298412
O   O16       1.0  0.10470  0.51730  0.54100  1.0000 -0.7430298412
O   O17       1.0  0.88580  0.28780  0.47410  1.0000 -0.6529779517
O   O18       1.0  0.28780  0.88580  0.02590  1.0000 -0.6529779517
O   O19       1.0  0.11420  0.71220  0.52590  1.0000 -0.6529779517
O   O20       1.0  0.71220  0.11420  0.97410  1.0000 -0.6529779517
O   O21       1.0  0.10460  0.52240  0.44920  1.0000 -0.6278641903
O   O22       1.0  0.52240  0.10460  0.05080  1.0000 -0.6278641903
O   O23       1.0  0.89540  0.47760  0.55080  1.0000 -0.6278641903
O   O24       1.0  0.47760  0.89540  0.94920  1.0000 -0.6278641903
O   O25       1.0  0.02250  0.95730  0.43540  1.0000 -0.2096811318
O   O26       1.0  0.95730  0.02250  0.06460  1.0000 -0.2096811318
O   O27       1.0  0.97750  0.04270  0.56460  1.0000 -0.2096811318
O   O28       1.0  0.04270  0.97750  0.93540  1.0000 -0.2096811318
O   O29       1.0  0.60500  0.71200  0.23250  1.0000 -0.1982484522
O   O30       1.0  0.71200  0.60500  0.26750  1.0000 -0.1982484522
O   O31       1.0  0.39500  0.28800  0.76750  1.0000 -0.2096811318
O   O32       1.0  0.28800  0.39500  0.73250  1.0000 -0.1982484522
O   O33       1.0  0.34560  0.49540  0.40590  1.0000 -0.1780377561
O   O34       1.0  0.49540  0.34560  0.09410  1.0000 -0.1780377561
O   O35       1.0  0.65440  0.50460  0.59410  1.0000 -0.1780377561
O   O36       1.0  0.50460  0.65440  0.90590  1.0000 -0.1780377561
