# DDEC6 charges by PACMAN v1.1 (https://github.com/mtap-research/PACMAN-charge/)
data_2017[Er][sql]2[ASR]1
_chemical_formula_sum              "Er2 H48 C78 N2 O12"
_cell_length_a       21.3545
_cell_length_b       21.3545
_cell_length_c       8.924
_cell_angle_alpha    85.6196
_cell_angle_beta     94.3804
_cell_angle_gamma    36.3337

_symmetry_space_group_name_H-M    "P 1"
_symmetry_Int_Tables_number       1

loop_
  _symmetry_equiv_pos_as_xyz
  'x, y, z'

loop_
  _atom_site_type_symbol
  _atom_site_label
  _atom_site_symmetry_multiplicity
  _atom_site_fract_x
  _atom_site_fract_y
  _atom_site_fract_z
  _atom_site_occupancy
  _atom_site_charge
Er  Er1       1.0  0.87959  0.12041  0.67957  1.0000 1.9960615705
Er  Er2       1.0  0.12041  0.87959  0.32043  1.0000 1.99474097
H   H1        1.0  0.18310  0.96450  0.88640  1.0000 0.1277505528
H   H2        1.0  0.28050  0.93830  0.73240  1.0000 0.1012654375
H   H3        1.0  0.54760  0.70580  0.07980  1.0000 0.1012654375
H   H4        1.0  0.44890  0.72850  0.23250  1.0000 0.1186273392
H   H5        1.0  0.42070  0.80770  0.59620  1.0000 0.1186273392
H   H6        1.0  0.52940  0.75880  0.43580  1.0000 0.1186273392
H   H7        1.0  0.69080  0.72860  0.78010  1.0000 0.1186273392
H   H8        1.0  0.57920  0.78020  0.93240  1.0000 0.1104559459
H   H9        1.0  0.58980  0.88640  0.51100  1.0000 0.1186273392
H   H10       1.0  0.64640  0.94380  0.51040  1.0000 0.1104559459
H   H11       1.0  0.74760  0.94180  0.63790  1.0000 0.1104559459
H   H12       1.0  0.80440  0.99840  0.64000  1.0000 0.1277505528
H   H13       1.0  0.96450  0.18310  0.11360  1.0000 0.1277505528
H   H14       1.0  0.93830  0.28050  0.26760  1.0000 0.1012654375
H   H15       1.0  0.70580  0.54760  0.92020  1.0000 0.1012654375
H   H16       1.0  0.72850  0.44890  0.76750  1.0000 0.1186273392
H   H17       1.0  0.80770  0.42070  0.40380  1.0000 0.1186273392
H   H18       1.0  0.75880  0.52940  0.56420  1.0000 0.1186273392
H   H19       1.0  0.72860  0.69080  0.21990  1.0000 0.1186273392
H   H20       1.0  0.78020  0.57920  0.06760  1.0000 0.1104559459
H   H21       1.0  0.88640  0.58980  0.48900  1.0000 0.1186273392
H   H22       1.0  0.94380  0.64640  0.48960  1.0000 0.1104559459
H   H23       1.0  0.94180  0.74760  0.36210  1.0000 0.1104559459
H   H24       1.0  0.99840  0.80440  0.36000  1.0000 0.1277505528
H   H25       1.0  0.81690  0.03550  0.11360  1.0000 0.1277505528
H   H26       1.0  0.71950  0.06170  0.26760  1.0000 0.1012654375
H   H27       1.0  0.45240  0.29420  0.92020  1.0000 0.1012654375
H   H28       1.0  0.55110  0.27150  0.76750  1.0000 0.1186273392
H   H29       1.0  0.57930  0.19230  0.40380  1.0000 0.1186273392
H   H30       1.0  0.47060  0.24120  0.56420  1.0000 0.1186273392
H   H31       1.0  0.30920  0.27140  0.21990  1.0000 0.1186273392
H   H32       1.0  0.42080  0.21980  0.06760  1.0000 0.1104559459
H   H33       1.0  0.41020  0.11360  0.48900  1.0000 0.1186273392
H   H34       1.0  0.35360  0.05620  0.48960  1.0000 0.1104559459
H   H35       1.0  0.25240  0.05820  0.36210  1.0000 0.1104559459
H   H36       1.0  0.19560  0.00160  0.36000  1.0000 0.1277505528
H   H37       1.0  0.03550  0.81690  0.88640  1.0000 0.1277505528
H   H38       1.0  0.06170  0.71950  0.73240  1.0000 0.1012654375
H   H39       1.0  0.29420  0.45240  0.07980  1.0000 0.1012654375
H   H40       1.0  0.27150  0.55110  0.23250  1.0000 0.1186273392
H   H41       1.0  0.19230  0.57930  0.59620  1.0000 0.1186273392
H   H42       1.0  0.24120  0.47060  0.43580  1.0000 0.1186273392
H   H43       1.0  0.27140  0.30920  0.78010  1.0000 0.1186273392
H   H44       1.0  0.21980  0.42080  0.93240  1.0000 0.1104559459
H   H45       1.0  0.11360  0.41020  0.51100  1.0000 0.1186273392
H   H46       1.0  0.05620  0.35360  0.51040  1.0000 0.1104559459
H   H47       1.0  0.05820  0.25240  0.63790  1.0000 0.1104559459
H   H48       1.0  0.00160  0.19560  0.64000  1.0000 0.1277505528
C   C1        1.0  0.24359  0.85639  0.16370  1.0000 0.5619530748
C   C2        1.0  0.30626  0.84606  0.07160  1.0000 -0.0116257645
C   C3        1.0  0.25720  0.91000  0.92410  1.0000 -0.0876057525
C   C4        1.0  0.31537  0.89497  0.83210  1.0000 -0.1402616822
C   C5        1.0  0.42607  0.81567  0.88570  1.0000 0.0715672941
C   C6        1.0  0.47497  0.75557  0.03910  1.0000 -0.1632865001
C   C7        1.0  0.41556  0.76976  0.13150  1.0000 -0.1068572853
C   C8        1.0  0.49138  0.79318  0.78430  1.0000 0.0483735125
C   C9        1.0  0.47655  0.78975  0.63450  1.0000 -0.1402616822
C   C10       1.0  0.54178  0.76038  0.53670  1.0000 -0.1892059127
C   C11       1.0  0.62646  0.73326  0.59330  1.0000 0.170829631
C   C12       1.0  0.63775  0.74275  0.74220  1.0000 -0.1892059127
C   C13       1.0  0.57102  0.77302  0.83410  1.0000 -0.1402616822
C   C14       1.0  0.66092  0.83812  0.50650  1.0000 -0.1892059127
C   C15       1.0  0.69528  0.87248  0.50630  1.0000 -0.1402616822
C   C16       1.0  0.79851  0.91371  0.58210  1.0000 -0.1491518844
C   C17       1.0  0.83205  0.94805  0.58340  1.0000 -0.1015788936
C   C18       1.0  0.85639  0.24359  0.83630  1.0000 0.5619530748
C   C19       1.0  0.84606  0.30626  0.92840  1.0000 -0.0116257645
C   C20       1.0  0.91000  0.25720  0.07590  1.0000 -0.0876057525
C   C21       1.0  0.89497  0.31537  0.16790  1.0000 -0.1402616822
C   C22       1.0  0.81567  0.42607  0.11430  1.0000 0.0715672941
C   C23       1.0  0.75557  0.47497  0.96090  1.0000 -0.1632865001
C   C24       1.0  0.76976  0.41556  0.86850  1.0000 -0.1068572853
C   C25       1.0  0.79318  0.49138  0.21570  1.0000 0.0483735125
C   C26       1.0  0.78975  0.47655  0.36550  1.0000 -0.1402616822
C   C27       1.0  0.76038  0.54178  0.46330  1.0000 -0.1892059127
C   C28       1.0  0.73326  0.62646  0.40670  1.0000 0.170829631
C   C29       1.0  0.74275  0.63775  0.25780  1.0000 -0.1892059127
C   C30       1.0  0.77302  0.57102  0.16590  1.0000 -0.1402616822
C   C31       1.0  0.83812  0.66092  0.49350  1.0000 -0.1892059127
C   C32       1.0  0.87248  0.69528  0.49370  1.0000 -0.1402616822
C   C33       1.0  0.91371  0.79851  0.41790  1.0000 -0.1491518844
C   C34       1.0  0.94805  0.83205  0.41660  1.0000 -0.1015788936
C   C35       1.0  0.75641  0.14361  0.83630  1.0000 0.5619530748
C   C36       1.0  0.69374  0.15394  0.92840  1.0000 -0.0116257645
C   C37       1.0  0.74280  0.09000  0.07590  1.0000 -0.0876057525
C   C38       1.0  0.68463  0.10503  0.16790  1.0000 -0.1402616822
C   C39       1.0  0.57393  0.18433  0.11430  1.0000 0.0715672941
C   C40       1.0  0.52503  0.24443  0.96090  1.0000 -0.1632865001
C   C41       1.0  0.58444  0.23024  0.86850  1.0000 -0.1068572853
C   C42       1.0  0.50862  0.20682  0.21570  1.0000 0.0483735125
C   C43       1.0  0.52345  0.21025  0.36550  1.0000 -0.1402616822
C   C44       1.0  0.45822  0.23962  0.46330  1.0000 -0.1892059127
C   C45       1.0  0.37354  0.26674  0.40670  1.0000 0.170829631
C   C46       1.0  0.36225  0.25725  0.25780  1.0000 -0.1892059127
C   C47       1.0  0.42898  0.22698  0.16590  1.0000 -0.1402616822
C   C48       1.0  0.33908  0.16188  0.49350  1.0000 -0.1892059127
C   C49       1.0  0.30472  0.12752  0.49370  1.0000 -0.1402616822
C   C50       1.0  0.20149  0.08629  0.41790  1.0000 -0.1491518844
C   C51       1.0  0.16795  0.05195  0.41660  1.0000 -0.1015788936
C   C52       1.0  0.14361  0.75641  0.16370  1.0000 0.5619530748
C   C53       1.0  0.15394  0.69374  0.07160  1.0000 -0.0116257645
C   C54       1.0  0.09000  0.74280  0.92410  1.0000 -0.0876057525
C   C55       1.0  0.10503  0.68463  0.83210  1.0000 -0.1402616822
C   C56       1.0  0.18433  0.57393  0.88570  1.0000 0.0715672941
C   C57       1.0  0.24443  0.52503  0.03910  1.0000 -0.1632865001
C   C58       1.0  0.23024  0.58444  0.13150  1.0000 -0.1068572853
C   C59       1.0  0.20682  0.50862  0.78430  1.0000 0.0483735125
C   C60       1.0  0.21025  0.52345  0.63450  1.0000 -0.1402616822
C   C61       1.0  0.23962  0.45822  0.53670  1.0000 -0.1892059127
C   C62       1.0  0.26674  0.37354  0.59330  1.0000 0.170829631
C   C63       1.0  0.25725  0.36225  0.74220  1.0000 -0.1892059127
C   C64       1.0  0.22698  0.42898  0.83410  1.0000 -0.1402616822
C   C65       1.0  0.16188  0.33908  0.50650  1.0000 -0.1892059127
C   C66       1.0  0.12752  0.30472  0.50630  1.0000 -0.1402616822
C   C67       1.0  0.08629  0.20149  0.58210  1.0000 -0.1491518844
C   C68       1.0  0.05195  0.16795  0.58340  1.0000 -0.1015788936
C   C69       1.0  0.73254  0.73254  0.50000  1.0000 0.1624258231
C   C70       1.0  0.80168  0.80168  0.50000  1.0000 0.0558541785
C   C71       1.0  0.83853  0.83853  0.50000  1.0000 0.0715672941
C   C72       1.0  0.90728  0.90728  0.50000  1.0000 -0.0435028621
C   C73       1.0  0.94431  0.94431  0.50000  1.0000 0.6508771251
C   C74       1.0  0.26746  0.26746  0.50000  1.0000 0.1624258231
C   C75       1.0  0.19832  0.19832  0.50000  1.0000 0.0558541785
C   C76       1.0  0.16147  0.16147  0.50000  1.0000 0.0715672941
C   C77       1.0  0.09272  0.09272  0.50000  1.0000 -0.0435028621
C   C78       1.0  0.05569  0.05569  0.50000  1.0000 0.6508771251
N   N1        1.0  0.69741  0.69741  0.50000  1.0000 -0.183553629
N   N2        1.0  0.30259  0.30259  0.50000  1.0000 -0.183553629
O   O1        1.0  0.14509  0.92769  0.11110  1.0000 -0.5860415031
O   O2        1.0  0.28697  0.79417  0.29050  1.0000 -0.608015113
O   O3        1.0  0.90215  0.01515  0.56670  1.0000 -0.6469674636
O   O4        1.0  0.92769  0.14509  0.88890  1.0000 -0.5860415031
O   O5        1.0  0.79417  0.28697  0.70950  1.0000 -0.608015113
O   O6        1.0  0.01515  0.90215  0.43330  1.0000 -0.6469674636
O   O7        1.0  0.85491  0.07231  0.88890  1.0000 -0.5860415031
O   O8        1.0  0.71303  0.20583  0.70950  1.0000 -0.608015113
O   O9        1.0  0.09785  0.98485  0.43330  1.0000 -0.6469674636
O   O10       1.0  0.07231  0.85491  0.11110  1.0000 -0.5860415031
O   O11       1.0  0.20583  0.71303  0.29050  1.0000 -0.608015113
O   O12       1.0  0.98485  0.09785  0.56670  1.0000 -0.6469674636
