# DDEC6 charges by PACMAN v1.1 (https://github.com/mtap-research/PACMAN-charge/)
data_2017[ZnTb][nan]3[ASR]1
_chemical_formula_sum              "Tb4 Zn4 H56 C96 N16 Cl4 O36"
_cell_length_a       15.6437
_cell_length_b       15.6437
_cell_length_c       22.6184
_cell_angle_alpha    81.484
_cell_angle_beta     98.516
_cell_angle_gamma    126.938

_symmetry_space_group_name_H-M    "P 1"
_symmetry_Int_Tables_number       1

loop_
  _symmetry_equiv_pos_as_xyz
  'x, y, z'

loop_
  _atom_site_type_symbol
  _atom_site_label
  _atom_site_symmetry_multiplicity
  _atom_site_fract_x
  _atom_site_fract_y
  _atom_site_fract_z
  _atom_site_occupancy
  _atom_site_charge
Tb  Tb1       1.0  0.09050  0.15636  0.95700  1.0000 2.1014409832
Tb  Tb2       1.0  0.15636  0.09050  0.54300  1.0000 2.1014409832
Tb  Tb3       1.0  0.90950  0.84364  0.04300  1.0000 2.1014409832
Tb  Tb4       1.0  0.84364  0.90950  0.45700  1.0000 2.1014409832
Zn  Zn1       1.0  0.85766  0.38348  0.64803  1.0000 0.5801970235
Zn  Zn2       1.0  0.38348  0.85766  0.85197  1.0000 0.5801970235
Zn  Zn3       1.0  0.14234  0.61652  0.35197  1.0000 0.5801970235
Zn  Zn4       1.0  0.61652  0.14234  0.14803  1.0000 0.5801970235
H   H1        1.0  0.64110  0.04090  0.77400  1.0000 0.1324794313
H   H2        1.0  0.04090  0.64110  0.72600  1.0000 0.1324794313
H   H3        1.0  0.35890  0.95910  0.22600  1.0000 0.1324794313
H   H4        1.0  0.95910  0.35890  0.27400  1.0000 0.1324794313
H   H5        1.0  0.77310  0.04090  0.83190  1.0000 0.1324794313
H   H6        1.0  0.04090  0.77310  0.66810  1.0000 0.1324794313
H   H7        1.0  0.22690  0.95910  0.16810  1.0000 0.1324794313
H   H8        1.0  0.95910  0.22690  0.33190  1.0000 0.1324794313
H   H9        1.0  0.85730  0.19730  0.43810  1.0000 0.1367937497
H   H10       1.0  0.19730  0.85730  0.06190  1.0000 0.1367937497
H   H11       1.0  0.14270  0.80270  0.56190  1.0000 0.1367937497
H   H12       1.0  0.80270  0.14270  0.93810  1.0000 0.1367937497
H   H13       1.0  0.88200  0.64900  0.43740  1.0000 0.1324794313
H   H14       1.0  0.64900  0.88200  0.06260  1.0000 0.1324794313
H   H15       1.0  0.11800  0.35100  0.56260  1.0000 0.1324794313
H   H16       1.0  0.35100  0.11800  0.93740  1.0000 0.1324794313
H   H17       1.0  0.63510  0.31690  0.58330  1.0000 0.1175689942
H   H18       1.0  0.31690  0.63510  0.91670  1.0000 0.1175689942
H   H19       1.0  0.36490  0.68310  0.41670  1.0000 0.1175689942
H   H20       1.0  0.68310  0.36490  0.08330  1.0000 0.1175689942
H   H21       1.0  0.85790  0.19390  0.61690  1.0000 0.112571788
H   H22       1.0  0.19390  0.85790  0.88310  1.0000 0.112571788
H   H23       1.0  0.14210  0.80610  0.38310  1.0000 0.112571788
H   H24       1.0  0.80610  0.14210  0.11690  1.0000 0.112571788
H   H25       1.0  0.98140  0.31260  0.73180  1.0000 0.112571788
H   H26       1.0  0.31260  0.98140  0.76820  1.0000 0.112571788
H   H27       1.0  0.01860  0.68740  0.26820  1.0000 0.112571788
H   H28       1.0  0.68740  0.01860  0.23180  1.0000 0.112571788
H   H29       1.0  0.86820  0.59240  0.60780  1.0000 0.112571788
H   H30       1.0  0.59240  0.86820  0.89220  1.0000 0.112571788
H   H31       1.0  0.13180  0.40760  0.39220  1.0000 0.112571788
H   H32       1.0  0.40760  0.13180  0.10780  1.0000 0.112571788
H   H33       1.0  0.86650  0.35870  0.42840  1.0000 0.1324794313
H   H34       1.0  0.35870  0.86650  0.07160  1.0000 0.1324794313
H   H35       1.0  0.13350  0.64130  0.57160  1.0000 0.1324794313
H   H36       1.0  0.64130  0.13350  0.92840  1.0000 0.1324794313
H   H37       1.0  0.87270  0.50070  0.43040  1.0000 0.1367937497
H   H38       1.0  0.50070  0.87270  0.06960  1.0000 0.1367937497
H   H39       1.0  0.12730  0.49930  0.56960  1.0000 0.1367937497
H   H40       1.0  0.49930  0.12730  0.93040  1.0000 0.1367937497
H   H41       1.0  0.50980  0.04220  0.70850  1.0000 0.1367937497
H   H42       1.0  0.04220  0.50980  0.79150  1.0000 0.1367937497
H   H43       1.0  0.49020  0.95780  0.29150  1.0000 0.1367937497
H   H44       1.0  0.95780  0.49020  0.20850  1.0000 0.1367937497
H   H45       1.0  0.39820  0.05980  0.65000  1.0000 0.1324794313
H   H46       1.0  0.05980  0.39820  0.85000  1.0000 0.1324794313
H   H47       1.0  0.60180  0.94020  0.35000  1.0000 0.1324794313
H   H48       1.0  0.94020  0.60180  0.15000  1.0000 0.1324794313
H   H49       1.0  0.97940  0.93660  0.92240  1.0000 0.3706917561
H   H50       1.0  0.93660  0.97940  0.57760  1.0000 0.3706917561
H   H51       1.0  0.02060  0.06340  0.07760  1.0000 0.3706917561
H   H52       1.0  0.06340  0.02060  0.42240  1.0000 0.3706917561
H   H53       1.0  0.90020  0.94580  0.92530  1.0000 0.3610778323
H   H54       1.0  0.94580  0.90020  0.57470  1.0000 0.3610778323
H   H55       1.0  0.09980  0.05420  0.07470  1.0000 0.3610778323
H   H56       1.0  0.05420  0.09980  0.42530  1.0000 0.3610778323
C   C1        1.0  0.70517  0.09363  0.76701  1.0000 -0.1610284165
C   C2        1.0  0.09363  0.70517  0.73299  1.0000 -0.1610284165
C   C3        1.0  0.29483  0.90637  0.23299  1.0000 -0.1610284165
C   C4        1.0  0.90637  0.29483  0.26701  1.0000 -0.1610284165
C   C5        1.0  0.78744  0.09496  0.79988  1.0000 -0.0441385543
C   C6        1.0  0.09496  0.78744  0.70012  1.0000 -0.0441385543
C   C7        1.0  0.21256  0.90504  0.20012  1.0000 -0.0441385543
C   C8        1.0  0.90504  0.21256  0.29988  1.0000 -0.0441385543
C   C9        1.0  0.86276  0.18294  0.53058  1.0000 -0.0596857693
C   C10       1.0  0.18294  0.86276  0.96942  1.0000 -0.0596857693
C   C11       1.0  0.13724  0.81706  0.46942  1.0000 -0.0596857693
C   C12       1.0  0.81706  0.13724  0.03058  1.0000 -0.0596857693
C   C13       1.0  0.85930  0.35832  0.51858  1.0000 0.1610238946
C   C14       1.0  0.35832  0.85930  0.98142  1.0000 0.1610238946
C   C15       1.0  0.14070  0.64168  0.48142  1.0000 0.1610238946
C   C16       1.0  0.64168  0.14070  0.01858  1.0000 0.1610238946
C   C17       1.0  0.86000  0.45396  0.51726  1.0000 0.1610238946
C   C18       1.0  0.45396  0.86000  0.98274  1.0000 0.1610238946
C   C19       1.0  0.14000  0.54604  0.48274  1.0000 0.1610238946
C   C20       1.0  0.54604  0.14000  0.01726  1.0000 0.1610238946
C   C21       1.0  0.86292  0.23156  0.47341  1.0000 -0.0520838198
C   C22       1.0  0.23156  0.86292  0.02659  1.0000 -0.0520838198
C   C23       1.0  0.13708  0.76844  0.52659  1.0000 -0.0520838198
C   C24       1.0  0.76844  0.13708  0.97341  1.0000 -0.0520838198
C   C25       1.0  0.87234  0.60670  0.46807  1.0000 -0.0304819371
C   C26       1.0  0.60670  0.87234  0.03193  1.0000 -0.0304819371
C   C27       1.0  0.12766  0.39330  0.53193  1.0000 -0.0304819371
C   C28       1.0  0.39330  0.12766  0.96807  1.0000 -0.0304819371
C   C29       1.0  0.86651  0.08793  0.53901  1.0000 0.6116072407
C   C30       1.0  0.08793  0.86651  0.96099  1.0000 0.6116072407
C   C31       1.0  0.13349  0.91207  0.46099  1.0000 0.6116072407
C   C32       1.0  0.91207  0.13349  0.03901  1.0000 0.6116072407
C   C33       1.0  0.89183  0.74009  0.53066  1.0000 0.6116072407
C   C34       1.0  0.74009  0.89183  0.96934  1.0000 0.6116072407
C   C35       1.0  0.10817  0.25991  0.46934  1.0000 0.6116072407
C   C36       1.0  0.25991  0.10817  0.03066  1.0000 0.6116072407
C   C37       1.0  0.42406  0.20194  0.56240  1.0000 0.6161787829
C   C38       1.0  0.20194  0.42406  0.93760  1.0000 0.6161787829
C   C39       1.0  0.57594  0.79806  0.43760  1.0000 0.6161787829
C   C40       1.0  0.79806  0.57594  0.06240  1.0000 0.6161787829
C   C41       1.0  0.61069  0.26791  0.60540  1.0000 0.0498589895
C   C42       1.0  0.26791  0.61069  0.89460  1.0000 0.0498589895
C   C43       1.0  0.38931  0.73209  0.39460  1.0000 0.0498589895
C   C44       1.0  0.73209  0.38931  0.10540  1.0000 0.0498589895
C   C45       1.0  0.87572  0.63680  0.52342  1.0000 -0.0726818379
C   C46       1.0  0.63680  0.87572  0.97658  1.0000 -0.0726818379
C   C47       1.0  0.12428  0.36320  0.47658  1.0000 -0.0755179354
C   C48       1.0  0.36320  0.12428  0.02342  1.0000 -0.0726818379
C   C49       1.0  0.86098  0.22598  0.57857  1.0000 0.0612209094
C   C50       1.0  0.22598  0.86098  0.92143  1.0000 0.0612209094
C   C51       1.0  0.13902  0.77402  0.42143  1.0000 0.0612209094
C   C52       1.0  0.77402  0.13902  0.07857  1.0000 0.0612209094
C   C53       1.0  0.91028  0.25486  0.74257  1.0000 0.0612209094
C   C54       1.0  0.25486  0.91028  0.75743  1.0000 0.0612209094
C   C55       1.0  0.08972  0.74514  0.25743  1.0000 0.0612209094
C   C56       1.0  0.74514  0.08972  0.24257  1.0000 0.0612209094
C   C57       1.0  0.86671  0.57023  0.57341  1.0000 0.0612209094
C   C58       1.0  0.57023  0.86671  0.92659  1.0000 0.0612209094
C   C59       1.0  0.13329  0.42977  0.42659  1.0000 0.0612209094
C   C60       1.0  0.42977  0.13329  0.07341  1.0000 0.0612209094
C   C61       1.0  0.86260  0.32056  0.46772  1.0000 -0.1676131317
C   C62       1.0  0.32056  0.86260  0.03228  1.0000 -0.1676131317
C   C63       1.0  0.13740  0.67944  0.53228  1.0000 -0.1676131317
C   C64       1.0  0.67944  0.13740  0.96772  1.0000 -0.1676131317
C   C65       1.0  0.98549  0.17685  0.81743  1.0000 0.5970998875
C   C66       1.0  0.17685  0.98549  0.68257  1.0000 0.5970998875
C   C67       1.0  0.01451  0.82315  0.18257  1.0000 0.5970998875
C   C68       1.0  0.82315  0.01451  0.31743  1.0000 0.5970998875
C   C69       1.0  0.64508  0.17752  0.68296  1.0000 0.1684669799
C   C70       1.0  0.17752  0.64508  0.81704  1.0000 0.1684669799
C   C71       1.0  0.35492  0.82248  0.31704  1.0000 0.1684669799
C   C72       1.0  0.82248  0.35492  0.18296  1.0000 0.1684669799
C   C73       1.0  0.89270  0.17518  0.78640  1.0000 -0.0520838198
C   C74       1.0  0.17518  0.89270  0.71360  1.0000 -0.0520838198
C   C75       1.0  0.10730  0.82482  0.21360  1.0000 -0.0520838198
C   C76       1.0  0.82482  0.10730  0.28640  1.0000 -0.0520838198
C   C77       1.0  0.86531  0.51519  0.46488  1.0000 -0.1610284165
C   C78       1.0  0.51519  0.86531  0.03512  1.0000 -0.1610284165
C   C79       1.0  0.13469  0.48481  0.53512  1.0000 -0.1610284165
C   C80       1.0  0.48481  0.13469  0.96488  1.0000 -0.1610284165
C   C81       1.0  0.72902  0.17478  0.72247  1.0000 0.1684669799
C   C82       1.0  0.17478  0.72902  0.77753  1.0000 0.1684669799
C   C83       1.0  0.27098  0.82522  0.27753  1.0000 0.1684669799
C   C84       1.0  0.82522  0.27098  0.22247  1.0000 0.1684669799
C   C85       1.0  0.50140  0.19220  0.60579  1.0000 -0.0726818379
C   C86       1.0  0.19220  0.50140  0.89421  1.0000 -0.0726818379
C   C87       1.0  0.49860  0.80780  0.39421  1.0000 -0.0726818379
C   C88       1.0  0.80780  0.49860  0.10579  1.0000 -0.0726818379
C   C89       1.0  0.53726  0.09834  0.68651  1.0000 -0.1610284165
C   C90       1.0  0.09834  0.53726  0.81349  1.0000 -0.1610284165
C   C91       1.0  0.46274  0.90166  0.31349  1.0000 -0.1610284165
C   C92       1.0  0.90166  0.46274  0.18651  1.0000 -0.1610284165
C   C93       1.0  0.46502  0.10658  0.64829  1.0000 -0.0304819371
C   C94       1.0  0.10658  0.46502  0.85171  1.0000 -0.0304819371
C   C95       1.0  0.53498  0.89342  0.35171  1.0000 -0.0304819371
C   C96       1.0  0.89342  0.53498  0.14829  1.0000 -0.0304819371
N   N1        1.0  0.85830  0.31056  0.57356  1.0000 -0.2314419576
N   N2        1.0  0.31056  0.85830  0.92644  1.0000 -0.2314419576
N   N3        1.0  0.14170  0.68944  0.42644  1.0000 -0.2314419576
N   N4        1.0  0.68944  0.14170  0.07356  1.0000 -0.2314419576
N   N5        1.0  0.83152  0.25648  0.71195  1.0000 -0.2374438157
N   N6        1.0  0.25648  0.83152  0.78805  1.0000 -0.2374438157
N   N7        1.0  0.16848  0.74352  0.28805  1.0000 -0.2374438157
N   N8        1.0  0.74352  0.16848  0.21195  1.0000 -0.2374438157
N   N9        1.0  0.85790  0.48030  0.57111  1.0000 -0.2374438157
N   N10       1.0  0.48030  0.85790  0.92889  1.0000 -0.2374438157
N   N11       1.0  0.14210  0.51970  0.42889  1.0000 -0.2374438157
N   N12       1.0  0.51970  0.14210  0.07111  1.0000 -0.2374438157
N   N13       1.0  0.68186  0.26276  0.64278  1.0000 -0.2314419576
N   N14       1.0  0.26276  0.68186  0.85722  1.0000 -0.2314419576
N   N15       1.0  0.31814  0.73724  0.35722  1.0000 -0.2314419576
N   N16       1.0  0.73724  0.31814  0.14278  1.0000 -0.2314419576
Cl  Cl1       1.0  0.04662  0.49568  0.66580  1.0000 -0.5701573321
Cl  Cl2       1.0  0.49568  0.04662  0.83420  1.0000 -0.5701573321
Cl  Cl3       1.0  0.95338  0.50432  0.33420  1.0000 -0.5701573321
Cl  Cl4       1.0  0.50432  0.95338  0.16580  1.0000 -0.5701573321
O   O1        1.0  0.97451  0.13425  0.87000  1.0000 -0.6545020768
O   O2        1.0  0.13425  0.97451  0.63000  1.0000 -0.6545020768
O   O3        1.0  0.02549  0.86575  0.13000  1.0000 -0.6545020768
O   O4        1.0  0.86575  0.02549  0.37000  1.0000 -0.6545020768
O   O5        1.0  0.88775  0.06129  0.59108  1.0000 -0.5288116166
O   O6        1.0  0.06129  0.88775  0.90892  1.0000 -0.5288116166
O   O7        1.0  0.11225  0.93871  0.40892  1.0000 -0.5288116166
O   O8        1.0  0.93871  0.11225  0.09108  1.0000 -0.5288116166
O   O9        1.0  0.96305  0.96263  0.94310  1.0000 -0.8413806388
O   O10       1.0  0.96263  0.96305  0.55690  1.0000 -0.8413806388
O   O11       1.0  0.03695  0.03737  0.05690  1.0000 -0.8413806388
O   O12       1.0  0.03737  0.03695  0.44310  1.0000 -0.8413806388
O   O13       1.0  0.90640  0.76652  0.58247  1.0000 -0.5136096158
O   O14       1.0  0.76652  0.90640  0.91753  1.0000 -0.5136096158
O   O15       1.0  0.09360  0.23348  0.41753  1.0000 -0.5136096158
O   O16       1.0  0.23348  0.09360  0.08247  1.0000 -0.5136096158
O   O17       1.0  0.06654  0.22104  0.78830  1.0000 -0.5288116166
O   O18       1.0  0.22104  0.06654  0.71170  1.0000 -0.5288116166
O   O19       1.0  0.93346  0.77896  0.21170  1.0000 -0.5288116166
O   O20       1.0  0.77896  0.93346  0.28830  1.0000 -0.5288116166
O   O21       1.0  0.45955  0.26275  0.51634  1.0000 -0.5542505809
O   O22       1.0  0.26275  0.45955  0.98366  1.0000 -0.5542505809
O   O23       1.0  0.54045  0.73725  0.48366  1.0000 -0.5542505809
O   O24       1.0  0.73725  0.54045  0.01634  1.0000 -0.5542505809
O   O25       1.0  0.89118  0.79288  0.48235  1.0000 -0.7079084346
O   O26       1.0  0.79288  0.89118  0.01765  1.0000 -0.7079084346
O   O27       1.0  0.10882  0.20712  0.51765  1.0000 -0.7079084346
O   O28       1.0  0.20712  0.10882  0.98235  1.0000 -0.7079084346
O   O29       1.0  0.32880  0.14568  0.57673  1.0000 -0.6966167369
O   O30       1.0  0.14568  0.32880  0.92327  1.0000 -0.6966167369
O   O31       1.0  0.67120  0.85432  0.42327  1.0000 -0.6966167369
O   O32       1.0  0.85432  0.67120  0.07673  1.0000 -0.6966167369
O   O33       1.0  0.84808  0.04282  0.49263  1.0000 -0.6709198632
O   O34       1.0  0.04282  0.84808  0.00737  1.0000 -0.6709198632
O   O35       1.0  0.15192  0.95718  0.50737  1.0000 -0.6709198632
O   O36       1.0  0.95718  0.15192  0.99263  1.0000 -0.6709198632
