# DDEC6 charges by PACMAN v1.1 (https://github.com/mtap-research/PACMAN-charge/)
data_2017[Zn][dia]3[ASR]10
_chemical_formula_sum              "Zn2 H24 C32 N4 O8"
_cell_length_a       11.6152
_cell_length_b       11.6152
_cell_length_c       13.4851
_cell_angle_alpha    87.4081
_cell_angle_beta     92.5919
_cell_angle_gamma    45.0429

_symmetry_space_group_name_H-M    "P 1"
_symmetry_Int_Tables_number       1

loop_
  _symmetry_equiv_pos_as_xyz
  'x, y, z'

loop_
  _atom_site_type_symbol
  _atom_site_label
  _atom_site_symmetry_multiplicity
  _atom_site_fract_x
  _atom_site_fract_y
  _atom_site_fract_z
  _atom_site_occupancy
  _atom_site_charge
Zn  Zn1       1.0  0.85268  0.85268  0.25000  1.0000 0.7368037884
Zn  Zn2       1.0  0.14732  0.14732  0.75000  1.0000 0.7368037884
H   H1        1.0  0.47000  0.12680  0.95400  1.0000 0.1402339299
H   H2        1.0  0.12680  0.47000  0.54600  1.0000 0.1402339299
H   H3        1.0  0.53000  0.87320  0.04600  1.0000 0.1402339299
H   H4        1.0  0.87320  0.53000  0.45400  1.0000 0.1402339299
H   H5        1.0  0.97780  0.96820  0.13900  1.0000 0.1032652591
H   H6        1.0  0.96820  0.97780  0.36100  1.0000 0.1032652591
H   H7        1.0  0.02220  0.03180  0.86100  1.0000 0.1032652591
H   H8        1.0  0.03180  0.02220  0.63900  1.0000 0.1032652591
H   H9        1.0  0.19110  0.86770  0.04970  1.0000 0.1402339299
H   H10       1.0  0.86770  0.19110  0.45030  1.0000 0.1402339299
H   H11       1.0  0.80890  0.13230  0.95030  1.0000 0.1402339299
H   H12       1.0  0.13230  0.80890  0.54970  1.0000 0.1402339299
H   H13       1.0  0.38320  0.41880  0.11810  1.0000 0.1327792421
H   H14       1.0  0.41880  0.38320  0.38190  1.0000 0.1327792421
H   H15       1.0  0.61680  0.58120  0.88190  1.0000 0.1327792421
H   H16       1.0  0.58120  0.61680  0.61810  1.0000 0.1327792421
H   H17       1.0  0.17090  0.52930  0.21140  1.0000 0.1062265743
H   H18       1.0  0.52930  0.17090  0.28860  1.0000 0.1062265743
H   H19       1.0  0.82910  0.47070  0.78860  1.0000 0.1062265743
H   H20       1.0  0.47070  0.82910  0.71140  1.0000 0.1062265743
H   H21       1.0  0.43580  0.65260  0.98060  1.0000 0.1327792421
H   H22       1.0  0.65260  0.43580  0.51940  1.0000 0.1327792421
H   H23       1.0  0.56420  0.34740  0.01940  1.0000 0.1327792421
H   H24       1.0  0.34740  0.56420  0.48060  1.0000 0.1327792421
C   C1        1.0  0.63385  0.00805  0.08320  1.0000 0.5797775571
C   C2        1.0  0.00805  0.63385  0.41680  1.0000 0.5797775571
C   C3        1.0  0.36615  0.99195  0.91680  1.0000 0.5797775571
C   C4        1.0  0.99195  0.36615  0.58320  1.0000 0.5797775571
C   C5        1.0  0.51891  0.04091  0.00330  1.0000 -0.182232153
C   C6        1.0  0.04091  0.51891  0.49670  1.0000 -0.182232153
C   C7        1.0  0.48109  0.95909  0.99670  1.0000 -0.182232153
C   C8        1.0  0.95909  0.48109  0.50330  1.0000 -0.182232153
C   C9        1.0  0.06079  0.85619  0.13480  1.0000 0.0717734915
C   C10       1.0  0.85619  0.06079  0.36520  1.0000 0.0717734915
C   C11       1.0  0.93921  0.14381  0.86520  1.0000 0.0717734915
C   C12       1.0  0.14381  0.93921  0.63480  1.0000 0.0717734915
C   C13       1.0  0.18840  0.79660  0.08070  1.0000 -0.1907975044
C   C14       1.0  0.79660  0.18840  0.41930  1.0000 -0.1907975044
C   C15       1.0  0.81160  0.20340  0.91930  1.0000 -0.1907975044
C   C16       1.0  0.20340  0.81160  0.58070  1.0000 -0.1907975044
C   C17       1.0  0.31166  0.63126  0.07260  1.0000 0.1595080529
C   C18       1.0  0.63126  0.31166  0.42740  1.0000 0.1595080529
C   C19       1.0  0.68834  0.36874  0.92740  1.0000 0.1595080529
C   C20       1.0  0.36874  0.68834  0.57260  1.0000 0.1595080529
C   C21       1.0  0.30248  0.53108  0.12190  1.0000 -0.1994369741
C   C22       1.0  0.53108  0.30248  0.37810  1.0000 -0.1994369741
C   C23       1.0  0.69752  0.46892  0.87810  1.0000 -0.1994369741
C   C24       1.0  0.46892  0.69752  0.62190  1.0000 -0.1994369741
C   C25       1.0  0.17310  0.59870  0.17670  1.0000 0.0918621641
C   C26       1.0  0.59870  0.17310  0.32330  1.0000 0.0918621641
C   C27       1.0  0.82690  0.40130  0.82330  1.0000 0.0918621641
C   C28       1.0  0.40130  0.82690  0.67670  1.0000 0.0918621641
C   C29       1.0  0.44050  0.57490  0.00920  1.0000 -0.1264644976
C   C30       1.0  0.57490  0.44050  0.49080  1.0000 -0.1264644976
C   C31       1.0  0.55950  0.42510  0.99080  1.0000 -0.1264644976
C   C32       1.0  0.42510  0.55950  0.50920  1.0000 -0.1264644976
N   N1        1.0  0.05180  0.75840  0.18182  1.0000 -0.2352509614
N   N2        1.0  0.75840  0.05180  0.31818  1.0000 -0.2342238318
N   N3        1.0  0.94820  0.24160  0.81818  1.0000 -0.2342238318
N   N4        1.0  0.24160  0.94820  0.68182  1.0000 -0.2352509614
O   O1        1.0  0.69127  0.89687  0.15368  1.0000 -0.5310431237
O   O2        1.0  0.89687  0.69127  0.34632  1.0000 -0.5310431237
O   O3        1.0  0.30873  0.10313  0.84632  1.0000 -0.5310431237
O   O4        1.0  0.10313  0.30873  0.65368  1.0000 -0.5310431237
O   O5        1.0  0.66992  0.08412  0.07810  1.0000 -0.5621296878
O   O6        1.0  0.08412  0.66992  0.42190  1.0000 -0.5621296878
O   O7        1.0  0.33008  0.91588  0.92190  1.0000 -0.5621296878
O   O8        1.0  0.91588  0.33008  0.57810  1.0000 -0.5621296878
