# DDEC6 charges by PACMAN v1.1 (https://github.com/mtap-research/PACMAN-charge/)
data_2017[Tb][kgd]2[ASR]1
_chemical_formula_sum              "Tb2 H20 C22 N2 O14"
_cell_length_a       8.5415
_cell_length_b       9.0467
_cell_length_c       10.32
_cell_angle_alpha    105.06
_cell_angle_beta     101.69
_cell_angle_gamma    97.85

_symmetry_space_group_name_H-M    "P 1"
_symmetry_Int_Tables_number       1

loop_
  _symmetry_equiv_pos_as_xyz
  'x, y, z'

loop_
  _atom_site_type_symbol
  _atom_site_label
  _atom_site_symmetry_multiplicity
  _atom_site_fract_x
  _atom_site_fract_y
  _atom_site_fract_z
  _atom_site_occupancy
  _atom_site_charge
Tb  Tb1       1.0  0.42311  0.28552  0.02828  1.0000 2.0501159877
Tb  Tb2       1.0  0.57689  0.71448  0.97172  1.0000 2.0501159877
H   H1        1.0  0.75900  0.22380  0.39200  1.0000 0.1191369543
H   H2        1.0  0.66630  0.31890  0.58440  1.0000 0.1089620069
H   H3        1.0  0.76280  0.75360  0.55280  1.0000 0.1191369543
H   H4        1.0  0.85660  0.66080  0.36130  1.0000 0.1191369543
H   H5        1.0  0.93950  0.18570  0.27680  1.0000 0.1339734942
H   H6        1.0  0.97570  0.20880  0.14000  1.0000 0.1577335149
H   H7        1.0  0.98370  0.42420  0.09720  1.0000 0.1524870694
H   H8        1.0  0.01730  0.56540  0.23100  1.0000 0.1364521086
H   H9        1.0  0.54360  0.20010  0.83280  1.0000 0.3503746837
H   H10       1.0  0.47900  0.26950  0.73390  1.0000 0.3865264654
H   H11       1.0  0.24100  0.77620  0.60800  1.0000 0.1191369543
H   H12       1.0  0.33370  0.68110  0.41560  1.0000 0.1089620069
H   H13       1.0  0.23720  0.24640  0.44720  1.0000 0.1191369543
H   H14       1.0  0.14340  0.33920  0.63870  1.0000 0.1191369543
H   H15       1.0  0.06050  0.81430  0.72320  1.0000 0.1339734942
H   H16       1.0  0.02430  0.79120  0.86000  1.0000 0.1577335149
H   H17       1.0  0.01630  0.57580  0.90280  1.0000 0.1524870694
H   H18       1.0  0.98270  0.43460  0.76900  1.0000 0.1364521086
H   H19       1.0  0.45640  0.79990  0.16720  1.0000 0.3503746837
H   H20       1.0  0.52100  0.73050  0.26610  1.0000 0.3865264654
C   C1        1.0  0.82030  0.43150  0.35370  1.0000 0.1971868426
C   C2        1.0  0.76070  0.33020  0.42410  1.0000 -0.2082138658
C   C3        1.0  0.70500  0.38770  0.53960  1.0000 -0.0807161033
C   C4        1.0  0.70510  0.54490  0.59110  1.0000 -0.0717641935
C   C5        1.0  0.76290  0.64760  0.52080  1.0000 -0.0807161033
C   C6        1.0  0.81870  0.59160  0.40600  1.0000 -0.203727603
C   C7        1.0  0.65210  0.60610  0.71740  1.0000 0.5544581264
C   C8        1.0  0.89610  0.21590  0.19520  1.0000 -0.2695311457
C   C9        1.0  0.74000  0.09860  0.11140  1.0000 0.693365559
C   C10       1.0  0.93350  0.48050  0.16590  1.0000 -0.2594277858
C   C11       1.0  0.80280  0.55050  0.09310  1.0000 0.6431979388
C   C12       1.0  0.17970  0.56850  0.64630  1.0000 0.1971868426
C   C13       1.0  0.23930  0.66980  0.57590  1.0000 -0.2082138658
C   C14       1.0  0.29500  0.61230  0.46040  1.0000 -0.0807161033
C   C15       1.0  0.29490  0.45510  0.40890  1.0000 -0.0717641935
C   C16       1.0  0.23710  0.35240  0.47920  1.0000 -0.0807161033
C   C17       1.0  0.18130  0.40840  0.59400  1.0000 -0.203727603
C   C18       1.0  0.34790  0.39390  0.28260  1.0000 0.5544581264
C   C19       1.0  0.10390  0.78410  0.80480  1.0000 -0.2695311457
C   C20       1.0  0.26000  0.90140  0.88860  1.0000 0.693365559
C   C21       1.0  0.06650  0.51950  0.83410  1.0000 -0.2594277858
C   C22       1.0  0.19720  0.44950  0.90690  1.0000 0.6431979388
N   N1        1.0  0.87970  0.37660  0.23930  1.0000 -0.0442651622
N   N2        1.0  0.12030  0.62340  0.76070  1.0000 -0.0454301722
O   O1        1.0  0.61340  0.14970  0.07990  1.0000 -0.7010085136
O   O2        1.0  0.74860  0.95890  0.07870  1.0000 -0.6390622407
O   O3        1.0  0.65220  0.48990  0.06540  1.0000 -0.741260752
O   O4        1.0  0.84780  0.66800  0.05950  1.0000 -0.5984898359
O   O5        1.0  0.59770  0.51270  0.77900  1.0000 -0.6513756663
O   O6        1.0  0.65950  0.74990  0.77120  1.0000 -0.6222896725
O   O7        1.0  0.46160  0.23460  0.79970  1.0000 -0.749813512
O   O8        1.0  0.38660  0.85030  0.92010  1.0000 -0.7010085136
O   O9        1.0  0.25140  0.04110  0.92130  1.0000 -0.6390622407
O   O10       1.0  0.34780  0.51010  0.93460  1.0000 -0.741260752
O   O11       1.0  0.15220  0.33200  0.94050  1.0000 -0.5984898359
O   O12       1.0  0.40230  0.48730  0.22100  1.0000 -0.6513756663
O   O13       1.0  0.34050  0.25010  0.22880  1.0000 -0.6222896725
O   O14       1.0  0.53840  0.76540  0.20030  1.0000 -0.749813512
