# DDEC6 charges by PACMAN v1.1 (https://github.com/mtap-research/PACMAN-charge/)
data_2017[Zn][pcu]3[ASR]21
_chemical_formula_sum              "Zn24 H48 C96 N48 O56"
_cell_length_a       20.0787
_cell_length_b       20.0787
_cell_length_c       20.0787
_cell_angle_alpha    90
_cell_angle_beta     90
_cell_angle_gamma    90

_symmetry_space_group_name_H-M    "P 1"
_symmetry_Int_Tables_number       1

loop_
  _symmetry_equiv_pos_as_xyz
  'x, y, z'

loop_
  _atom_site_type_symbol
  _atom_site_label
  _atom_site_symmetry_multiplicity
  _atom_site_fract_x
  _atom_site_fract_y
  _atom_site_fract_z
  _atom_site_occupancy
  _atom_site_charge
Zn  Zn1       1.0  0.25119  0.27053  0.14570  1.0000 0.7914058707
Zn  Zn2       1.0  0.14570  0.25119  0.27053  1.0000 0.7914058707
Zn  Zn3       1.0  0.27053  0.14570  0.25119  1.0000 0.7914058707
Zn  Zn4       1.0  0.22947  0.85430  0.75119  1.0000 0.7914058707
Zn  Zn5       1.0  0.64570  0.24881  0.72947  1.0000 0.7914058707
Zn  Zn6       1.0  0.72947  0.64570  0.24881  1.0000 0.7914058707
Zn  Zn7       1.0  0.35430  0.74881  0.77053  1.0000 0.7914058707
Zn  Zn8       1.0  0.85430  0.75119  0.22947  1.0000 0.7914058707
Zn  Zn9       1.0  0.77053  0.35430  0.74881  1.0000 0.7914058707
Zn  Zn10      1.0  0.24881  0.72947  0.64570  1.0000 0.7914058707
Zn  Zn11      1.0  0.75119  0.22947  0.85430  1.0000 0.7914058707
Zn  Zn12      1.0  0.74881  0.77053  0.35430  1.0000 0.7914058707
Zn  Zn13      1.0  0.74881  0.72947  0.85430  1.0000 0.7914058707
Zn  Zn14      1.0  0.85430  0.74881  0.72947  1.0000 0.7914058707
Zn  Zn15      1.0  0.72947  0.85430  0.74881  1.0000 0.7914058707
Zn  Zn16      1.0  0.77053  0.14570  0.24881  1.0000 0.7914058707
Zn  Zn17      1.0  0.35430  0.75119  0.27053  1.0000 0.7914058707
Zn  Zn18      1.0  0.27053  0.35430  0.75119  1.0000 0.7914058707
Zn  Zn19      1.0  0.64570  0.25119  0.22947  1.0000 0.7914058707
Zn  Zn20      1.0  0.14570  0.24881  0.77053  1.0000 0.7914058707
Zn  Zn21      1.0  0.22947  0.64570  0.25119  1.0000 0.7914058707
Zn  Zn22      1.0  0.75119  0.27053  0.35430  1.0000 0.7914058707
Zn  Zn23      1.0  0.24881  0.77053  0.14570  1.0000 0.7914058707
Zn  Zn24      1.0  0.25119  0.22947  0.64570  1.0000 0.7914058707
H   H1        1.0  0.41050  0.30360  0.12990  1.0000 0.1389268979
H   H2        1.0  0.12990  0.41050  0.30360  1.0000 0.1389268979
H   H3        1.0  0.30360  0.12990  0.41050  1.0000 0.1389268979
H   H4        1.0  0.19640  0.87010  0.91050  1.0000 0.1389268979
H   H5        1.0  0.62990  0.08950  0.69640  1.0000 0.1389268979
H   H6        1.0  0.69640  0.62990  0.08950  1.0000 0.1389268979
H   H7        1.0  0.37010  0.58950  0.80360  1.0000 0.1389268979
H   H8        1.0  0.87010  0.91050  0.19640  1.0000 0.1389268979
H   H9        1.0  0.80360  0.37010  0.58950  1.0000 0.1389268979
H   H10       1.0  0.08950  0.69640  0.62990  1.0000 0.1389268979
H   H11       1.0  0.91050  0.19640  0.87010  1.0000 0.1389268979
H   H12       1.0  0.58950  0.80360  0.37010  1.0000 0.1389268979
H   H13       1.0  0.58950  0.69640  0.87010  1.0000 0.1389268979
H   H14       1.0  0.87010  0.58950  0.69640  1.0000 0.1389268979
H   H15       1.0  0.69640  0.87010  0.58950  1.0000 0.1389268979
H   H16       1.0  0.80360  0.12990  0.08950  1.0000 0.1389268979
H   H17       1.0  0.37010  0.91050  0.30360  1.0000 0.1389268979
H   H18       1.0  0.30360  0.37010  0.91050  1.0000 0.1389268979
H   H19       1.0  0.62990  0.41050  0.19640  1.0000 0.1389268979
H   H20       1.0  0.12990  0.08950  0.80360  1.0000 0.1389268979
H   H21       1.0  0.19640  0.62990  0.41050  1.0000 0.1389268979
H   H22       1.0  0.91050  0.30360  0.37010  1.0000 0.1389268979
H   H23       1.0  0.08950  0.80360  0.12990  1.0000 0.1389268979
H   H24       1.0  0.41050  0.19640  0.62990  1.0000 0.1389268979
H   H25       1.0  0.43300  0.15960  0.26290  1.0000 0.1389268979
H   H26       1.0  0.26290  0.43300  0.15960  1.0000 0.1389268979
H   H27       1.0  0.15960  0.26290  0.43300  1.0000 0.1389268979
H   H28       1.0  0.34040  0.73710  0.93300  1.0000 0.1389268979
H   H29       1.0  0.76290  0.06700  0.84040  1.0000 0.1389268979
H   H30       1.0  0.84040  0.76290  0.06700  1.0000 0.1389268979
H   H31       1.0  0.23710  0.56700  0.65960  1.0000 0.1389268979
H   H32       1.0  0.73710  0.93300  0.34040  1.0000 0.1389268979
H   H33       1.0  0.65960  0.23710  0.56700  1.0000 0.1389268979
H   H34       1.0  0.06700  0.84040  0.76290  1.0000 0.1389268979
H   H35       1.0  0.93300  0.34040  0.73710  1.0000 0.1389268979
H   H36       1.0  0.56700  0.65960  0.23710  1.0000 0.1389268979
H   H37       1.0  0.56700  0.84040  0.73710  1.0000 0.1389268979
H   H38       1.0  0.73710  0.56700  0.84040  1.0000 0.1389268979
H   H39       1.0  0.84040  0.73710  0.56700  1.0000 0.1389268979
H   H40       1.0  0.65960  0.26290  0.06700  1.0000 0.1389268979
H   H41       1.0  0.23710  0.93300  0.15960  1.0000 0.1389268979
H   H42       1.0  0.15960  0.23710  0.93300  1.0000 0.1389268979
H   H43       1.0  0.76290  0.43300  0.34040  1.0000 0.1389268979
H   H44       1.0  0.26290  0.06700  0.65960  1.0000 0.1389268979
H   H45       1.0  0.34040  0.76290  0.43300  1.0000 0.1389268979
H   H46       1.0  0.93300  0.15960  0.23710  1.0000 0.1389268979
H   H47       1.0  0.06700  0.65960  0.26290  1.0000 0.1389268979
H   H48       1.0  0.43300  0.34040  0.76290  1.0000 0.1389268979
C   C1        1.0  0.40210  0.26890  0.15940  1.0000 0.0215318863
C   C2        1.0  0.15940  0.40210  0.26890  1.0000 0.0215318863
C   C3        1.0  0.26890  0.15940  0.40210  1.0000 0.0215318863
C   C4        1.0  0.23110  0.84060  0.90210  1.0000 0.0215318863
C   C5        1.0  0.65940  0.09790  0.73110  1.0000 0.0215318863
C   C6        1.0  0.73110  0.65940  0.09790  1.0000 0.0215318863
C   C7        1.0  0.34060  0.59790  0.76890  1.0000 0.0215318863
C   C8        1.0  0.84060  0.90210  0.23110  1.0000 0.0215318863
C   C9        1.0  0.76890  0.34060  0.59790  1.0000 0.0215318863
C   C10       1.0  0.09790  0.73110  0.65940  1.0000 0.0215318863
C   C11       1.0  0.90210  0.23110  0.84060  1.0000 0.0215318863
C   C12       1.0  0.59790  0.76890  0.34060  1.0000 0.0215318863
C   C13       1.0  0.59790  0.73110  0.84060  1.0000 0.0215318863
C   C14       1.0  0.84060  0.59790  0.73110  1.0000 0.0215318863
C   C15       1.0  0.73110  0.84060  0.59790  1.0000 0.0215318863
C   C16       1.0  0.76890  0.15940  0.09790  1.0000 0.0215318863
C   C17       1.0  0.34060  0.90210  0.26890  1.0000 0.0215318863
C   C18       1.0  0.26890  0.34060  0.90210  1.0000 0.0215318863
C   C19       1.0  0.65940  0.40210  0.23110  1.0000 0.0215318863
C   C20       1.0  0.15940  0.09790  0.76890  1.0000 0.0215318863
C   C21       1.0  0.23110  0.65940  0.40210  1.0000 0.0215318863
C   C22       1.0  0.90210  0.26890  0.34060  1.0000 0.0215318863
C   C23       1.0  0.09790  0.76890  0.15940  1.0000 0.0215318863
C   C24       1.0  0.40210  0.23110  0.65940  1.0000 0.0215318863
C   C25       1.0  0.45015  0.23670  0.19730  1.0000 -0.1198467084
C   C26       1.0  0.19730  0.45015  0.23670  1.0000 -0.1198467084
C   C27       1.0  0.23670  0.19730  0.45015  1.0000 -0.1198467084
C   C28       1.0  0.26330  0.80270  0.95015  1.0000 -0.1198467084
C   C29       1.0  0.69730  0.04985  0.76330  1.0000 -0.1198467084
C   C30       1.0  0.76330  0.69730  0.04985  1.0000 -0.1198467084
C   C31       1.0  0.30270  0.54985  0.73670  1.0000 -0.1198467084
C   C32       1.0  0.80270  0.95015  0.26330  1.0000 -0.1198467084
C   C33       1.0  0.73670  0.30270  0.54985  1.0000 -0.1198467084
C   C34       1.0  0.04985  0.76330  0.69730  1.0000 -0.1198467084
C   C35       1.0  0.95015  0.26330  0.80270  1.0000 -0.1198467084
C   C36       1.0  0.54985  0.73670  0.30270  1.0000 -0.1198467084
C   C37       1.0  0.54985  0.76330  0.80270  1.0000 -0.1198467084
C   C38       1.0  0.80270  0.54985  0.76330  1.0000 -0.1198467084
C   C39       1.0  0.76330  0.80270  0.54985  1.0000 -0.1198467084
C   C40       1.0  0.73670  0.19730  0.04985  1.0000 -0.1198467084
C   C41       1.0  0.30270  0.95015  0.23670  1.0000 -0.1198467084
C   C42       1.0  0.23670  0.30270  0.95015  1.0000 -0.1198467084
C   C43       1.0  0.69730  0.45015  0.26330  1.0000 -0.1198467084
C   C44       1.0  0.19730  0.04985  0.73670  1.0000 -0.1198467084
C   C45       1.0  0.26330  0.69730  0.45015  1.0000 -0.1198467084
C   C46       1.0  0.95015  0.23670  0.30270  1.0000 -0.1198467084
C   C47       1.0  0.04985  0.73670  0.19730  1.0000 -0.1198467084
C   C48       1.0  0.45015  0.26330  0.69730  1.0000 -0.1198467084
C   C49       1.0  0.52180  0.25030  0.20070  1.0000 0.5731520768
C   C50       1.0  0.20070  0.52180  0.25030  1.0000 0.5731520768
C   C51       1.0  0.25030  0.20070  0.52180  1.0000 0.5731520768
C   C52       1.0  0.24970  0.79930  0.02180  1.0000 0.5731520768
C   C53       1.0  0.70070  0.97820  0.74970  1.0000 0.5731520768
C   C54       1.0  0.74970  0.70070  0.97820  1.0000 0.5731520768
C   C55       1.0  0.29930  0.47820  0.75030  1.0000 0.5731520768
C   C56       1.0  0.79930  0.02180  0.24970  1.0000 0.5731520768
C   C57       1.0  0.75030  0.29930  0.47820  1.0000 0.5731520768
C   C58       1.0  0.97820  0.74970  0.70070  1.0000 0.5731520768
C   C59       1.0  0.02180  0.24970  0.79930  1.0000 0.5731520768
C   C60       1.0  0.47820  0.75030  0.29930  1.0000 0.5731520768
C   C61       1.0  0.47820  0.74970  0.79930  1.0000 0.5731520768
C   C62       1.0  0.79930  0.47820  0.74970  1.0000 0.5731520768
C   C63       1.0  0.74970  0.79930  0.47820  1.0000 0.5731520768
C   C64       1.0  0.75030  0.20070  0.97820  1.0000 0.5731520768
C   C65       1.0  0.29930  0.02180  0.25030  1.0000 0.5731520768
C   C66       1.0  0.25030  0.29930  0.02180  1.0000 0.5731520768
C   C67       1.0  0.70070  0.52180  0.24970  1.0000 0.5731520768
C   C68       1.0  0.20070  0.97820  0.75030  1.0000 0.5731520768
C   C69       1.0  0.24970  0.70070  0.52180  1.0000 0.5731520768
C   C70       1.0  0.02180  0.25030  0.29930  1.0000 0.5731520768
C   C71       1.0  0.97820  0.75030  0.20070  1.0000 0.5731520768
C   C72       1.0  0.52180  0.24970  0.70070  1.0000 0.5731520768
C   C73       1.0  0.41470  0.18970  0.23280  1.0000 0.0121893841
C   C74       1.0  0.23280  0.41470  0.18970  1.0000 0.0121893841
C   C75       1.0  0.18970  0.23280  0.41470  1.0000 0.0121893841
C   C76       1.0  0.31030  0.76720  0.91470  1.0000 0.0121893841
C   C77       1.0  0.73280  0.08530  0.81030  1.0000 0.0121893841
C   C78       1.0  0.81030  0.73280  0.08530  1.0000 0.0121893841
C   C79       1.0  0.26720  0.58530  0.68970  1.0000 0.0121893841
C   C80       1.0  0.76720  0.91470  0.31030  1.0000 0.0121893841
C   C81       1.0  0.68970  0.26720  0.58530  1.0000 0.0121893841
C   C82       1.0  0.08530  0.81030  0.73280  1.0000 0.0121893841
C   C83       1.0  0.91470  0.31030  0.76720  1.0000 0.0121893841
C   C84       1.0  0.58530  0.68970  0.26720  1.0000 0.0121893841
C   C85       1.0  0.58530  0.81030  0.76720  1.0000 0.0121893841
C   C86       1.0  0.76720  0.58530  0.81030  1.0000 0.0121893841
C   C87       1.0  0.81030  0.76720  0.58530  1.0000 0.0121893841
C   C88       1.0  0.68970  0.23280  0.08530  1.0000 0.0121893841
C   C89       1.0  0.26720  0.91470  0.18970  1.0000 0.0121893841
C   C90       1.0  0.18970  0.26720  0.91470  1.0000 0.0121893841
C   C91       1.0  0.73280  0.41470  0.31030  1.0000 0.0121893841
C   C92       1.0  0.23280  0.08530  0.68970  1.0000 0.0121893841
C   C93       1.0  0.31030  0.73280  0.41470  1.0000 0.0121893841
C   C94       1.0  0.91470  0.18970  0.26720  1.0000 0.0121893841
C   C95       1.0  0.08530  0.68970  0.23280  1.0000 0.0121893841
C   C96       1.0  0.41470  0.31030  0.73280  1.0000 0.0121893841
N   N1        1.0  0.34264  0.24318  0.17105  1.0000 -0.1680848949
N   N2        1.0  0.17105  0.34264  0.24318  1.0000 -0.1680848949
N   N3        1.0  0.24318  0.17105  0.34264  1.0000 -0.1680848949
N   N4        1.0  0.25682  0.82895  0.84264  1.0000 -0.1680848949
N   N5        1.0  0.67105  0.15736  0.75682  1.0000 -0.1680848949
N   N6        1.0  0.75682  0.67105  0.15736  1.0000 -0.1680848949
N   N7        1.0  0.32895  0.65736  0.74318  1.0000 -0.1680848949
N   N8        1.0  0.82895  0.84264  0.25682  1.0000 -0.1680848949
N   N9        1.0  0.74318  0.32895  0.65736  1.0000 -0.1680848949
N   N10       1.0  0.15736  0.75682  0.67105  1.0000 -0.1680848949
N   N11       1.0  0.84264  0.25682  0.82895  1.0000 -0.1680848949
N   N12       1.0  0.65736  0.74318  0.32895  1.0000 -0.1680848949
N   N13       1.0  0.65736  0.75682  0.82895  1.0000 -0.1680848949
N   N14       1.0  0.82895  0.65736  0.75682  1.0000 -0.1680848949
N   N15       1.0  0.75682  0.82895  0.65736  1.0000 -0.1680848949
N   N16       1.0  0.74318  0.17105  0.15736  1.0000 -0.1680848949
N   N17       1.0  0.32895  0.84264  0.24318  1.0000 -0.1680848949
N   N18       1.0  0.24318  0.32895  0.84264  1.0000 -0.1680848949
N   N19       1.0  0.67105  0.34264  0.25682  1.0000 -0.1680848949
N   N20       1.0  0.17105  0.15736  0.74318  1.0000 -0.1680848949
N   N21       1.0  0.25682  0.67105  0.34264  1.0000 -0.1680848949
N   N22       1.0  0.84264  0.24318  0.32895  1.0000 -0.1680848949
N   N23       1.0  0.15736  0.74318  0.17105  1.0000 -0.1680848949
N   N24       1.0  0.34264  0.25682  0.67105  1.0000 -0.1680848949
N   N25       1.0  0.35026  0.19397  0.21748  1.0000 -0.1680848949
N   N26       1.0  0.21748  0.35026  0.19397  1.0000 -0.1680848949
N   N27       1.0  0.19397  0.21748  0.35026  1.0000 -0.1680848949
N   N28       1.0  0.30603  0.78252  0.85026  1.0000 -0.1680848949
N   N29       1.0  0.71748  0.14974  0.80603  1.0000 -0.1680848949
N   N30       1.0  0.80603  0.71748  0.14974  1.0000 -0.1680848949
N   N31       1.0  0.28252  0.64974  0.69397  1.0000 -0.1680848949
N   N32       1.0  0.78252  0.85026  0.30603  1.0000 -0.1680848949
N   N33       1.0  0.69397  0.28252  0.64974  1.0000 -0.1680848949
N   N34       1.0  0.14974  0.80603  0.71748  1.0000 -0.1680848949
N   N35       1.0  0.85026  0.30603  0.78252  1.0000 -0.1680848949
N   N36       1.0  0.64974  0.69397  0.28252  1.0000 -0.1680848949
N   N37       1.0  0.64974  0.80603  0.78252  1.0000 -0.1680848949
N   N38       1.0  0.78252  0.64974  0.80603  1.0000 -0.1680848949
N   N39       1.0  0.80603  0.78252  0.64974  1.0000 -0.1680848949
N   N40       1.0  0.69397  0.21748  0.14974  1.0000 -0.1680848949
N   N41       1.0  0.28252  0.85026  0.19397  1.0000 -0.1680848949
N   N42       1.0  0.19397  0.28252  0.85026  1.0000 -0.1680848949
N   N43       1.0  0.71748  0.35026  0.30603  1.0000 -0.1680848949
N   N44       1.0  0.21748  0.14974  0.69397  1.0000 -0.1680848949
N   N45       1.0  0.30603  0.71748  0.35026  1.0000 -0.1680848949
N   N46       1.0  0.85026  0.19397  0.28252  1.0000 -0.1680848949
N   N47       1.0  0.14974  0.69397  0.21748  1.0000 -0.1680848949
N   N48       1.0  0.35026  0.30603  0.71748  1.0000 -0.1680848949
O   O1        1.0  0.20120  0.20120  0.20120  1.0000 -0.7846836903
O   O2        1.0  0.29880  0.79880  0.70120  1.0000 -0.785593138
O   O3        1.0  0.70120  0.29880  0.79880  1.0000 -0.7846836903
O   O4        1.0  0.79880  0.70120  0.29880  1.0000 -0.785593138
O   O5        1.0  0.79880  0.79880  0.79880  1.0000 -0.785593138
O   O6        1.0  0.70120  0.20120  0.29880  1.0000 -0.785593138
O   O7        1.0  0.29880  0.70120  0.20120  1.0000 -0.785593138
O   O8        1.0  0.20120  0.29880  0.70120  1.0000 -0.7846836903
O   O9        1.0  0.54899  0.29235  0.16480  1.0000 -0.4713786874
O   O10       1.0  0.16480  0.54899  0.29235  1.0000 -0.4713786874
O   O11       1.0  0.29235  0.16480  0.54899  1.0000 -0.4713786874
O   O12       1.0  0.20765  0.83520  0.04899  1.0000 -0.4713786874
O   O13       1.0  0.66480  0.95101  0.70765  1.0000 -0.4713786874
O   O14       1.0  0.70765  0.66480  0.95101  1.0000 -0.4713786874
O   O15       1.0  0.33520  0.45101  0.79235  1.0000 -0.4713786874
O   O16       1.0  0.83520  0.04899  0.20765  1.0000 -0.4713786874
O   O17       1.0  0.79235  0.33520  0.45101  1.0000 -0.4713786874
O   O18       1.0  0.95101  0.70765  0.66480  1.0000 -0.4713786874
O   O19       1.0  0.04899  0.20765  0.83520  1.0000 -0.4713786874
O   O20       1.0  0.45101  0.79235  0.33520  1.0000 -0.4713786874
O   O21       1.0  0.45101  0.70765  0.83520  1.0000 -0.4713786874
O   O22       1.0  0.83520  0.45101  0.70765  1.0000 -0.4713786874
O   O23       1.0  0.70765  0.83520  0.45101  1.0000 -0.4713786874
O   O24       1.0  0.79235  0.16480  0.95101  1.0000 -0.4713786874
O   O25       1.0  0.33520  0.04899  0.29235  1.0000 -0.4713786874
O   O26       1.0  0.29235  0.33520  0.04899  1.0000 -0.4713786874
O   O27       1.0  0.66480  0.54899  0.20765  1.0000 -0.4713786874
O   O28       1.0  0.16480  0.95101  0.79235  1.0000 -0.4713786874
O   O29       1.0  0.20765  0.66480  0.54899  1.0000 -0.4713786874
O   O30       1.0  0.04899  0.29235  0.33520  1.0000 -0.4713786874
O   O31       1.0  0.95101  0.79235  0.16480  1.0000 -0.4713786874
O   O32       1.0  0.54899  0.20765  0.66480  1.0000 -0.4713786874
O   O33       1.0  0.55496  0.21668  0.24317  1.0000 -0.4869871297
O   O34       1.0  0.24317  0.55496  0.21668  1.0000 -0.4869871297
O   O35       1.0  0.21668  0.24317  0.55496  1.0000 -0.4869871297
O   O36       1.0  0.28332  0.75683  0.05496  1.0000 -0.4869871297
O   O37       1.0  0.74317  0.94504  0.78332  1.0000 -0.4869871297
O   O38       1.0  0.78332  0.74317  0.94504  1.0000 -0.4869871297
O   O39       1.0  0.25683  0.44504  0.71668  1.0000 -0.4869871297
O   O40       1.0  0.75683  0.05496  0.28332  1.0000 -0.4869871297
O   O41       1.0  0.71668  0.25683  0.44504  1.0000 -0.4869871297
O   O42       1.0  0.94504  0.78332  0.74317  1.0000 -0.4869871297
O   O43       1.0  0.05496  0.28332  0.75683  1.0000 -0.4869871297
O   O44       1.0  0.44504  0.71668  0.25683  1.0000 -0.4869871297
O   O45       1.0  0.44504  0.78332  0.75683  1.0000 -0.4869871297
O   O46       1.0  0.75683  0.44504  0.78332  1.0000 -0.4869871297
O   O47       1.0  0.78332  0.75683  0.44504  1.0000 -0.4869871297
O   O48       1.0  0.71668  0.24317  0.94504  1.0000 -0.4869871297
O   O49       1.0  0.25683  0.05496  0.21668  1.0000 -0.4869871297
O   O50       1.0  0.21668  0.25683  0.05496  1.0000 -0.4869871297
O   O51       1.0  0.74317  0.55496  0.28332  1.0000 -0.4869871297
O   O52       1.0  0.24317  0.94504  0.71668  1.0000 -0.4869871297
O   O53       1.0  0.28332  0.74317  0.55496  1.0000 -0.4869871297
O   O54       1.0  0.05496  0.21668  0.25683  1.0000 -0.4869871297
O   O55       1.0  0.94504  0.71668  0.24317  1.0000 -0.4869871297
O   O56       1.0  0.55496  0.28332  0.74317  1.0000 -0.4869871297
