# DDEC6 charges by PACMAN v1.1 (https://github.com/mtap-research/PACMAN-charge/)
data_2017[Zn][ths]3[ASR]2
_chemical_formula_sum              "Zn12 H96 C144 I24 N48"
_cell_length_a       19.4757
_cell_length_b       19.4757
_cell_length_c       31.398
_cell_angle_alpha    78.8748
_cell_angle_beta     101.125
_cell_angle_gamma    134.889

_symmetry_space_group_name_H-M    "P 1"
_symmetry_Int_Tables_number       1

loop_
  _symmetry_equiv_pos_as_xyz
  'x, y, z'

loop_
  _atom_site_type_symbol
  _atom_site_label
  _atom_site_symmetry_multiplicity
  _atom_site_fract_x
  _atom_site_fract_y
  _atom_site_fract_z
  _atom_site_occupancy
  _atom_site_charge
Zn  Zn1       1.0  0.45555  0.29387  0.59814  1.0000 0.4703699889
Zn  Zn2       1.0  0.31288  0.96806  0.77709  1.0000 0.4496957975
Zn  Zn3       1.0  0.78139  0.02777  0.93610  1.0000 0.4703699889
Zn  Zn4       1.0  0.70613  0.54445  0.09814  1.0000 0.4703699889
Zn  Zn5       1.0  0.03194  0.68712  0.27709  1.0000 0.4496957975
Zn  Zn6       1.0  0.97223  0.21861  0.43610  1.0000 0.4703699889
Zn  Zn7       1.0  0.29387  0.45555  0.90186  1.0000 0.4703699889
Zn  Zn8       1.0  0.96806  0.31288  0.72291  1.0000 0.4496957975
Zn  Zn9       1.0  0.02777  0.78139  0.56390  1.0000 0.4703699889
Zn  Zn10      1.0  0.54445  0.70613  0.40186  1.0000 0.4703699889
Zn  Zn11      1.0  0.68712  0.03194  0.22291  1.0000 0.4496957975
Zn  Zn12      1.0  0.21861  0.97223  0.06390  1.0000 0.4703699889
H   H1        1.0  0.60847  0.22223  0.72391  1.0000 0.1327024026
H   H2        1.0  0.49270  0.18898  0.66786  1.0000 0.1087391833
H   H3        1.0  0.36173  0.34255  0.02774  1.0000 0.1385814926
H   H4        1.0  0.10834  0.60803  0.82329  1.0000 0.1385814926
H   H5        1.0  0.41031  0.13997  0.91190  1.0000 0.1327024026
H   H6        1.0  0.10102  0.14120  0.00595  1.0000 0.1385814926
H   H7        1.0  0.24666  0.77440  0.82090  1.0000 0.1087391833
H   H8        1.0  0.49840  0.45710  0.07265  1.0000 0.1087391833
H   H9        1.0  0.96320  0.66924  0.74461  1.0000 0.1385814926
H   H10       1.0  0.41661  0.06711  0.86380  1.0000 0.1087391833
H   H11       1.0  0.10413  0.83249  0.74567  1.0000 0.1024579488
H   H12       1.0  0.94701  0.36765  0.87814  1.0000 0.1385814926
H   H13       1.0  0.70642  0.16344  0.80156  1.0000 0.1222677844
H   H14       1.0  0.91768  0.24218  0.92495  1.0000 0.1087391833
H   H15       1.0  0.05305  0.10743  0.87611  1.0000 0.1385814926
H   H16       1.0  0.68485  0.04387  0.85055  1.0000 0.1024579488
H   H17       1.0  0.95266  0.09482  0.00288  1.0000 0.1087391833
H   H18       1.0  0.16741  0.05601  0.84075  1.0000 0.1327024026
H   H19       1.0  0.90868  0.06646  0.87620  1.0000 0.1087391833
H   H20       1.0  0.18504  0.99252  0.79272  1.0000 0.1024579488
H   H21       1.0  0.66384  0.46438  0.62619  1.0000 0.1024579488
H   H22       1.0  0.52760  0.33690  0.97169  1.0000 0.1385814926
H   H23       1.0  0.65846  0.44864  0.01805  1.0000 0.1087391833
H   H24       1.0  0.78470  0.50684  0.68040  1.0000 0.1327024026
H   H25       1.0  0.77777  0.39153  0.22391  1.0000 0.1327024026
H   H26       1.0  0.81102  0.50730  0.16786  1.0000 0.1087391833
H   H27       1.0  0.65745  0.63827  0.52774  1.0000 0.1385814926
H   H28       1.0  0.39198  0.89167  0.32329  1.0000 0.1385814926
H   H29       1.0  0.86003  0.58969  0.41190  1.0000 0.1327024026
H   H30       1.0  0.85880  0.89898  0.50595  1.0000 0.1385814926
H   H31       1.0  0.22560  0.75334  0.32090  1.0000 0.1087391833
H   H32       1.0  0.54290  0.50160  0.57265  1.0000 0.1087391833
H   H33       1.0  0.33076  0.03680  0.24461  1.0000 0.1385814926
H   H34       1.0  0.93289  0.58339  0.36380  1.0000 0.1087391833
H   H35       1.0  0.16751  0.89587  0.24567  1.0000 0.1024579488
H   H36       1.0  0.63235  0.05299  0.37814  1.0000 0.1385814926
H   H37       1.0  0.83656  0.29358  0.30156  1.0000 0.1222677844
H   H38       1.0  0.75782  0.08232  0.42495  1.0000 0.1087391833
H   H39       1.0  0.89257  0.94695  0.37611  1.0000 0.1385814926
H   H40       1.0  0.95613  0.31515  0.35055  1.0000 0.1024579488
H   H41       1.0  0.90518  0.04734  0.50288  1.0000 0.1087391833
H   H42       1.0  0.94399  0.83259  0.34075  1.0000 0.1327024026
H   H43       1.0  0.93354  0.09132  0.37620  1.0000 0.1087391833
H   H44       1.0  0.00748  0.81496  0.29272  1.0000 0.1024579488
H   H45       1.0  0.53562  0.33616  0.12619  1.0000 0.1024579488
H   H46       1.0  0.66310  0.47240  0.47169  1.0000 0.1385814926
H   H47       1.0  0.55136  0.34154  0.51805  1.0000 0.1087391833
H   H48       1.0  0.49316  0.21530  0.18040  1.0000 0.1327024026
H   H49       1.0  0.22223  0.60847  0.77609  1.0000 0.1327024026
H   H50       1.0  0.18898  0.49270  0.83214  1.0000 0.1087391833
H   H51       1.0  0.34255  0.36173  0.47226  1.0000 0.1385814926
H   H52       1.0  0.60803  0.10834  0.67671  1.0000 0.1385814926
H   H53       1.0  0.13997  0.41031  0.58810  1.0000 0.1327024026
H   H54       1.0  0.14120  0.10102  0.49405  1.0000 0.1385814926
H   H55       1.0  0.77440  0.24666  0.67910  1.0000 0.1087391833
H   H56       1.0  0.45710  0.49840  0.42735  1.0000 0.1087391833
H   H57       1.0  0.66924  0.96320  0.75539  1.0000 0.1385814926
H   H58       1.0  0.06711  0.41661  0.63620  1.0000 0.1087391833
H   H59       1.0  0.83249  0.10413  0.75433  1.0000 0.1024579488
H   H60       1.0  0.36765  0.94701  0.62186  1.0000 0.1385814926
H   H61       1.0  0.16344  0.70642  0.69844  1.0000 0.1222677844
H   H62       1.0  0.24218  0.91768  0.57505  1.0000 0.1087391833
H   H63       1.0  0.10743  0.05305  0.62389  1.0000 0.1385814926
H   H64       1.0  0.04387  0.68485  0.64945  1.0000 0.1024579488
H   H65       1.0  0.09482  0.95266  0.49712  1.0000 0.1087391833
H   H66       1.0  0.05601  0.16741  0.65925  1.0000 0.1327024026
H   H67       1.0  0.06646  0.90868  0.62380  1.0000 0.1087391833
H   H68       1.0  0.99252  0.18504  0.70728  1.0000 0.1024579488
H   H69       1.0  0.46438  0.66384  0.87381  1.0000 0.1024579488
H   H70       1.0  0.33690  0.52760  0.52831  1.0000 0.1385814926
H   H71       1.0  0.44864  0.65846  0.48195  1.0000 0.1087391833
H   H72       1.0  0.50684  0.78470  0.81960  1.0000 0.1327024026
H   H73       1.0  0.39153  0.77777  0.27609  1.0000 0.1327024026
H   H74       1.0  0.50730  0.81102  0.33214  1.0000 0.1087391833
H   H75       1.0  0.63827  0.65745  0.97226  1.0000 0.1385814926
H   H76       1.0  0.89167  0.39197  0.17671  1.0000 0.1385814926
H   H77       1.0  0.58969  0.86003  0.08810  1.0000 0.1327024026
H   H78       1.0  0.89898  0.85880  0.99405  1.0000 0.1385814926
H   H79       1.0  0.75334  0.22560  0.17910  1.0000 0.1087391833
H   H80       1.0  0.50160  0.54290  0.92735  1.0000 0.1087391833
H   H81       1.0  0.03680  0.33076  0.25539  1.0000 0.1385814926
H   H82       1.0  0.58339  0.93289  0.13620  1.0000 0.1087391833
H   H83       1.0  0.89587  0.16751  0.25433  1.0000 0.1024579488
H   H84       1.0  0.05299  0.63235  0.12186  1.0000 0.1385814926
H   H85       1.0  0.29358  0.83656  0.19844  1.0000 0.1222677844
H   H86       1.0  0.08232  0.75782  0.07505  1.0000 0.1087391833
H   H87       1.0  0.94695  0.89257  0.12389  1.0000 0.1385814926
H   H88       1.0  0.31515  0.95613  0.14945  1.0000 0.1024579488
H   H89       1.0  0.04734  0.90518  0.99712  1.0000 0.1087391833
H   H90       1.0  0.83259  0.94399  0.15925  1.0000 0.1327024026
H   H91       1.0  0.09132  0.93354  0.12380  1.0000 0.1087391833
H   H92       1.0  0.81496  0.00748  0.20728  1.0000 0.1024579488
H   H93       1.0  0.33616  0.53562  0.37381  1.0000 0.1024579488
H   H94       1.0  0.47240  0.66310  0.02831  1.0000 0.1385814926
H   H95       1.0  0.34154  0.55136  0.98195  1.0000 0.1087391833
H   H96       1.0  0.21530  0.49316  0.31960  1.0000 0.1327024026
C   C1        1.0  0.09201  0.12739  0.94167  1.0000 0.0608171484
C   C2        1.0  0.62146  0.27374  0.70470  1.0000 -0.1505957184
C   C3        1.0  0.70899  0.36921  0.70960  1.0000 0.0608171484
C   C4        1.0  0.01925  0.61975  0.78353  1.0000 0.0608171484
C   C5        1.0  0.34305  0.24715  0.96680  1.0000 0.3906085061
C   C6        1.0  0.82952  0.27868  0.83430  1.0000 0.0608171484
C   C7        1.0  0.84314  0.35566  0.80350  1.0000 0.3906085061
C   C8        1.0  0.42917  0.32343  0.99560  1.0000 0.0608171484
C   C9        1.0  0.55264  0.25456  0.67090  1.0000 0.0893326903
C   C10       1.0  0.78496  0.39664  0.74554  1.0000 0.3803053813
C   C11       1.0  0.92955  0.51405  0.78150  1.0000 0.3720020967
C   C12       1.0  0.18560  0.15540  0.94196  1.0000 0.3803053813
C   C13       1.0  0.42179  0.36241  0.02570  1.0000 -0.1505957184
C   C14       1.0  0.10578  0.65262  0.80680  1.0000 -0.1589695198
C   C15       1.0  0.36253  0.10927  0.88800  1.0000 -0.1318218841
C   C16       1.0  0.06172  0.12468  0.97920  1.0000 -0.1505957184
C   C17       1.0  0.18804  0.75236  0.80520  1.0000 0.082630667
C   C18       1.0  0.28809  0.10651  0.88169  1.0000 0.0608171484
C   C19       1.0  0.50370  0.43050  0.05258  1.0000 0.0722089824
C   C20       1.0  0.27859  0.14861  0.91251  1.0000 0.3906085061
C   C21       1.0  0.02055  0.68885  0.76070  1.0000 -0.1505957184
C   C22       1.0  0.36626  0.06614  0.85870  1.0000 0.0893326903
C   C23       1.0  0.10514  0.78626  0.76130  1.0000 0.0722089824
C   C24       1.0  0.89309  0.30191  0.87180  1.0000 -0.1388426585
C   C25       1.0  0.75094  0.18126  0.82650  1.0000 -0.1505957184
C   C26       1.0  0.87530  0.22670  0.89940  1.0000 0.0893326903
C   C27       1.0  0.03370  0.10530  0.90230  1.0000 -0.1388426585
C   C28       1.0  0.73873  0.11027  0.85580  1.0000 0.0893326903
C   C29       1.0  0.97358  0.09762  0.97710  1.0000 0.0893326903
C   C30       1.0  0.22020  0.06060  0.84580  1.0000 -0.1388426585
C   C31       1.0  0.94790  0.08050  0.90280  1.0000 0.082630667
C   C32       1.0  0.23050  0.02150  0.81740  1.0000 0.082630667
C   C33       1.0  0.65210  0.41470  0.64660  1.0000 0.0893326903
C   C34       1.0  0.51910  0.35870  0.99290  1.0000 -0.1388426585
C   C35       1.0  0.59710  0.42570  0.02060  1.0000 0.0722089824
C   C36       1.0  0.72460  0.44080  0.67900  1.0000 -0.1388426585
C   C37       1.0  0.87261  0.90799  0.44167  1.0000 0.0608171484
C   C38       1.0  0.72626  0.37854  0.20470  1.0000 -0.1505957184
C   C39       1.0  0.63079  0.29101  0.20960  1.0000 0.0608171484
C   C40       1.0  0.38025  0.98075  0.28353  1.0000 0.0608171484
C   C41       1.0  0.75285  0.65695  0.46680  1.0000 0.3906085061
C   C42       1.0  0.72132  0.17048  0.33430  1.0000 0.0608171484
C   C43       1.0  0.64434  0.15686  0.30350  1.0000 0.3906085061
C   C44       1.0  0.67657  0.57083  0.49560  1.0000 0.0608171484
C   C45       1.0  0.74544  0.44736  0.17090  1.0000 0.0893326903
C   C46       1.0  0.60336  0.21504  0.24554  1.0000 0.3803053813
C   C47       1.0  0.48595  0.07045  0.28150  1.0000 0.3720020967
C   C48       1.0  0.84460  0.81440  0.44196  1.0000 0.3803053813
C   C49       1.0  0.63759  0.57821  0.52570  1.0000 -0.1505957184
C   C50       1.0  0.34738  0.89422  0.30680  1.0000 -0.1589695198
C   C51       1.0  0.89073  0.63747  0.38800  1.0000 -0.1318218841
C   C52       1.0  0.87532  0.93828  0.47920  1.0000 -0.1505957184
C   C53       1.0  0.24764  0.81196  0.30520  1.0000 0.082630667
C   C54       1.0  0.89349  0.71191  0.38169  1.0000 0.0608171484
C   C55       1.0  0.56950  0.49630  0.55258  1.0000 0.0722089824
C   C56       1.0  0.85139  0.72141  0.41251  1.0000 0.3906085061
C   C57       1.0  0.31115  0.97945  0.26070  1.0000 -0.1505957184
C   C58       1.0  0.93386  0.63374  0.35870  1.0000 0.0893326903
C   C59       1.0  0.21374  0.89486  0.26130  1.0000 0.0722089824
C   C60       1.0  0.69809  0.10691  0.37180  1.0000 -0.1388426585
C   C61       1.0  0.81874  0.24906  0.32650  1.0000 -0.1505957184
C   C62       1.0  0.77330  0.12470  0.39940  1.0000 0.0893326903
C   C63       1.0  0.89470  0.96630  0.40230  1.0000 -0.1388426585
C   C64       1.0  0.88973  0.26127  0.35580  1.0000 0.0893326903
C   C65       1.0  0.90238  0.02642  0.47710  1.0000 0.0893326903
C   C66       1.0  0.93940  0.77980  0.34580  1.0000 -0.1388426585
C   C67       1.0  0.91950  0.05210  0.40280  1.0000 0.082630667
C   C68       1.0  0.97850  0.76950  0.31740  1.0000 0.082630667
C   C69       1.0  0.58530  0.34790  0.14660  1.0000 0.0893326903
C   C70       1.0  0.64130  0.48090  0.49290  1.0000 -0.1388426585
C   C71       1.0  0.57430  0.40290  0.52060  1.0000 0.0722089824
C   C72       1.0  0.55920  0.27540  0.17900  1.0000 -0.1388426585
C   C73       1.0  0.12739  0.09201  0.55833  1.0000 0.0608171484
C   C74       1.0  0.27374  0.62146  0.79530  1.0000 -0.1505957184
C   C75       1.0  0.36921  0.70899  0.79040  1.0000 0.0608171484
C   C76       1.0  0.61975  0.01925  0.71647  1.0000 0.0608171484
C   C77       1.0  0.24715  0.34305  0.53320  1.0000 0.3906085061
C   C78       1.0  0.27868  0.82952  0.66570  1.0000 0.0608171484
C   C79       1.0  0.35566  0.84314  0.69650  1.0000 0.3906085061
C   C80       1.0  0.32343  0.42917  0.50440  1.0000 0.0608171484
C   C81       1.0  0.25456  0.55264  0.82910  1.0000 0.0893326903
C   C82       1.0  0.39664  0.78496  0.75446  1.0000 0.3803053813
C   C83       1.0  0.51405  0.92955  0.71850  1.0000 0.3720020967
C   C84       1.0  0.15540  0.18560  0.55804  1.0000 0.3803053813
C   C85       1.0  0.36241  0.42179  0.47430  1.0000 -0.1505957184
C   C86       1.0  0.65262  0.10578  0.69320  1.0000 -0.1589695198
C   C87       1.0  0.10927  0.36253  0.61200  1.0000 -0.1318218841
C   C88       1.0  0.12468  0.06172  0.52080  1.0000 -0.1505957184
C   C89       1.0  0.75236  0.18804  0.69480  1.0000 0.082630667
C   C90       1.0  0.10651  0.28809  0.61831  1.0000 0.0608171484
C   C91       1.0  0.43050  0.50370  0.44742  1.0000 0.0722089824
C   C92       1.0  0.14861  0.27859  0.58749  1.0000 0.3906085061
C   C93       1.0  0.68885  0.02055  0.73930  1.0000 -0.1505957184
C   C94       1.0  0.06614  0.36626  0.64130  1.0000 0.0893326903
C   C95       1.0  0.78626  0.10514  0.73870  1.0000 0.0722089824
C   C96       1.0  0.30191  0.89309  0.62820  1.0000 -0.1388426585
C   C97       1.0  0.18126  0.75094  0.67350  1.0000 -0.1505957184
C   C98       1.0  0.22670  0.87530  0.60060  1.0000 0.0893326903
C   C99       1.0  0.10530  0.03370  0.59770  1.0000 -0.1388426585
C   C100      1.0  0.11027  0.73873  0.64420  1.0000 0.0893326903
C   C101      1.0  0.09762  0.97358  0.52290  1.0000 0.0893326903
C   C102      1.0  0.06060  0.22020  0.65420  1.0000 -0.1388426585
C   C103      1.0  0.08050  0.94790  0.59720  1.0000 0.082630667
C   C104      1.0  0.02150  0.23050  0.68260  1.0000 0.082630667
C   C105      1.0  0.41470  0.65210  0.85340  1.0000 0.0893326903
C   C106      1.0  0.35870  0.51910  0.50710  1.0000 -0.1388426585
C   C107      1.0  0.42570  0.59710  0.47940  1.0000 0.0722089824
C   C108      1.0  0.44080  0.72460  0.82100  1.0000 -0.1388426585
C   C109      1.0  0.90799  0.87261  0.05833  1.0000 0.0608171484
C   C110      1.0  0.37854  0.72626  0.29530  1.0000 -0.1505957184
C   C111      1.0  0.29101  0.63079  0.29040  1.0000 0.0608171484
C   C112      1.0  0.98075  0.38025  0.21647  1.0000 0.0608171484
C   C113      1.0  0.65695  0.75285  0.03320  1.0000 0.3906085061
C   C114      1.0  0.17048  0.72132  0.16570  1.0000 0.0608171484
C   C115      1.0  0.15686  0.64434  0.19650  1.0000 0.3906085061
C   C116      1.0  0.57083  0.67657  0.00440  1.0000 0.0608171484
C   C117      1.0  0.44736  0.74544  0.32910  1.0000 0.0893326903
C   C118      1.0  0.21504  0.60336  0.25446  1.0000 0.3803053813
C   C119      1.0  0.07045  0.48595  0.21850  1.0000 0.3720020967
C   C120      1.0  0.81440  0.84460  0.05804  1.0000 0.3803053813
C   C121      1.0  0.57821  0.63759  0.97430  1.0000 -0.1505957184
C   C122      1.0  0.89422  0.34738  0.19320  1.0000 -0.1589695198
C   C123      1.0  0.63747  0.89073  0.11200  1.0000 -0.1318218841
C   C124      1.0  0.93828  0.87532  0.02080  1.0000 -0.1505957184
C   C125      1.0  0.81196  0.24764  0.19480  1.0000 0.082630667
C   C126      1.0  0.71191  0.89349  0.11831  1.0000 0.0608171484
C   C127      1.0  0.49630  0.56950  0.94742  1.0000 0.0722089824
C   C128      1.0  0.72141  0.85139  0.08749  1.0000 0.3906085061
C   C129      1.0  0.97945  0.31115  0.23930  1.0000 -0.1505957184
C   C130      1.0  0.63374  0.93386  0.14130  1.0000 0.0893326903
C   C131      1.0  0.89486  0.21374  0.23870  1.0000 0.0722089824
C   C132      1.0  0.10691  0.69809  0.12820  1.0000 -0.1388426585
C   C133      1.0  0.24906  0.81874  0.17350  1.0000 -0.1505957184
C   C134      1.0  0.12470  0.77330  0.10060  1.0000 0.0893326903
C   C135      1.0  0.96630  0.89470  0.09770  1.0000 -0.1388426585
C   C136      1.0  0.26127  0.88973  0.14420  1.0000 0.0893326903
C   C137      1.0  0.02642  0.90238  0.02290  1.0000 0.0893326903
C   C138      1.0  0.77980  0.93940  0.15420  1.0000 -0.1388426585
C   C139      1.0  0.05210  0.91950  0.09720  1.0000 0.082630667
C   C140      1.0  0.76950  0.97850  0.18260  1.0000 0.082630667
C   C141      1.0  0.34790  0.58530  0.35340  1.0000 0.0893326903
C   C142      1.0  0.48090  0.64130  0.00710  1.0000 -0.1388426585
C   C143      1.0  0.40290  0.57430  0.97940  1.0000 0.0722089824
C   C144      1.0  0.27540  0.55920  0.32100  1.0000 -0.1388426585
I   I1        1.0  0.37320  0.14064  0.56328  1.0000 -0.4485936983
I   I2        1.0  0.37361  0.32069  0.63767  1.0000 -0.4485936983
I   I3        1.0  0.46592  0.99990  0.80025  1.0000 -0.4485936983
I   I4        1.0  0.28487  0.02853  0.70159  1.0000 -0.4485936983
I   I5        1.0  0.75931  0.04423  0.01037  1.0000 -0.4485936983
I   I6        1.0  0.66640  0.86934  0.89933  1.0000 -0.4670034183
I   I7        1.0  0.85936  0.62680  0.06328  1.0000 -0.4485936983
I   I8        1.0  0.67931  0.62639  0.13767  1.0000 -0.4485936983
I   I9        1.0  0.00010  0.53408  0.30025  1.0000 -0.4485936983
I   I10       1.0  0.97147  0.71513  0.20159  1.0000 -0.4485936983
I   I11       1.0  0.95577  0.24069  0.51037  1.0000 -0.4485936983
I   I12       1.0  0.13066  0.33360  0.39933  1.0000 -0.4670034183
I   I13       1.0  0.14064  0.37320  0.93672  1.0000 -0.4485936983
I   I14       1.0  0.32069  0.37361  0.86233  1.0000 -0.4485936983
I   I15       1.0  0.99990  0.46592  0.69975  1.0000 -0.4485936983
I   I16       1.0  0.02853  0.28487  0.79841  1.0000 -0.4485936983
I   I17       1.0  0.04423  0.75931  0.48963  1.0000 -0.4485936983
I   I18       1.0  0.86934  0.66640  0.60067  1.0000 -0.4670034183
I   I19       1.0  0.62680  0.85936  0.43672  1.0000 -0.4485936983
I   I20       1.0  0.62639  0.67931  0.36233  1.0000 -0.4485936983
I   I21       1.0  0.53408  0.00010  0.19975  1.0000 -0.4485936983
I   I22       1.0  0.71513  0.97147  0.29841  1.0000 -0.4485936983
I   I23       1.0  0.24069  0.95577  0.98963  1.0000 -0.4485936983
I   I24       1.0  0.33360  0.13066  0.10067  1.0000 -0.4670034183
N   N1        1.0  0.77310  0.32550  0.77122  1.0000 -0.3862811012
N   N2        1.0  0.86179  0.49261  0.74996  1.0000 -0.3990980131
N   N3        1.0  0.25838  0.21842  0.97113  1.0000 -0.3990980131
N   N4        1.0  0.18888  0.81852  0.78295  1.0000 -0.180810949
N   N5        1.0  0.92426  0.44954  0.81025  1.0000 -0.3990980131
N   N6        1.0  0.35817  0.21483  0.93865  1.0000 -0.3990980131
N   N7        1.0  0.56710  0.32390  0.64284  1.0000 -0.180810949
N   N8        1.0  0.58960  0.46000  0.05125  1.0000 -0.1913700311
N   N9        1.0  0.19224  0.11856  0.91231  1.0000 -0.3990980131
N   N10       1.0  0.91682  0.07518  0.93983  1.0000 -0.1913700311
N   N11       1.0  0.30235  0.02345  0.82369  1.0000 -0.1977268813
N   N12       1.0  0.80019  0.13221  0.89129  1.0000 -0.1913700311
N   N13       1.0  0.67450  0.22690  0.27122  1.0000 -0.3862811012
N   N14       1.0  0.50739  0.13821  0.24996  1.0000 -0.3990980131
N   N15       1.0  0.78158  0.74162  0.47113  1.0000 -0.3990980131
N   N16       1.0  0.18148  0.81112  0.28295  1.0000 -0.180810949
N   N17       1.0  0.55046  0.07574  0.31025  1.0000 -0.3990980131
N   N18       1.0  0.78517  0.64183  0.43865  1.0000 -0.3990980131
N   N19       1.0  0.67610  0.43290  0.14284  1.0000 -0.180810949
N   N20       1.0  0.54000  0.41040  0.55125  1.0000 -0.1913700311
N   N21       1.0  0.88144  0.80776  0.41231  1.0000 -0.3990980131
N   N22       1.0  0.92482  0.08318  0.43983  1.0000 -0.1913700311
N   N23       1.0  0.97655  0.69765  0.32369  1.0000 -0.1977268813
N   N24       1.0  0.86779  0.19981  0.39129  1.0000 -0.1913700311
N   N25       1.0  0.32550  0.77310  0.72878  1.0000 -0.3862811012
N   N26       1.0  0.49261  0.86179  0.75004  1.0000 -0.3990980131
N   N27       1.0  0.21842  0.25838  0.52887  1.0000 -0.3990980131
N   N28       1.0  0.81852  0.18888  0.71705  1.0000 -0.180810949
N   N29       1.0  0.44954  0.92426  0.68975  1.0000 -0.3990980131
N   N30       1.0  0.21483  0.35817  0.56135  1.0000 -0.3990980131
N   N31       1.0  0.32390  0.56710  0.85716  1.0000 -0.180810949
N   N32       1.0  0.46000  0.58960  0.44875  1.0000 -0.1913700311
N   N33       1.0  0.11856  0.19224  0.58769  1.0000 -0.3990980131
N   N34       1.0  0.07518  0.91682  0.56017  1.0000 -0.1913700311
N   N35       1.0  0.02345  0.30235  0.67631  1.0000 -0.1977268813
N   N36       1.0  0.13221  0.80019  0.60871  1.0000 -0.1913700311
N   N37       1.0  0.22690  0.67450  0.22878  1.0000 -0.3862811012
N   N38       1.0  0.13821  0.50739  0.25004  1.0000 -0.3990980131
N   N39       1.0  0.74162  0.78158  0.02887  1.0000 -0.3990980131
N   N40       1.0  0.81112  0.18148  0.21705  1.0000 -0.180810949
N   N41       1.0  0.07574  0.55046  0.18975  1.0000 -0.3990980131
N   N42       1.0  0.64183  0.78517  0.06135  1.0000 -0.3990980131
N   N43       1.0  0.43290  0.67610  0.35716  1.0000 -0.180810949
N   N44       1.0  0.41040  0.54000  0.94875  1.0000 -0.1913700311
N   N45       1.0  0.80776  0.88144  0.08769  1.0000 -0.3990980131
N   N46       1.0  0.08318  0.92482  0.06017  1.0000 -0.1913700311
N   N47       1.0  0.69765  0.97655  0.17631  1.0000 -0.1977268813
N   N48       1.0  0.19981  0.86779  0.10871  1.0000 -0.1913700311
