# DDEC6 charges by PACMAN v1.1 (https://github.com/mtap-research/PACMAN-charge/)
data_2017[Cd][nan]3[ASR]10
_chemical_formula_sum              "Cd6 H104 C156 N16 O26"
_cell_length_a       19.2481
_cell_length_b       19.2481
_cell_length_c       14.917
_cell_angle_alpha    67.9737
_cell_angle_beta     112.026
_cell_angle_gamma    66.9376

_symmetry_space_group_name_H-M    "P 1"
_symmetry_Int_Tables_number       1

loop_
  _symmetry_equiv_pos_as_xyz
  'x, y, z'

loop_
  _atom_site_type_symbol
  _atom_site_label
  _atom_site_symmetry_multiplicity
  _atom_site_fract_x
  _atom_site_fract_y
  _atom_site_fract_z
  _atom_site_occupancy
  _atom_site_charge
Cd  Cd1       1.0  0.80050  0.26332  0.49344  1.0000 0.9465660616
Cd  Cd2       1.0  0.73668  0.19950  0.99344  1.0000 0.9465660616
Cd  Cd3       1.0  0.36205  0.82139  0.14787  1.0000 0.841217415
Cd  Cd4       1.0  0.17861  0.63795  0.64787  1.0000 0.841217415
Cd  Cd5       1.0  0.80460  0.26994  0.77297  1.0000 0.8801489636
Cd  Cd6       1.0  0.73006  0.19540  0.27297  1.0000 0.8801489636
H   H1        1.0  0.15520  0.97700  0.82340  1.0000 0.2912277221
H   H2        1.0  0.02300  0.84480  0.32340  1.0000 0.2912277221
H   H3        1.0  0.57630  0.47190  0.33060  1.0000 0.3080033824
H   H4        1.0  0.52810  0.42370  0.83060  1.0000 0.3080033824
H   H5        1.0  0.52660  0.62740  0.46580  1.0000 0.2912277221
H   H6        1.0  0.37260  0.47340  0.96580  1.0000 0.2912277221
H   H7        1.0  0.02000  0.04940  0.97630  1.0000 0.2973394856
H   H8        1.0  0.95060  0.98000  0.47630  1.0000 0.2973394856
H   H9        1.0  0.91540  0.26900  0.66770  1.0000 0.3526687934
H   H10       1.0  0.73100  0.08460  0.16770  1.0000 0.3526687934
H   H11       1.0  0.87680  0.23440  0.71540  1.0000 0.2580990657
H   H12       1.0  0.76560  0.12320  0.21540  1.0000 0.2580990657
H   H13       1.0  0.58880  0.19840  0.34340  1.0000 0.1185228137
H   H14       1.0  0.80160  0.41120  0.84340  1.0000 0.1185228137
H   H15       1.0  0.48610  0.16290  0.33230  1.0000 0.1185228137
H   H16       1.0  0.83710  0.51390  0.83230  1.0000 0.1185228137
H   H17       1.0  0.46580  0.22540  0.55070  1.0000 0.1185228137
H   H18       1.0  0.77460  0.53420  0.05070  1.0000 0.1185228137
H   H19       1.0  0.56000  0.27300  0.55040  1.0000 0.1185228137
H   H20       1.0  0.72700  0.44000  0.05040  1.0000 0.1185228137
H   H21       1.0  0.33970  0.20410  0.26350  1.0000 0.1185228137
H   H22       1.0  0.79590  0.66030  0.76350  1.0000 0.1185228137
H   H23       1.0  0.25170  0.08690  0.42930  1.0000 0.1110585586
H   H24       1.0  0.91310  0.74830  0.92930  1.0000 0.1110585586
H   H25       1.0  0.44910  0.10650  0.61170  1.0000 0.1110585586
H   H26       1.0  0.89350  0.55090  0.11170  1.0000 0.1110585586
H   H27       1.0  0.21120  0.10440  0.55120  1.0000 0.1185228137
H   H28       1.0  0.89560  0.78880  0.05120  1.0000 0.1185228137
H   H29       1.0  0.21410  0.03590  0.71590  1.0000 0.1110585586
H   H30       1.0  0.96410  0.78590  0.21590  1.0000 0.1110585586
H   H31       1.0  0.49400  0.90420  0.94260  1.0000 0.1185228137
H   H32       1.0  0.09580  0.50600  0.44260  1.0000 0.1185228137
H   H33       1.0  0.49080  0.97520  0.77680  1.0000 0.1110585586
H   H34       1.0  0.02480  0.50920  0.27680  1.0000 0.1110585586
H   H35       1.0  0.24160  0.04160  0.29690  1.0000 0.1110585586
H   H36       1.0  0.95840  0.75840  0.79690  1.0000 0.1110585586
H   H37       1.0  0.10750  0.08450  0.13290  1.0000 0.1110585586
H   H38       1.0  0.91550  0.89250  0.63290  1.0000 0.1110585586
H   H39       1.0  0.03310  0.34250  0.92910  1.0000 0.1290098692
H   H40       1.0  0.65750  0.96690  0.42910  1.0000 0.1290098692
H   H41       1.0  0.16630  0.30150  0.09290  1.0000 0.1185228137
H   H42       1.0  0.69850  0.83370  0.59290  1.0000 0.1185228137
H   H43       1.0  0.69150  0.09310  0.91030  1.0000 0.1110585586
H   H44       1.0  0.90690  0.30850  0.41030  1.0000 0.1110585586
H   H45       1.0  0.65592  0.98928  0.92780  1.0000 0.1185228137
H   H46       1.0  0.01072  0.34408  0.42780  1.0000 0.1185228137
H   H47       1.0  0.74970  0.93870  0.74340  1.0000 0.1185228137
H   H48       1.0  0.06130  0.25030  0.24340  1.0000 0.1110585586
H   H49       1.0  0.79390  0.03470  0.73870  1.0000 0.1185228137
H   H50       1.0  0.96530  0.20610  0.23870  1.0000 0.1185228137
H   H51       1.0  0.71780  0.82540  0.01650  1.0000 0.1185228137
H   H52       1.0  0.17460  0.28220  0.51650  1.0000 0.1185228137
H   H53       1.0  0.60820  0.72960  0.85920  1.0000 0.1110585586
H   H54       1.0  0.27040  0.39180  0.35920  1.0000 0.1110585586
H   H55       1.0  0.61720  0.93420  0.67050  1.0000 0.1185228137
H   H56       1.0  0.06580  0.38280  0.17050  1.0000 0.1185228137
H   H57       1.0  0.62030  0.69370  0.73380  1.0000 0.1110585586
H   H58       1.0  0.30630  0.37970  0.23380  1.0000 0.1110585586
H   H59       1.0  0.56050  0.69350  0.56760  1.0000 0.1110585586
H   H60       1.0  0.30650  0.43950  0.06760  1.0000 0.1110585586
H   H61       1.0  0.42750  0.97150  0.34040  1.0000 0.1185228137
H   H62       1.0  0.02850  0.57250  0.84040  1.0000 0.1185228137
H   H63       1.0  0.49060  0.97280  0.50610  1.0000 0.1110585586
H   H64       1.0  0.02720  0.50940  0.00610  1.0000 0.1110585586
H   H65       1.0  0.58640  0.68660  0.99520  1.0000 0.1110585586
H   H66       1.0  0.31340  0.41360  0.49520  1.0000 0.1110585586
H   H67       1.0  0.63350  0.55970  0.16760  1.0000 0.1110585586
H   H68       1.0  0.44030  0.36650  0.66760  1.0000 0.1110585586
H   H69       1.0  0.85310  0.54390  0.36960  1.0000 0.1185228137
H   H70       1.0  0.45610  0.14690  0.86960  1.0000 0.1185228137
H   H71       1.0  0.80970  0.66770  0.19550  1.0000 0.1185228137
H   H72       1.0  0.33230  0.19030  0.69550  1.0000 0.1185228137
H   H73       1.0  0.03500  0.14160  0.65490  1.0000 0.1110585586
H   H74       1.0  0.85840  0.96500  0.15490  1.0000 0.1110585586
H   H75       1.0  0.91140  0.02500  0.68000  1.0000 0.1362844869
H   H76       1.0  0.97500  0.08860  0.18000  1.0000 0.1362844869
H   H77       1.0  0.99730  0.86070  0.85460  1.0000 0.1110585586
H   H78       1.0  0.13930  0.00270  0.35460  1.0000 0.1110585586
H   H79       1.0  0.08680  0.69700  0.00620  1.0000 0.1185228137
H   H80       1.0  0.30300  0.91320  0.50620  1.0000 0.1185228137
H   H81       1.0  0.25000  0.60320  0.14230  1.0000 0.1185228137
H   H82       1.0  0.39680  0.75000  0.64230  1.0000 0.1185228137
H   H83       1.0  0.24010  0.82270  0.95220  1.0000 0.1185228137
H   H84       1.0  0.17730  0.75990  0.45220  1.0000 0.1185228137
H   H85       1.0  0.42330  0.50410  0.21790  1.0000 0.1290098692
H   H86       1.0  0.49590  0.57670  0.71790  1.0000 0.1290098692
H   H87       1.0  0.55350  0.61170  0.29060  1.0000 0.1185228137
H   H88       1.0  0.38830  0.44650  0.79060  1.0000 0.1185228137
H   H89       1.0  0.69490  0.50470  0.59520  1.0000 0.1290098692
H   H90       1.0  0.49530  0.30510  0.09520  1.0000 0.1290098692
H   H91       1.0  0.56690  0.38850  0.62350  1.0000 0.1362844869
H   H92       1.0  0.61150  0.43310  0.12350  1.0000 0.1362844869
H   H93       1.0  0.39860  0.48020  0.50990  1.0000 0.1110585586
H   H94       1.0  0.51980  0.60140  0.00990  1.0000 0.1110585586
H   H95       1.0  0.23170  0.57510  0.38950  1.0000 0.1185228137
H   H96       1.0  0.42490  0.76830  0.88950  1.0000 0.1185228137
H   H97       1.0  0.14060  0.73220  0.23340  1.0000 0.1185228137
H   H98       1.0  0.26780  0.85940  0.73340  1.0000 0.1185228137
H   H99       1.0  0.37280  0.71540  0.34730  1.0000 0.1185228137
H   H100      1.0  0.28460  0.62720  0.84730  1.0000 0.1185228137
H   H101      1.0  0.05240  0.90820  0.11920  1.0000 0.1290098692
H   H102      1.0  0.09180  0.94760  0.61920  1.0000 0.1290098692
H   H103      1.0  0.15760  0.01760  0.99320  1.0000 0.1185228137
H   H104      1.0  0.98240  0.84240  0.49320  1.0000 0.1185228137
C   C1        1.0  0.65460  0.25820  0.45740  1.0000 0.5516223922
C   C2        1.0  0.74180  0.34540  0.95740  1.0000 0.5516223922
C   C3        1.0  0.58480  0.23960  0.44860  1.0000 -0.0288674066
C   C4        1.0  0.76040  0.41520  0.94860  1.0000 -0.0288674066
C   C5        1.0  0.56310  0.20550  0.38400  1.0000 -0.1011734569
C   C6        1.0  0.79450  0.43690  0.88400  1.0000 -0.1011734569
C   C7        1.0  0.50310  0.18210  0.37970  1.0000 -0.1413720236
C   C8        1.0  0.81790  0.49690  0.87970  1.0000 -0.1413720236
C   C9        1.0  0.46840  0.18680  0.44370  1.0000 0.0604553833
C   C10       1.0  0.81320  0.53160  0.94370  1.0000 0.0604553833
C   C11       1.0  0.48980  0.22080  0.50770  1.0000 -0.1495506817
C   C12       1.0  0.77920  0.51020  0.00770  1.0000 -0.1495506817
C   C13       1.0  0.54740  0.24860  0.50870  1.0000 -0.1011734569
C   C14       1.0  0.75140  0.45260  0.00870  1.0000 -0.1011734569
C   C15       1.0  0.40520  0.15960  0.43860  1.0000 0.079589528
C   C16       1.0  0.84040  0.59480  0.93860  1.0000 0.079589528
C   C17       1.0  0.34230  0.17570  0.33190  1.0000 -0.2015368388
C   C18       1.0  0.82430  0.65770  0.83190  1.0000 -0.2015368388
C   C19       1.0  0.28450  0.14950  0.32850  1.0000 0.079589528
C   C20       1.0  0.85050  0.71550  0.82850  1.0000 0.079589528
C   C21       1.0  0.28970  0.10570  0.43160  1.0000 -0.2015368388
C   C22       1.0  0.89430  0.71030  0.93160  1.0000 -0.2015368388
C   C23       1.0  0.35100  0.08900  0.53910  1.0000 0.079589528
C   C24       1.0  0.91100  0.64900  0.03910  1.0000 0.079589528
C   C25       1.0  0.40820  0.11660  0.54130  1.0000 -0.1916164617
C   C26       1.0  0.88340  0.59180  0.04130  1.0000 -0.1916164617
C   C27       1.0  0.35120  0.04660  0.64520  1.0000 0.0693980693
C   C28       1.0  0.95340  0.64880  0.14520  1.0000 0.0693980693
C   C29       1.0  0.26830  0.06410  0.62960  1.0000 -0.1495506817
C   C30       1.0  0.93590  0.73170  0.12960  1.0000 -0.1495506817
C   C31       1.0  0.27020  0.02260  0.72830  1.0000 -0.1192775606
C   C32       1.0  0.97740  0.72980  0.22830  1.0000 -0.1192775606
C   C33       1.0  0.35520  0.96000  0.84840  1.0000 -0.0288674066
C   C34       1.0  0.04000  0.64480  0.34840  1.0000 -0.0288674066
C   C35       1.0  0.43710  0.94410  0.86400  1.0000 -0.1011734569
C   C36       1.0  0.05590  0.56290  0.36400  1.0000 -0.1011734569
C   C37       1.0  0.43520  0.98660  0.76430  1.0000 -0.1495506817
C   C38       1.0  0.01340  0.56480  0.26430  1.0000 -0.1495506817
C   C39       1.0  0.35760  0.91200  0.95590  1.0000 0.5428558156
C   C40       1.0  0.08800  0.64240  0.45590  1.0000 0.5428558156
C   C41       1.0  0.21180  0.17060  0.21620  1.0000 0.0693980693
C   C42       1.0  0.82940  0.78820  0.71620  1.0000 0.0693980693
C   C43       1.0  0.19770  0.10370  0.22450  1.0000 -0.1495506817
C   C44       1.0  0.89630  0.80230  0.72450  1.0000 -0.1495506817
C   C45       1.0  0.11830  0.12870  0.12480  1.0000 -0.1192775606
C   C46       1.0  0.87130  0.88170  0.62480  1.0000 -0.1192775606
C   C47       1.0  0.05650  0.21830  0.01540  1.0000 -0.019558391
C   C48       1.0  0.78170  0.94350  0.51540  1.0000 -0.019558391
C   C49       1.0  0.07420  0.28220  0.00390  1.0000 -0.1011734569
C   C50       1.0  0.71780  0.92580  0.50390  1.0000 -0.1011734569
C   C51       1.0  0.15330  0.25850  0.10310  1.0000 -0.1495506817
C   C52       1.0  0.74150  0.84670  0.60310  1.0000 -0.1495506817
C   C53       1.0  0.96640  0.24740  0.91260  1.0000 0.5516223922
C   C54       1.0  0.75260  0.03360  0.41260  1.0000 0.5516223922
C   C55       1.0  0.77190  0.14030  0.81500  1.0000 0.5516223922
C   C56       1.0  0.85970  0.22810  0.31500  1.0000 0.5516223922
C   C57       1.0  0.74900  0.07200  0.82640  1.0000 -0.0288674066
C   C58       1.0  0.92800  0.25100  0.32640  1.0000 -0.0288674066
C   C59       1.0  0.70540  0.06000  0.87950  1.0000 -0.1192775606
C   C60       1.0  0.94000  0.29460  0.37950  1.0000 -0.1192775606
C   C61       1.0  0.68210  0.99930  0.88770  1.0000 -0.1495506817
C   C62       1.0  0.00070  0.31790  0.38770  1.0000 -0.1495506817
C   C63       1.0  0.69750  0.95350  0.83640  1.0000 0.0693980693
C   C64       1.0  0.04650  0.30250  0.33640  1.0000 0.0693980693
C   C65       1.0  0.73930  0.96830  0.77920  1.0000 -0.1495506817
C   C66       1.0  0.03170  0.26070  0.27920  1.0000 -0.1495506817
C   C67       1.0  0.76530  0.02630  0.77560  1.0000 -0.1011734569
C   C68       1.0  0.97370  0.23470  0.27560  1.0000 -0.1011734569
C   C69       1.0  0.67230  0.88890  0.84300  1.0000 0.0693980693
C   C70       1.0  0.11110  0.32770  0.34300  1.0000 0.0693980693
C   C71       1.0  0.69000  0.82640  0.94930  1.0000 -0.2015368388
C   C72       1.0  0.17360  0.31000  0.44930  1.0000 -0.2015368388
C   C73       1.0  0.66710  0.76470  0.95780  1.0000 0.079589528
C   C74       1.0  0.23530  0.33290  0.45780  1.0000 0.079589528
C   C75       1.0  0.62440  0.76960  0.85500  1.0000 -0.1916164617
C   C76       1.0  0.23040  0.37560  0.35500  1.0000 -0.1916164617
C   C77       1.0  0.60440  0.83180  0.74510  1.0000 0.079589528
C   C78       1.0  0.16820  0.39560  0.24510  1.0000 0.079589528
C   C79       1.0  0.62960  0.89180  0.74200  1.0000 -0.1916164617
C   C80       1.0  0.10820  0.37040  0.24200  1.0000 -0.1916164617
C   C81       1.0  0.56250  0.83330  0.63850  1.0000 0.0693980693
C   C82       1.0  0.16670  0.43750  0.13850  1.0000 0.0693980693
C   C83       1.0  0.58250  0.74990  0.65520  1.0000 -0.1495506817
C   C84       1.0  0.25010  0.41750  0.15520  1.0000 -0.1495506817
C   C85       1.0  0.54600  0.75000  0.55500  1.0000 -0.1192775606
C   C86       1.0  0.25000  0.45400  0.05500  1.0000 -0.1192775606
C   C87       1.0  0.48860  0.83260  0.43690  1.0000 -0.0288674066
C   C88       1.0  0.16740  0.51140  0.93690  1.0000 -0.0288674066
C   C89       1.0  0.46720  0.91520  0.41940  1.0000 -0.1102879306
C   C90       1.0  0.08480  0.53280  0.91940  1.0000 -0.1102879306
C   C91       1.0  0.50460  0.91620  0.51950  1.0000 -0.1495506817
C   C92       1.0  0.08380  0.49540  0.01950  1.0000 -0.1495506817
C   C93       1.0  0.44780  0.83400  0.32840  1.0000 0.5516223922
C   C94       1.0  0.16600  0.55220  0.82840  1.0000 0.5516223922
C   C95       1.0  0.69200  0.69160  0.07280  1.0000 0.0693980693
C   C96       1.0  0.30840  0.30800  0.57280  1.0000 0.0693980693
C   C97       1.0  0.64140  0.65760  0.07030  1.0000 -0.1495506817
C   C98       1.0  0.34240  0.35860  0.57030  1.0000 -0.1495506817
C   C99       1.0  0.66860  0.58220  0.17440  1.0000 -0.1102879306
C   C100      1.0  0.41780  0.33140  0.67440  1.0000 -0.1102879306
C   C101      1.0  0.74560  0.54020  0.28660  1.0000 -0.0288674066
C   C102      1.0  0.45980  0.25440  0.78660  1.0000 -0.0288674066
C   C103      1.0  0.79910  0.57250  0.29370  1.0000 -0.1011734569
C   C104      1.0  0.42750  0.20090  0.79370  1.0000 -0.1011734569
C   C105      1.0  0.77310  0.64690  0.18900  1.0000 -0.1495506817
C   C106      1.0  0.35310  0.22690  0.68900  1.0000 -0.1495506817
C   C107      1.0  0.77550  0.45570  0.39710  1.0000 0.5566291376
C   C108      1.0  0.54430  0.22450  0.89710  1.0000 0.5566291376
C   C109      1.0  0.02550  0.09650  0.68140  1.0000 0.1185228137
C   C110      1.0  0.90350  0.97450  0.18140  1.0000 0.1185228137
C   C111      1.0  0.95860  0.03240  0.69570  1.0000 -0.0672788307
C   C112      1.0  0.96760  0.04140  0.19570  1.0000 -0.0672788307
C   C113      1.0  0.05460  0.96040  0.78930  1.0000 0.0941870227
C   C114      1.0  0.03960  0.94540  0.28930  1.0000 0.0941870227
C   C115      1.0  0.10990  0.85850  0.88750  1.0000 0.0693980693
C   C116      1.0  0.14150  0.89010  0.38750  1.0000 0.0693980693
C   C117      1.0  0.06370  0.82130  0.90460  1.0000 -0.1680097603
C   C118      1.0  0.17870  0.93630  0.40460  1.0000 -0.1680097603
C   C119      1.0  0.11750  0.72330  0.99820  1.0000 -0.0899201394
C   C120      1.0  0.27670  0.88250  0.49820  1.0000 -0.0899201394
C   C121      1.0  0.21520  0.66667  0.07740  1.0000 -0.1413720236
C   C122      1.0  0.33340  0.78480  0.57740  1.0000 -0.1413720236
C   C123      1.0  0.26220  0.70320  0.06160  1.0000 0.079589528
C   C124      1.0  0.29680  0.73780  0.56160  1.0000 0.079589528
C   C125      1.0  0.20860  0.79840  0.96520  1.0000 -0.2015368388
C   C126      1.0  0.20160  0.79140  0.46520  1.0000 -0.2015368388
C   C127      1.0  0.36740  0.64320  0.14880  1.0000 0.1047621309
C   C128      1.0  0.35680  0.63260  0.64880  1.0000 0.1047621309
C   C129      1.0  0.43420  0.54740  0.21630  1.0000 -0.1102879306
C   C130      1.0  0.45260  0.56580  0.71630  1.0000 -0.1102879306
C   C131      1.0  0.50540  0.60720  0.25590  1.0000 0.1537461146
C   C132      1.0  0.39280  0.49460  0.75590  1.0000 0.1537461146
C   C133      1.0  0.64880  0.49620  0.58470  1.0000 0.1290098692
C   C134      1.0  0.50380  0.35120  0.08470  1.0000 0.1185228137
C   C135      1.0  0.57730  0.43310  0.59890  1.0000 -0.1011734569
C   C136      1.0  0.56690  0.42270  0.09890  1.0000 -0.1011734569
C   C137      1.0  0.50790  0.52910  0.51620  1.0000 0.1110585586
C   C138      1.0  0.47090  0.49210  0.01620  1.0000 0.1110585586
C   C139      1.0  0.40260  0.58820  0.43890  1.0000 0.0693980693
C   C140      1.0  0.41180  0.59740  0.93890  1.0000 0.0693980693
C   C141      1.0  0.36110  0.54590  0.45190  1.0000 -0.1495506817
C   C142      1.0  0.45410  0.63890  0.95190  1.0000 -0.1495506817
C   C143      1.0  0.26050  0.60270  0.37650  1.0000 -0.0899201394
C   C144      1.0  0.39730  0.73950  0.87650  1.0000 -0.0899201394
C   C145      1.0  0.20650  0.69630  0.28610  1.0000 -0.134271203
C   C146      1.0  0.30370  0.79350  0.78610  1.0000 -0.134271203
C   C147      1.0  0.24770  0.73910  0.27100  1.0000 0.079589528
C   C148      1.0  0.26090  0.75230  0.77100  1.0000 0.079589528
C   C149      1.0  0.34510  0.68530  0.35180  1.0000 -0.2015368388
C   C150      1.0  0.31470  0.65490  0.85180  1.0000 -0.2015368388
C   C151      1.0  0.18920  0.84160  0.17100  1.0000 0.1110585586
C   C152      1.0  0.15840  0.81080  0.67100  1.0000 0.1110585586
C   C153      1.0  0.09470  0.91410  0.10780  1.0000 -0.0825274945
C   C154      1.0  0.08590  0.90530  0.60780  1.0000 -0.0825274945
C   C155      1.0  0.15330  0.97330  0.03930  1.0000 0.1362844869
C   C156      1.0  0.02670  0.84670  0.53930  1.0000 0.1362844869
N   N1        1.0  0.94300  0.11480  0.63030  1.0000 -0.2969118789
N   N2        1.0  0.88520  0.05700  0.13030  1.0000 -0.2969118789
N   N3        1.0  0.09540  0.00400  0.77740  1.0000 -0.2393326708
N   N4        1.0  0.99600  0.90460  0.27740  1.0000 -0.2393326708
N   N5        1.0  0.41460  0.68020  0.17590  1.0000 -0.3508065775
N   N6        1.0  0.31980  0.58540  0.67590  1.0000 -0.3508065775
N   N7        1.0  0.52140  0.52720  0.28170  1.0000 -0.1680097603
N   N8        1.0  0.47280  0.47860  0.78170  1.0000 -0.1680097603
N   N9        1.0  0.66667  0.41090  0.64150  1.0000 -0.2871500984
N   N10       1.0  0.58910  0.33333  0.14150  1.0000 -0.2871500984
N   N11       1.0  0.55380  0.56740  0.51010  1.0000 -0.2393326708
N   N12       1.0  0.43260  0.44620  0.01010  1.0000 -0.2393326708
N   N13       1.0  0.22510  0.88070  0.12570  1.0000 -0.3357671336
N   N14       1.0  0.11930  0.77490  0.62570  1.0000 -0.3357671336
N   N15       1.0  0.07470  0.99370  0.02750  1.0000 -0.1594948605
N   N16       1.0  0.00630  0.92530  0.52750  1.0000 -0.1594948605
O   O1        1.0  0.65810  0.31150  0.48290  1.0000 -0.5401420132
O   O2        1.0  0.68850  0.34190  0.98290  1.0000 -0.5401420132
O   O3        1.0  0.71210  0.21610  0.44060  1.0000 -0.5614144043
O   O4        1.0  0.78390  0.28790  0.94060  1.0000 -0.5614144043
O   O5        1.0  0.43560  0.85280  0.05960  1.0000 -0.5087346271
O   O6        1.0  0.14720  0.56440  0.55960  1.0000 -0.5087346271
O   O7        1.0  0.28043  0.93403  0.93890  1.0000 -0.5799505945
O   O8        1.0  0.06597  0.71957  0.43890  1.0000 -0.5799505945
O   O9        1.0  0.90580  0.33060  0.81510  1.0000 -0.5295835272
O   O10       1.0  0.66940  0.09420  0.31510  1.0000 -0.5295835272
O   O11       1.0  0.95322  0.18482  0.93110  1.0000 -0.5799505945
O   O12       1.0  0.81518  0.04678  0.43110  1.0000 -0.5799505945
O   O13       1.0  0.82211  0.14071  0.78010  1.0000 -0.5512277618
O   O14       1.0  0.85929  0.17789  0.28010  1.0000 -0.5512277618
O   O15       1.0  0.73842  0.19702  0.83560  1.0000 -0.5512277618
O   O16       1.0  0.80298  0.26158  0.33560  1.0000 -0.5512277618
O   O17       1.0  0.38550  0.90910  0.22370  1.0000 -0.503944321
O   O18       1.0  0.09090  0.61450  0.72370  1.0000 -0.503944321
O   O19       1.0  0.47496  0.75396  0.34750  1.0000 -0.5876180664
O   O20       1.0  0.24604  0.52504  0.84750  1.0000 -0.5876180664
O   O21       1.0  0.83570  0.42770  0.50150  1.0000 -0.5401420132
O   O22       1.0  0.57230  0.16430  0.00150  1.0000 -0.5401420132
O   O23       1.0  0.73959  0.41599  0.37860  1.0000 -0.5799505945
O   O24       1.0  0.58401  0.26041  0.87860  1.0000 -0.5799505945
O   O25       1.0  0.86446  0.27686  0.65160  1.0000 -0.6423976258
O   O26       1.0  0.72314  0.13554  0.15160  1.0000 -0.6423976258
