# DDEC6 charges by PACMAN v1.1 (https://github.com/mtap-research/PACMAN-charge/)
data_2017[Co][pcu]2[ASR]2
_chemical_formula_sum              "Co8 H88 C144 N56 O48"
_cell_length_a       10.0392
_cell_length_b       19.727
_cell_length_c       20.156
_cell_angle_alpha    90
_cell_angle_beta     90
_cell_angle_gamma    90

_symmetry_space_group_name_H-M    "P 1"
_symmetry_Int_Tables_number       1

loop_
  _symmetry_equiv_pos_as_xyz
  'x, y, z'

loop_
  _atom_site_type_symbol
  _atom_site_label
  _atom_site_symmetry_multiplicity
  _atom_site_fract_x
  _atom_site_fract_y
  _atom_site_fract_z
  _atom_site_occupancy
  _atom_site_charge
Co  Co1       1.0  0.92300  0.95945  0.05726  1.0000 0.8499183804
Co  Co2       1.0  0.91622  0.55494  0.56133  1.0000 0.8499183804
Co  Co3       1.0  0.07700  0.45945  0.44274  1.0000 0.8499183804
Co  Co4       1.0  0.08378  0.05494  0.93867  1.0000 0.8499183804
Co  Co5       1.0  0.57700  0.04055  0.55726  1.0000 0.8499183804
Co  Co6       1.0  0.58378  0.44506  0.06133  1.0000 0.8499183804
Co  Co7       1.0  0.42300  0.54055  0.94274  1.0000 0.8499183804
Co  Co8       1.0  0.41622  0.94506  0.43867  1.0000 0.8499183804
H   H1        1.0  0.09560  0.87070  0.95190  1.0000 0.1300407085
H   H2        1.0  0.77350  0.81610  0.05060  1.0000 0.1199517082
H   H3        1.0  0.82660  0.72170  0.97520  1.0000 0.1391796783
H   H4        1.0  0.89250  0.68680  0.86780  1.0000 0.1617532037
H   H5        1.0  0.30530  0.76070  0.80670  1.0000 0.0916789649
H   H6        1.0  0.82070  0.59100  0.81040  1.0000 0.1300407085
H   H7        1.0  0.75920  0.53540  0.70600  1.0000 0.1199517082
H   H8        1.0  0.08300  0.64420  0.66860  1.0000 0.1129044089
H   H9        1.0  0.06500  0.85580  0.15840  1.0000 0.1199517082
H   H10       1.0  0.78410  0.98860  0.20370  1.0000 0.1199517082
H   H11       1.0  0.82270  0.92100  0.30440  1.0000 0.1300407085
H   H12       1.0  0.88760  0.82340  0.36550  1.0000 0.1617532037
H   H13       1.0  0.25940  0.71960  0.28370  1.0000 0.0916789649
H   H14       1.0  0.07240  0.63250  0.44660  1.0000 0.1300407085
H   H15       1.0  0.79550  0.71050  0.56370  1.0000 0.1199517082
H   H16       1.0  0.84130  0.79540  0.47740  1.0000 0.1391796783
H   H17       1.0  0.46100  0.56090  0.56990  1.0000 0.1199517082
H   H18       1.0  0.60940  0.37400  0.60760  1.0000 0.1300407085
H   H19       1.0  0.21110  0.40350  0.60080  1.0000 0.1300407085
H   H20       1.0  0.45560  0.94880  0.06880  1.0000 0.1199517082
H   H21       1.0  0.22250  0.11250  0.10220  1.0000 0.1300407085
H   H22       1.0  0.62590  0.12970  0.11280  1.0000 0.1300407085
H   H23       1.0  0.90440  0.37070  0.54810  1.0000 0.1300407085
H   H24       1.0  0.22650  0.31610  0.44940  1.0000 0.1199517082
H   H25       1.0  0.17340  0.22170  0.52480  1.0000 0.1391796783
H   H26       1.0  0.10750  0.18680  0.63220  1.0000 0.1617532037
H   H27       1.0  0.69470  0.26070  0.69330  1.0000 0.0916789649
H   H28       1.0  0.17930  0.09100  0.68960  1.0000 0.1300407085
H   H29       1.0  0.24080  0.03540  0.79400  1.0000 0.1199517082
H   H30       1.0  0.91700  0.14420  0.83140  1.0000 0.1129044089
H   H31       1.0  0.93500  0.35580  0.34160  1.0000 0.1199517082
H   H32       1.0  0.21590  0.48860  0.29630  1.0000 0.1199517082
H   H33       1.0  0.17730  0.42100  0.19560  1.0000 0.1300407085
H   H34       1.0  0.11240  0.32340  0.13450  1.0000 0.1617532037
H   H35       1.0  0.74060  0.21960  0.21630  1.0000 0.0916789649
H   H36       1.0  0.92760  0.13250  0.05340  1.0000 0.1300407085
H   H37       1.0  0.20450  0.21050  0.93630  1.0000 0.1199517082
H   H38       1.0  0.15870  0.29540  0.02260  1.0000 0.1391796783
H   H39       1.0  0.53900  0.06090  0.93010  1.0000 0.1199517082
H   H40       1.0  0.39060  0.87400  0.89240  1.0000 0.1300407085
H   H41       1.0  0.78890  0.90350  0.89920  1.0000 0.1300407085
H   H42       1.0  0.54440  0.44880  0.43120  1.0000 0.1199517082
H   H43       1.0  0.77750  0.61250  0.39780  1.0000 0.1300407085
H   H44       1.0  0.37410  0.62970  0.38720  1.0000 0.1300407085
H   H45       1.0  0.40440  0.12930  0.45190  1.0000 0.1300407085
H   H46       1.0  0.72650  0.18390  0.55060  1.0000 0.1199517082
H   H47       1.0  0.67340  0.27830  0.47520  1.0000 0.1391796783
H   H48       1.0  0.60750  0.31320  0.36780  1.0000 0.1617532037
H   H49       1.0  0.19470  0.23930  0.30670  1.0000 0.0916789649
H   H50       1.0  0.67930  0.40900  0.31040  1.0000 0.1300407085
H   H51       1.0  0.74080  0.46460  0.20600  1.0000 0.1199517082
H   H52       1.0  0.41700  0.35580  0.16860  1.0000 0.1129044089
H   H53       1.0  0.43500  0.14420  0.65840  1.0000 0.1199517082
H   H54       1.0  0.71590  0.01140  0.70370  1.0000 0.1199517082
H   H55       1.0  0.67730  0.07900  0.80440  1.0000 0.1300407085
H   H56       1.0  0.61240  0.17660  0.86550  1.0000 0.1617532037
H   H57       1.0  0.24060  0.28040  0.78370  1.0000 0.0916789649
H   H58       1.0  0.42760  0.36750  0.94660  1.0000 0.1300407085
H   H59       1.0  0.70450  0.28950  0.06370  1.0000 0.1199517082
H   H60       1.0  0.65870  0.20460  0.97740  1.0000 0.1391796783
H   H61       1.0  0.03900  0.43910  0.06990  1.0000 0.1199517082
H   H62       1.0  0.89060  0.62600  0.10760  1.0000 0.1300407085
H   H63       1.0  0.28890  0.59650  0.10080  1.0000 0.1300407085
H   H64       1.0  0.04440  0.05120  0.56880  1.0000 0.1199517082
H   H65       1.0  0.27750  0.88750  0.60220  1.0000 0.1300407085
H   H66       1.0  0.87410  0.87030  0.61280  1.0000 0.1300407085
H   H67       1.0  0.59560  0.62930  0.04810  1.0000 0.1300407085
H   H68       1.0  0.27350  0.68390  0.94940  1.0000 0.1199517082
H   H69       1.0  0.32660  0.77830  0.02480  1.0000 0.1391796783
H   H70       1.0  0.39250  0.81320  0.13220  1.0000 0.1617532037
H   H71       1.0  0.80530  0.73930  0.19330  1.0000 0.0916789649
H   H72       1.0  0.32070  0.90900  0.18960  1.0000 0.1300407085
H   H73       1.0  0.25920  0.96460  0.29400  1.0000 0.1199517082
H   H74       1.0  0.58300  0.85580  0.33140  1.0000 0.1129044089
H   H75       1.0  0.56500  0.64420  0.84160  1.0000 0.1199517082
H   H76       1.0  0.28410  0.51140  0.79630  1.0000 0.1199517082
H   H77       1.0  0.32270  0.57900  0.69560  1.0000 0.1300407085
H   H78       1.0  0.38760  0.67660  0.63450  1.0000 0.1617532037
H   H79       1.0  0.75940  0.78040  0.71630  1.0000 0.0916789649
H   H80       1.0  0.57240  0.86750  0.55340  1.0000 0.1300407085
H   H81       1.0  0.29550  0.78950  0.43630  1.0000 0.1199517082
H   H82       1.0  0.34130  0.70460  0.52260  1.0000 0.1391796783
H   H83       1.0  0.96100  0.93910  0.43010  1.0000 0.1199517082
H   H84       1.0  0.10940  0.12600  0.39240  1.0000 0.1300407085
H   H85       1.0  0.71110  0.09650  0.39920  1.0000 0.1300407085
H   H86       1.0  0.95560  0.55120  0.93120  1.0000 0.1199517082
H   H87       1.0  0.72250  0.38750  0.89780  1.0000 0.1300407085
H   H88       1.0  0.12590  0.37030  0.88720  1.0000 0.1300407085
C   C1        1.0  0.02130  0.84540  0.96740  1.0000 0.1489154212
C   C2        1.0  0.84630  0.81500  0.02050  1.0000 -0.020631174
C   C3        1.0  0.87420  0.76300  0.97980  1.0000 -0.0984763888
C   C4        1.0  0.04580  0.75100  0.89000  1.0000 0.3411270119
C   C5        1.0  0.97760  0.70280  0.85450  1.0000 -0.3274031617
C   C6        1.0  0.04030  0.67910  0.79810  1.0000 0.3559972457
C   C7        1.0  0.21870  0.74580  0.81890  1.0000 0.24623245
C   C8        1.0  0.86550  0.59500  0.76900  1.0000 -0.0984763888
C   C9        1.0  0.83333  0.56480  0.71200  1.0000 -0.020631174
C   C10       1.0  0.00940  0.62380  0.69050  1.0000 0.1391796783
C   C11       1.0  0.99990  0.88100  0.18220  1.0000 0.1391796783
C   C12       1.0  0.84670  0.95270  0.20770  1.0000 -0.020631174
C   C13       1.0  0.86720  0.91630  0.26310  1.0000 -0.0984763888
C   C14       1.0  0.02360  0.81950  0.28800  1.0000 0.3559972457
C   C15       1.0  0.96500  0.80190  0.34840  1.0000 -0.3196844589
C   C16       1.0  0.03050  0.75020  0.38070  1.0000 0.3411270119
C   C17       1.0  0.18230  0.74140  0.30080  1.0000 0.242265813
C   C18       1.0  0.00860  0.66240  0.46550  1.0000 0.1391796783
C   C19       1.0  0.85790  0.70550  0.52860  1.0000 -0.030224608
C   C20       1.0  0.88230  0.75220  0.48190  1.0000 -0.0939951744
C   C21       1.0  0.20080  0.53600  0.57230  1.0000 0.5602737889
C   C22       1.0  0.31760  0.48950  0.58350  1.0000 -0.0055196105
C   C23       1.0  0.44680  0.51420  0.57920  1.0000 -0.1099732406
C   C24       1.0  0.55570  0.47180  0.58810  1.0000 0.0017914995
C   C25       1.0  0.53590  0.40390  0.60230  1.0000 -0.1493756753
C   C26       1.0  0.40690  0.38070  0.60860  1.0000 0.0698053073
C   C27       1.0  0.29860  0.42160  0.59810  1.0000 -0.1333496757
C   C28       1.0  0.69290  0.50010  0.58020  1.0000 0.5266631394
C   C29       1.0  0.69370  0.00340  0.07730  1.0000 0.5266631394
C   C30       1.0  0.56010  0.03440  0.08810  1.0000 0.0017914995
C   C31       1.0  0.44690  0.99570  0.07830  1.0000 -0.1099732406
C   C32       1.0  0.32060  0.02420  0.08230  1.0000 0.0017914995
C   C33       1.0  0.30770  0.09180  0.09950  1.0000 -0.1408320628
C   C34       1.0  0.42260  0.12850  0.11280  1.0000 0.0698053073
C   C35       1.0  0.54920  0.10240  0.10580  1.0000 -0.1493756753
C   C36       1.0  0.20280  0.97940  0.06910  1.0000 0.5602737889
C   C37       1.0  0.97870  0.34540  0.53260  1.0000 0.1489154212
C   C38       1.0  0.15370  0.31500  0.47950  1.0000 -0.020631174
C   C39       1.0  0.12580  0.26300  0.52020  1.0000 -0.0984763888
C   C40       1.0  0.95420  0.25100  0.61000  1.0000 0.3411270119
C   C41       1.0  0.02240  0.20280  0.64550  1.0000 -0.3274031617
C   C42       1.0  0.95970  0.17910  0.70190  1.0000 0.3559972457
C   C43       1.0  0.78130  0.24580  0.68110  1.0000 0.24623245
C   C44       1.0  0.13450  0.09500  0.73100  1.0000 -0.0984763888
C   C45       1.0  0.16667  0.06480  0.78800  1.0000 -0.020631174
C   C46       1.0  0.99060  0.12380  0.80950  1.0000 0.1391796783
C   C47       1.0  0.00010  0.38100  0.31780  1.0000 0.1391796783
C   C48       1.0  0.15330  0.45270  0.29230  1.0000 -0.020631174
C   C49       1.0  0.13280  0.41630  0.23690  1.0000 -0.0984763888
C   C50       1.0  0.97640  0.31950  0.21200  1.0000 0.3559972457
C   C51       1.0  0.03500  0.30190  0.15160  1.0000 -0.3196844589
C   C52       1.0  0.96950  0.25020  0.11930  1.0000 0.3411270119
C   C53       1.0  0.81770  0.24140  0.19920  1.0000 0.242265813
C   C54       1.0  0.99140  0.16240  0.03450  1.0000 0.1391796783
C   C55       1.0  0.14210  0.20550  0.97140  1.0000 -0.030224608
C   C56       1.0  0.11770  0.25220  0.01810  1.0000 -0.0939951744
C   C57       1.0  0.79920  0.03600  0.92770  1.0000 0.5602737889
C   C58       1.0  0.68240  0.98950  0.91650  1.0000 -0.0055196105
C   C59       1.0  0.55320  0.01420  0.92080  1.0000 -0.1099732406
C   C60       1.0  0.44430  0.97180  0.91190  1.0000 0.0017914995
C   C61       1.0  0.46410  0.90390  0.89770  1.0000 -0.1493756753
C   C62       1.0  0.59310  0.88070  0.89140  1.0000 0.0698053073
C   C63       1.0  0.70140  0.92160  0.90190  1.0000 -0.1333496757
C   C64       1.0  0.30710  0.00010  0.91980  1.0000 0.5266631394
C   C65       1.0  0.30630  0.50340  0.42270  1.0000 0.5266631394
C   C66       1.0  0.43990  0.53440  0.41190  1.0000 0.0017914995
C   C67       1.0  0.55310  0.49570  0.42170  1.0000 -0.1099732406
C   C68       1.0  0.67940  0.52420  0.41770  1.0000 0.0017914995
C   C69       1.0  0.69230  0.59180  0.40050  1.0000 -0.1408320628
C   C70       1.0  0.57740  0.62850  0.38720  1.0000 0.0698053073
C   C71       1.0  0.45080  0.60240  0.39420  1.0000 -0.1493756753
C   C72       1.0  0.79720  0.47940  0.43090  1.0000 0.5602737889
C   C73       1.0  0.47870  0.15460  0.46740  1.0000 0.1489154212
C   C74       1.0  0.65370  0.18500  0.52050  1.0000 -0.020631174
C   C75       1.0  0.62580  0.23700  0.47980  1.0000 -0.0984763888
C   C76       1.0  0.45420  0.24900  0.39000  1.0000 0.3411270119
C   C77       1.0  0.52240  0.29720  0.35450  1.0000 -0.3274031617
C   C78       1.0  0.45970  0.32090  0.29810  1.0000 0.3559972457
C   C79       1.0  0.28130  0.25420  0.31890  1.0000 0.24623245
C   C80       1.0  0.63450  0.40500  0.26900  1.0000 -0.0984763888
C   C81       1.0  0.66667  0.43520  0.21200  1.0000 -0.020631174
C   C82       1.0  0.49060  0.37620  0.19050  1.0000 0.1391796783
C   C83       1.0  0.50010  0.11900  0.68220  1.0000 0.1391796783
C   C84       1.0  0.65330  0.04730  0.70770  1.0000 -0.020631174
C   C85       1.0  0.63280  0.08370  0.76310  1.0000 -0.0984763888
C   C86       1.0  0.47640  0.18050  0.78800  1.0000 0.3559972457
C   C87       1.0  0.53500  0.19810  0.84840  1.0000 -0.3196844589
C   C88       1.0  0.46950  0.24980  0.88070  1.0000 0.3411270119
C   C89       1.0  0.31770  0.25860  0.80080  1.0000 0.242265813
C   C90       1.0  0.49140  0.33760  0.96550  1.0000 0.1391796783
C   C91       1.0  0.64210  0.29450  0.02860  1.0000 -0.030224608
C   C92       1.0  0.61770  0.24780  0.98190  1.0000 -0.0939951744
C   C93       1.0  0.29920  0.46400  0.07230  1.0000 0.5602737889
C   C94       1.0  0.18240  0.51050  0.08350  1.0000 -0.0055196105
C   C95       1.0  0.05320  0.48580  0.07920  1.0000 -0.1099732406
C   C96       1.0  0.94430  0.52820  0.08810  1.0000 0.0017914995
C   C97       1.0  0.96410  0.59610  0.10230  1.0000 -0.1493756753
C   C98       1.0  0.09310  0.61930  0.10860  1.0000 0.0698053073
C   C99       1.0  0.20140  0.57840  0.09810  1.0000 -0.1333496757
C   C100      1.0  0.80710  0.49990  0.08020  1.0000 0.5266631394
C   C101      1.0  0.80630  0.99660  0.57730  1.0000 0.5266631394
C   C102      1.0  0.93990  0.96560  0.58810  1.0000 0.0017914995
C   C103      1.0  0.05310  0.00430  0.57830  1.0000 -0.1099732406
C   C104      1.0  0.17940  0.97580  0.58230  1.0000 0.0017914995
C   C105      1.0  0.19230  0.90820  0.59950  1.0000 -0.1408320628
C   C106      1.0  0.07740  0.87150  0.61280  1.0000 0.0698053073
C   C107      1.0  0.95080  0.89760  0.60580  1.0000 -0.1493756753
C   C108      1.0  0.29720  0.02060  0.56910  1.0000 0.5602737889
C   C109      1.0  0.52130  0.65460  0.03260  1.0000 0.1489154212
C   C110      1.0  0.34630  0.68500  0.97950  1.0000 -0.020631174
C   C111      1.0  0.37420  0.73700  0.02020  1.0000 -0.0984763888
C   C112      1.0  0.54580  0.74900  0.11000  1.0000 0.3411270119
C   C113      1.0  0.47760  0.79720  0.14550  1.0000 -0.3274031617
C   C114      1.0  0.54030  0.82090  0.20190  1.0000 0.3559972457
C   C115      1.0  0.71870  0.75420  0.18110  1.0000 0.24623245
C   C116      1.0  0.36550  0.90500  0.23100  1.0000 -0.0984763888
C   C117      1.0  0.33333  0.93520  0.28800  1.0000 -0.020631174
C   C118      1.0  0.50940  0.87620  0.30950  1.0000 0.1391796783
C   C119      1.0  0.49990  0.61900  0.81780  1.0000 0.1391796783
C   C120      1.0  0.34670  0.54730  0.79230  1.0000 -0.020631174
C   C121      1.0  0.36720  0.58370  0.73690  1.0000 -0.0984763888
C   C122      1.0  0.52360  0.68050  0.71200  1.0000 0.3559972457
C   C123      1.0  0.46500  0.69810  0.65160  1.0000 -0.3196844589
C   C124      1.0  0.53050  0.74980  0.61930  1.0000 0.3411270119
C   C125      1.0  0.68230  0.75860  0.69920  1.0000 0.242265813
C   C126      1.0  0.50860  0.83760  0.53450  1.0000 0.1391796783
C   C127      1.0  0.35790  0.79450  0.47140  1.0000 -0.030224608
C   C128      1.0  0.38230  0.74780  0.51810  1.0000 -0.0939951744
C   C129      1.0  0.70080  0.96400  0.42770  1.0000 0.5602737889
C   C130      1.0  0.81760  0.01050  0.41650  1.0000 -0.0055196105
C   C131      1.0  0.94680  0.98580  0.42080  1.0000 -0.1099732406
C   C132      1.0  0.05570  0.02820  0.41190  1.0000 0.0017914995
C   C133      1.0  0.03590  0.09610  0.39770  1.0000 -0.1493756753
C   C134      1.0  0.90690  0.11930  0.39140  1.0000 0.0698053073
C   C135      1.0  0.79860  0.07840  0.40190  1.0000 -0.1333496757
C   C136      1.0  0.19290  0.99990  0.41980  1.0000 0.5266631394
C   C137      1.0  0.19370  0.49660  0.92270  1.0000 0.5266631394
C   C138      1.0  0.06010  0.46560  0.91190  1.0000 0.0017914995
C   C139      1.0  0.94690  0.50430  0.92170  1.0000 -0.1099732406
C   C140      1.0  0.82060  0.47580  0.91770  1.0000 0.0017914995
C   C141      1.0  0.80770  0.40820  0.90050  1.0000 -0.1408320628
C   C142      1.0  0.92260  0.37150  0.88720  1.0000 0.0698053073
C   C143      1.0  0.04920  0.39760  0.89420  1.0000 -0.1493756753
C   C144      1.0  0.70280  0.52060  0.93090  1.0000 0.5602737889
N   N1        1.0  0.93740  0.86630  0.01270  1.0000 -0.2910633572
N   N2        1.0  0.98780  0.78290  0.94560  1.0000 -0.020631174
N   N3        1.0  0.16680  0.77330  0.87420  1.0000 -0.3679464211
N   N4        1.0  0.16210  0.70010  0.77940  1.0000 -0.3679464211
N   N5        1.0  0.97800  0.63330  0.75540  1.0000 -0.020631174
N   N6        1.0  0.92450  0.58260  0.66210  1.0000 -0.2910633572
N   N7        1.0  0.93000  0.93040  0.15690  1.0000 -0.2910633572
N   N8        1.0  0.96760  0.87010  0.24740  1.0000 -0.030224608
N   N9        1.0  0.13120  0.79010  0.26320  1.0000 -0.3649414033
N   N10       1.0  0.13940  0.71940  0.35920  1.0000 -0.3679464211
N   N11       1.0  0.97930  0.72456  0.44160  1.0000 -0.020631174
N   N12       1.0  0.93710  0.64870  0.51830  1.0000 -0.2910633572
N   N13       1.0  0.38460  0.30920  0.62590  1.0000 0.5151938945
N   N14       1.0  0.41020  0.19950  0.13610  1.0000 0.5151938945
N   N15       1.0  0.06260  0.36630  0.48730  1.0000 -0.2910633572
N   N16       1.0  0.01220  0.28290  0.55440  1.0000 -0.020631174
N   N17       1.0  0.83320  0.27330  0.62580  1.0000 -0.3679464211
N   N18       1.0  0.83790  0.20010  0.72060  1.0000 -0.3679464211
N   N19       1.0  0.02200  0.13330  0.74460  1.0000 -0.020631174
N   N20       1.0  0.07550  0.08260  0.83790  1.0000 -0.2910633572
N   N21       1.0  0.07000  0.43040  0.34310  1.0000 -0.2910633572
N   N22       1.0  0.03240  0.37010  0.25260  1.0000 -0.030224608
N   N23       1.0  0.86880  0.29010  0.23680  1.0000 -0.3649414033
N   N24       1.0  0.86060  0.21940  0.14080  1.0000 -0.3679464211
N   N25       1.0  0.02070  0.22456  0.05840  1.0000 -0.020631174
N   N26       1.0  0.06290  0.14870  0.98170  1.0000 -0.2910633572
N   N27       1.0  0.61540  0.80920  0.87410  1.0000 0.5151938945
N   N28       1.0  0.58980  0.69950  0.36390  1.0000 0.5151938945
N   N29       1.0  0.56260  0.13370  0.51270  1.0000 -0.2910633572
N   N30       1.0  0.51220  0.21710  0.44560  1.0000 -0.020631174
N   N31       1.0  0.33320  0.22670  0.37420  1.0000 -0.3679464211
N   N32       1.0  0.33790  0.29990  0.27940  1.0000 -0.3679464211
N   N33       1.0  0.52200  0.36670  0.25540  1.0000 -0.020631174
N   N34       1.0  0.57550  0.41740  0.16210  1.0000 -0.2910633572
N   N35       1.0  0.57000  0.06960  0.65690  1.0000 -0.2910633572
N   N36       1.0  0.53240  0.12990  0.74740  1.0000 -0.030224608
N   N37       1.0  0.36880  0.20990  0.76320  1.0000 -0.3649414033
N   N38       1.0  0.36060  0.28060  0.85920  1.0000 -0.3679464211
N   N39       1.0  0.52070  0.27544  0.94160  1.0000 -0.020631174
N   N40       1.0  0.56290  0.35130  0.01830  1.0000 -0.2910633572
N   N41       1.0  0.11540  0.69080  0.12590  1.0000 0.5151938945
N   N42       1.0  0.08980  0.80050  0.63610  1.0000 0.5151938945
N   N43       1.0  0.43740  0.63370  0.98730  1.0000 -0.2910633572
N   N44       1.0  0.48780  0.71710  0.05440  1.0000 -0.020631174
N   N45       1.0  0.66680  0.72670  0.12580  1.0000 -0.3679464211
N   N46       1.0  0.66210  0.79990  0.22060  1.0000 -0.3679464211
N   N47       1.0  0.47800  0.86670  0.24460  1.0000 -0.020631174
N   N48       1.0  0.42450  0.91740  0.33790  1.0000 -0.2910633572
N   N49       1.0  0.43000  0.56960  0.84310  1.0000 -0.2910633572
N   N50       1.0  0.46760  0.62990  0.75260  1.0000 -0.030224608
N   N51       1.0  0.63120  0.70990  0.73680  1.0000 -0.3649414033
N   N52       1.0  0.63940  0.78060  0.64080  1.0000 -0.3679464211
N   N53       1.0  0.47930  0.77544  0.55840  1.0000 -0.020631174
N   N54       1.0  0.43710  0.85130  0.48170  1.0000 -0.2910633572
N   N55       1.0  0.88460  0.19080  0.37410  1.0000 0.5151938945
N   N56       1.0  0.91020  0.30050  0.86390  1.0000 0.5151938945
O   O1        1.0  0.09230  0.50770  0.55256  1.0000 -0.5714440048
O   O2        1.0  0.21690  0.59710  0.58295  1.0000 -0.5384582057
O   O3        1.0  0.70510  0.56217  0.56580  1.0000 -0.5313465098
O   O4        1.0  0.79300  0.46312  0.58850  1.0000 -0.5239184946
O   O5        1.0  0.47630  0.26950  0.62040  1.0000 -0.3196844589
O   O6        1.0  0.27220  0.29380  0.64490  1.0000 -0.3274031617
O   O7        1.0  0.70340  0.94076  0.06670  1.0000 -0.5313465098
O   O8        1.0  0.79700  0.04122  0.07828  1.0000 -0.5313465098
O   O9        1.0  0.21170  0.91855  0.08110  1.0000 -0.5384582057
O   O10       1.0  0.09750  0.00934  0.04667  1.0000 -0.5714440048
O   O11       1.0  0.30370  0.22820  0.12960  1.0000 -0.3196844589
O   O12       1.0  0.50790  0.22510  0.16220  1.0000 -0.3196844589
O   O13       1.0  0.90770  0.00770  0.94744  1.0000 -0.5714440048
O   O14       1.0  0.78310  0.09710  0.91705  1.0000 -0.5384582057
O   O15       1.0  0.29490  0.06217  0.93420  1.0000 -0.5313465098
O   O16       1.0  0.20700  0.96312  0.91150  1.0000 -0.5239184946
O   O17       1.0  0.52370  0.76950  0.87960  1.0000 -0.3196844589
O   O18       1.0  0.72780  0.79380  0.85510  1.0000 -0.3274031617
O   O19       1.0  0.29660  0.44076  0.43330  1.0000 -0.5313465098
O   O20       1.0  0.20300  0.54122  0.42172  1.0000 -0.5313465098
O   O21       1.0  0.78830  0.41855  0.41890  1.0000 -0.5384582057
O   O22       1.0  0.90250  0.50934  0.45333  1.0000 -0.5714440048
O   O23       1.0  0.69630  0.72820  0.37040  1.0000 -0.3196844589
O   O24       1.0  0.49210  0.72510  0.33780  1.0000 -0.3196844589
O   O25       1.0  0.40770  0.49230  0.05256  1.0000 -0.5714440048
O   O26       1.0  0.28310  0.40290  0.08295  1.0000 -0.5384582057
O   O27       1.0  0.79490  0.43783  0.06580  1.0000 -0.5313465098
O   O28       1.0  0.70700  0.53688  0.08850  1.0000 -0.5239184946
O   O29       1.0  0.02370  0.73050  0.12040  1.0000 -0.3196844589
O   O30       1.0  0.22780  0.70620  0.14490  1.0000 -0.3274031617
O   O31       1.0  0.79660  0.05924  0.56670  1.0000 -0.5313465098
O   O32       1.0  0.70300  0.95878  0.57828  1.0000 -0.5313465098
O   O33       1.0  0.28830  0.08145  0.58110  1.0000 -0.5384582057
O   O34       1.0  0.40250  0.99066  0.54667  1.0000 -0.5714440048
O   O35       1.0  0.19630  0.77180  0.62960  1.0000 -0.3196844589
O   O36       1.0  0.99210  0.77490  0.66220  1.0000 -0.3196844589
O   O37       1.0  0.59230  0.99230  0.44744  1.0000 -0.5714440048
O   O38       1.0  0.71690  0.90290  0.41705  1.0000 -0.5384582057
O   O39       1.0  0.20510  0.93783  0.43420  1.0000 -0.5313465098
O   O40       1.0  0.29300  0.03688  0.41150  1.0000 -0.5239184946
O   O41       1.0  0.97630  0.23050  0.37960  1.0000 -0.3196844589
O   O42       1.0  0.77220  0.20620  0.35510  1.0000 -0.3274031617
O   O43       1.0  0.20340  0.55924  0.93330  1.0000 -0.5313465098
O   O44       1.0  0.29700  0.45878  0.92172  1.0000 -0.5313465098
O   O45       1.0  0.71170  0.58145  0.91890  1.0000 -0.5384582057
O   O46       1.0  0.59750  0.49066  0.95333  1.0000 -0.5714440048
O   O47       1.0  0.80370  0.27180  0.87040  1.0000 -0.3196844589
O   O48       1.0  0.00790  0.27490  0.83780  1.0000 -0.3196844589
