# DDEC6 charges by PACMAN v1.1 (https://github.com/mtap-research/PACMAN-charge/)
data_2017[FeSi][pcu]3[ASR]1
_chemical_formula_sum              "Fe1 Si1 H8 C8 N4 F6"
_cell_length_a       7.1831
_cell_length_b       7.1831
_cell_length_c       7.5839
_cell_angle_alpha    90
_cell_angle_beta     90
_cell_angle_gamma    90

_symmetry_space_group_name_H-M    "P 1"
_symmetry_Int_Tables_number       1

loop_
  _symmetry_equiv_pos_as_xyz
  'x, y, z'

loop_
  _atom_site_type_symbol
  _atom_site_label
  _atom_site_symmetry_multiplicity
  _atom_site_fract_x
  _atom_site_fract_y
  _atom_site_fract_z
  _atom_site_occupancy
  _atom_site_charge
Fe  Fe1       1.0  0.50000  0.50000  0.50000  1.0000 0.8696282936
Si  Si1       1.0  0.50000  0.50000  0.00000  1.0000 1.6976582838
H   H1        1.0  0.17144  0.50000  0.22528  1.0000 0.1161572543
H   H2        1.0  0.82856  0.50000  0.22528  1.0000 0.1161572543
H   H3        1.0  0.50000  0.17144  0.22528  1.0000 0.1161572543
H   H4        1.0  0.50000  0.82856  0.22528  1.0000 0.1161572543
H   H5        1.0  0.82856  0.50000  0.77472  1.0000 0.1161572543
H   H6        1.0  0.17144  0.50000  0.77472  1.0000 0.1161572543
H   H7        1.0  0.50000  0.17144  0.77472  1.0000 0.1161572543
H   H8        1.0  0.50000  0.82856  0.77472  1.0000 0.1161572543
C   C1        1.0  0.09689  0.50000  0.34846  1.0000 0.0497256374
C   C2        1.0  0.90311  0.50000  0.34846  1.0000 0.0497256374
C   C3        1.0  0.50000  0.09689  0.34846  1.0000 0.0497256374
C   C4        1.0  0.50000  0.90311  0.34846  1.0000 0.0497256374
C   C5        1.0  0.90311  0.50000  0.65154  1.0000 0.0497256374
C   C6        1.0  0.09689  0.50000  0.65154  1.0000 0.0497256374
C   C7        1.0  0.50000  0.09689  0.65154  1.0000 0.0497256374
C   C8        1.0  0.50000  0.90311  0.65154  1.0000 0.0497256374
N   N1        1.0  0.19988  0.50000  0.50000  1.0000 -0.2275196182
N   N2        1.0  0.80012  0.50000  0.50000  1.0000 -0.2275196182
N   N3        1.0  0.50000  0.19988  0.50000  1.0000 -0.2275196182
N   N4        1.0  0.50000  0.80012  0.50000  1.0000 -0.2275196182
F   F1        1.0  0.50000  0.50000  0.22993  1.0000 -0.4973785398
F   F2        1.0  0.50000  0.50000  0.77007  1.0000 -0.4973785398
F   F3        1.0  0.33618  0.33618  0.00000  1.0000 -0.4973785398
F   F4        1.0  0.66382  0.66382  0.00000  1.0000 -0.4973785398
F   F5        1.0  0.66382  0.33618  0.00000  1.0000 -0.4973785398
F   F6        1.0  0.33618  0.66382  0.00000  1.0000 -0.4973785398
