# DDEC6 charges by PACMAN v1.1 (https://github.com/mtap-research/PACMAN-charge/)
data_2017[Co][nan]3[ASR]20
_chemical_formula_sum              "Co6 H6 C24 O18"
_cell_length_a       15.0481
_cell_length_b       15.0481
_cell_length_c       15.0481
_cell_angle_alpha    117.723
_cell_angle_beta     117.723
_cell_angle_gamma    117.723

_symmetry_space_group_name_H-M    "P 1"
_symmetry_Int_Tables_number       1

loop_
  _symmetry_equiv_pos_as_xyz
  'x, y, z'

loop_
  _atom_site_type_symbol
  _atom_site_label
  _atom_site_symmetry_multiplicity
  _atom_site_fract_x
  _atom_site_fract_y
  _atom_site_fract_z
  _atom_site_occupancy
  _atom_site_charge
Co  Co1       1.0  0.52727  0.79171  0.11331  1.0000 1.0145939902
Co  Co2       1.0  0.79171  0.11331  0.52727  1.0000 1.0153009013
Co  Co3       1.0  0.11331  0.52727  0.79171  1.0000 1.0145939902
Co  Co4       1.0  0.47273  0.20829  0.88669  1.0000 1.0145939902
Co  Co5       1.0  0.20829  0.88669  0.47273  1.0000 1.0153009013
Co  Co6       1.0  0.88669  0.47273  0.20829  1.0000 1.0145939902
H   H1        1.0  0.65400  0.67330  0.20180  1.0000 0.146764871
H   H2        1.0  0.67330  0.20180  0.65400  1.0000 0.146764871
H   H3        1.0  0.20180  0.65400  0.67330  1.0000 0.146764871
H   H4        1.0  0.34600  0.32670  0.79820  1.0000 0.146764871
H   H5        1.0  0.32670  0.79820  0.34600  1.0000 0.146764871
H   H6        1.0  0.79820  0.34600  0.32670  1.0000 0.146764871
C   C1        1.0  0.82210  0.64700  0.25710  1.0000 0.6379843071
C   C2        1.0  0.64700  0.25710  0.82210  1.0000 0.6379843071
C   C3        1.0  0.25710  0.82210  0.64700  1.0000 0.6379843071
C   C4        1.0  0.17790  0.35300  0.74290  1.0000 0.6379843071
C   C5        1.0  0.35300  0.74290  0.17790  1.0000 0.6379843071
C   C6        1.0  0.74290  0.17790  0.35300  1.0000 0.6379843071
C   C7        1.0  0.92070  0.83310  0.38640  1.0000 -0.1248775333
C   C8        1.0  0.83310  0.38640  0.92070  1.0000 -0.1255968019
C   C9        1.0  0.38640  0.92070  0.83310  1.0000 -0.1255968019
C   C10       1.0  0.07930  0.16690  0.61360  1.0000 -0.1255968019
C   C11       1.0  0.16690  0.61360  0.07930  1.0000 -0.1255968019
C   C12       1.0  0.61360  0.07930  0.16690  1.0000 -0.1255968019
C   C13       1.0  0.79630  0.80800  0.32500  1.0000 -0.2009296004
C   C14       1.0  0.80800  0.32500  0.79630  1.0000 -0.2009296004
C   C15       1.0  0.32500  0.79630  0.80800  1.0000 -0.2009296004
C   C16       1.0  0.20370  0.19200  0.67500  1.0000 -0.2009296004
C   C17       1.0  0.19200  0.67500  0.20370  1.0000 -0.2009296004
C   C18       1.0  0.67500  0.20370  0.19200  1.0000 -0.2009296004
C   C19       1.0  0.86540  0.96550  0.43110  1.0000 0.2867765243
C   C20       1.0  0.96550  0.43110  0.86540  1.0000 0.2867765243
C   C21       1.0  0.43110  0.86540  0.96550  1.0000 0.2867765243
C   C22       1.0  0.13460  0.03450  0.56890  1.0000 0.2867765243
C   C23       1.0  0.03450  0.56890  0.13460  1.0000 0.2867765243
C   C24       1.0  0.56890  0.13460  0.03450  1.0000 0.2867765243
O   O1        1.0  0.93760  0.67079  0.31611  1.0000 -0.6003303215
O   O2        1.0  0.67079  0.31611  0.93760  1.0000 -0.6003303215
O   O3        1.0  0.31611  0.93760  0.67079  1.0000 -0.6003303215
O   O4        1.0  0.06240  0.32921  0.68389  1.0000 -0.6003303215
O   O5        1.0  0.32921  0.68389  0.06240  1.0000 -0.6003303215
O   O6        1.0  0.68389  0.06240  0.32921  1.0000 -0.6003303215
O   O7        1.0  0.72927  0.92281  0.35942  1.0000 -0.6347949192
O   O8        1.0  0.92281  0.35942  0.72927  1.0000 -0.6347949192
O   O9        1.0  0.35942  0.72927  0.92281  1.0000 -0.6347949192
O   O10       1.0  0.27073  0.07719  0.64058  1.0000 -0.6347949192
O   O11       1.0  0.07719  0.64058  0.27073  1.0000 -0.6347949192
O   O12       1.0  0.64058  0.27073  0.07719  1.0000 -0.6347949192
O   O13       1.0  0.63452  0.47727  0.10231  1.0000 -0.5251716658
O   O14       1.0  0.47727  0.10231  0.63452  1.0000 -0.5246495143
O   O15       1.0  0.10231  0.63452  0.47727  1.0000 -0.5246495143
O   O16       1.0  0.36548  0.52273  0.89769  1.0000 -0.5246495143
O   O17       1.0  0.52273  0.89769  0.36548  1.0000 -0.5251716658
O   O18       1.0  0.89769  0.36548  0.52273  1.0000 -0.5246495143
