# DDEC6 charges by PACMAN v1.1 (https://github.com/mtap-research/PACMAN-charge/)
data_2017[CuTb][nan]3[ASR]4
_chemical_formula_sum              "Tb8 Cu16 H112 C168 I12 N28 O56"
_cell_length_a       9.294
_cell_length_b       23.233
_cell_length_c       30.705
_cell_angle_alpha    90
_cell_angle_beta     90
_cell_angle_gamma    90

_symmetry_space_group_name_H-M    "P 1"
_symmetry_Int_Tables_number       1

loop_
  _symmetry_equiv_pos_as_xyz
  'x, y, z'

loop_
  _atom_site_type_symbol
  _atom_site_label
  _atom_site_symmetry_multiplicity
  _atom_site_fract_x
  _atom_site_fract_y
  _atom_site_fract_z
  _atom_site_occupancy
  _atom_site_charge
Tb  Tb1       1.0  0.54212  0.43932  0.51550  1.0000 2.153331751
Tb  Tb2       1.0  0.01162  0.46537  0.52166  1.0000 2.1599837486
Tb  Tb3       1.0  0.95788  0.56068  0.01550  1.0000 2.153331751
Tb  Tb4       1.0  0.48838  0.53463  0.02166  1.0000 2.1599837486
Tb  Tb5       1.0  0.45788  0.93932  0.98450  1.0000 2.153331751
Tb  Tb6       1.0  0.98838  0.96537  0.97834  1.0000 2.1599837486
Tb  Tb7       1.0  0.04212  0.06068  0.48450  1.0000 2.153331751
Tb  Tb8       1.0  0.51162  0.03463  0.47834  1.0000 2.1599837486
Cu  Cu1       1.0  0.45600  0.61948  0.27746  1.0000 0.1847973261
Cu  Cu2       1.0  0.77950  0.73501  0.32359  1.0000 0.1987494584
Cu  Cu3       1.0  0.99320  0.85711  0.25081  1.0000 0.1987494584
Cu  Cu4       1.0  0.75550  0.78234  0.24275  1.0000 0.170461962
Cu  Cu5       1.0  0.04400  0.38052  0.77746  1.0000 0.1847973261
Cu  Cu6       1.0  0.72050  0.26499  0.82359  1.0000 0.1987494584
Cu  Cu7       1.0  0.50680  0.14289  0.75081  1.0000 0.1987494584
Cu  Cu8       1.0  0.74450  0.21766  0.74275  1.0000 0.170461962
Cu  Cu9       1.0  0.54400  0.11948  0.22254  1.0000 0.1847973261
Cu  Cu10      1.0  0.22050  0.23501  0.17641  1.0000 0.1987494584
Cu  Cu11      1.0  0.00680  0.35711  0.24919  1.0000 0.1987494584
Cu  Cu12      1.0  0.24450  0.28234  0.25725  1.0000 0.170461962
Cu  Cu13      1.0  0.95600  0.88052  0.72254  1.0000 0.1854728106
Cu  Cu14      1.0  0.27950  0.76499  0.67641  1.0000 0.1987494584
Cu  Cu15      1.0  0.49320  0.64289  0.74919  1.0000 0.1987494584
Cu  Cu16      1.0  0.25550  0.71766  0.75725  1.0000 0.170461962
H   H1        1.0  0.00230  0.32020  0.62180  1.0000 0.1298198234
H   H2        1.0  0.57480  0.31230  0.60370  1.0000 0.1392303798
H   H3        1.0  0.42190  0.55620  0.68180  1.0000 0.0985741745
H   H4        1.0  0.88380  0.89070  0.16440  1.0000 0.0887816418
H   H5        1.0  0.55830  0.25730  0.66860  1.0000 0.0887816418
H   H6        1.0  0.46560  0.53410  0.20700  1.0000 0.0985741745
H   H7        1.0  0.24810  0.67830  0.21680  1.0000 0.0985741745
H   H8        1.0  0.26740  0.63560  0.35640  1.0000 0.1074671168
H   H9        1.0  0.97920  0.60670  0.44020  1.0000 0.1392303798
H   H10       1.0  0.55340  0.59040  0.42230  1.0000 0.1298198234
H   H11       1.0  0.09660  0.58920  0.59950  1.0000 0.1392303798
H   H12       1.0  0.90070  0.57460  0.65540  1.0000 0.1298198234
H   H13       1.0  0.20270  0.58660  0.41730  1.0000 0.1392303798
H   H14       1.0  0.56780  0.65760  0.36700  1.0000 0.0887816418
H   H15       1.0  0.79470  0.62280  0.71020  1.0000 0.1074671168
H   H16       1.0  0.51680  0.50440  0.62620  1.0000 0.1392303798
H   H17       1.0  0.14760  0.66220  0.14930  1.0000 0.1298198234
H   H18       1.0  0.50260  0.63240  0.56690  1.0000 0.1392303798
H   H19       1.0  0.95970  0.90770  0.09310  1.0000 0.1477196831
H   H20       1.0  0.26610  0.83450  0.19550  1.0000 0.1074671168
H   H21       1.0  0.48860  0.70440  0.61820  1.0000 0.0985741745
H   H22       1.0  0.34910  0.84940  0.12570  1.0000 0.1392303798
H   H23       1.0  0.09750  0.66520  0.64760  1.0000 0.0985741745
H   H24       1.0  0.97520  0.26060  0.68290  1.0000 0.0887816418
H   H25       1.0  0.47590  0.50290  0.31420  1.0000 0.1074671168
H   H26       1.0  0.98700  0.67110  0.38380  1.0000 0.0985741745
H   H27       1.0  0.39570  0.52150  0.13630  1.0000 0.1392303798
H   H28       1.0  0.42500  0.45060  0.37600  1.0000 0.1477196831
H   H29       1.0  0.49770  0.67980  0.12180  1.0000 0.1298198234
H   H30       1.0  0.92520  0.68770  0.10370  1.0000 0.1392303798
H   H31       1.0  0.07810  0.44380  0.18180  1.0000 0.0985741745
H   H32       1.0  0.61620  0.10930  0.66440  1.0000 0.0887816418
H   H33       1.0  0.94170  0.74270  0.16860  1.0000 0.0887816418
H   H34       1.0  0.03440  0.46590  0.70700  1.0000 0.0985741745
H   H35       1.0  0.25190  0.32170  0.71680  1.0000 0.0985741745
H   H36       1.0  0.23260  0.36440  0.85640  1.0000 0.1074671168
H   H37       1.0  0.52080  0.39330  0.94020  1.0000 0.1392303798
H   H38       1.0  0.94660  0.40960  0.92230  1.0000 0.1298198234
H   H39       1.0  0.40340  0.41080  0.09950  1.0000 0.1392303798
H   H40       1.0  0.59930  0.42540  0.15540  1.0000 0.1298198234
H   H41       1.0  0.29730  0.41340  0.91730  1.0000 0.1392303798
H   H42       1.0  0.93220  0.34240  0.86700  1.0000 0.0887816418
H   H43       1.0  0.70530  0.37720  0.21020  1.0000 0.1074671168
H   H44       1.0  0.98320  0.49560  0.12620  1.0000 0.1392303798
H   H45       1.0  0.35240  0.33780  0.64930  1.0000 0.1298198234
H   H46       1.0  0.99740  0.36760  0.06690  1.0000 0.1392303798
H   H47       1.0  0.54030  0.09230  0.59310  1.0000 0.1477196831
H   H48       1.0  0.23390  0.16550  0.69550  1.0000 0.1074671168
H   H49       1.0  0.01140  0.29560  0.11820  1.0000 0.0985741745
H   H50       1.0  0.15090  0.15060  0.62570  1.0000 0.1392303798
H   H51       1.0  0.40250  0.33480  0.14760  1.0000 0.0985741745
H   H52       1.0  0.52480  0.73940  0.18290  1.0000 0.0887816418
H   H53       1.0  0.02410  0.49710  0.81420  1.0000 0.1074671168
H   H54       1.0  0.51300  0.32890  0.88380  1.0000 0.0985741745
H   H55       1.0  0.10430  0.47850  0.63630  1.0000 0.1392303798
H   H56       1.0  0.07500  0.54940  0.87600  1.0000 0.1477196831
H   H57       1.0  0.99770  0.82020  0.87820  1.0000 0.1298198234
H   H58       1.0  0.42520  0.81230  0.89630  1.0000 0.1392303798
H   H59       1.0  0.57810  0.05620  0.81820  1.0000 0.0985741745
H   H60       1.0  0.11620  0.39070  0.33560  1.0000 0.0887816418
H   H61       1.0  0.44170  0.75730  0.83140  1.0000 0.0887816418
H   H62       1.0  0.53440  0.03410  0.29300  1.0000 0.0985741745
H   H63       1.0  0.75190  0.17830  0.28320  1.0000 0.0985741745
H   H64       1.0  0.73260  0.13560  0.14360  1.0000 0.1074671168
H   H65       1.0  0.02080  0.10670  0.05980  1.0000 0.1392303798
H   H66       1.0  0.44660  0.09040  0.07770  1.0000 0.1298198234
H   H67       1.0  0.90340  0.08920  0.90050  1.0000 0.1392303798
H   H68       1.0  0.09930  0.07460  0.84460  1.0000 0.1298198234
H   H69       1.0  0.79730  0.08660  0.08270  1.0000 0.1392303798
H   H70       1.0  0.43220  0.15760  0.13300  1.0000 0.0887816418
H   H71       1.0  0.20530  0.12280  0.78980  1.0000 0.1074671168
H   H72       1.0  0.48320  0.00440  0.87380  1.0000 0.1392303798
H   H73       1.0  0.85240  0.16220  0.35070  1.0000 0.1298198234
H   H74       1.0  0.49740  0.13240  0.93310  1.0000 0.1392303798
H   H75       1.0  0.04030  0.40770  0.40690  1.0000 0.1477196831
H   H76       1.0  0.73390  0.33450  0.30450  1.0000 0.1074671168
H   H77       1.0  0.51140  0.20440  0.88180  1.0000 0.0985741745
H   H78       1.0  0.65090  0.34940  0.37430  1.0000 0.1392303798
H   H79       1.0  0.90250  0.16520  0.85240  1.0000 0.0985741745
H   H80       1.0  0.02480  0.76060  0.81710  1.0000 0.0887816418
H   H81       1.0  0.52410  0.00290  0.18580  1.0000 0.1074671168
H   H82       1.0  0.01300  0.17110  0.11620  1.0000 0.0985741745
H   H83       1.0  0.60430  0.02150  0.36370  1.0000 0.1392303798
H   H84       1.0  0.57500  0.95060  0.12400  1.0000 0.1477196831
H   H85       1.0  0.50230  0.17980  0.37820  1.0000 0.1298198234
H   H86       1.0  0.07480  0.18770  0.39630  1.0000 0.1392303798
H   H87       1.0  0.92190  0.94380  0.31820  1.0000 0.0985741745
H   H88       1.0  0.38380  0.60930  0.83560  1.0000 0.0887816418
H   H89       1.0  0.05830  0.24270  0.33140  1.0000 0.0887816418
H   H90       1.0  0.96560  0.96590  0.79300  1.0000 0.0985741745
H   H91       1.0  0.74810  0.82170  0.78320  1.0000 0.0985741745
H   H92       1.0  0.76740  0.86440  0.64360  1.0000 0.1074671168
H   H93       1.0  0.47920  0.89330  0.55980  1.0000 0.1392303798
H   H94       1.0  0.05340  0.90960  0.57770  1.0000 0.1298198234
H   H95       1.0  0.59660  0.91080  0.40050  1.0000 0.1392303798
H   H96       1.0  0.40070  0.92540  0.34460  1.0000 0.1298198234
H   H97       1.0  0.70270  0.91340  0.58270  1.0000 0.1392303798
H   H98       1.0  0.06780  0.84240  0.63300  1.0000 0.0807640331
H   H99       1.0  0.29470  0.87720  0.28980  1.0000 0.1074671168
H   H100      1.0  0.01680  0.99560  0.37380  1.0000 0.1392303798
H   H101      1.0  0.64760  0.83780  0.85070  1.0000 0.1298198234
H   H102      1.0  0.00260  0.86760  0.43310  1.0000 0.1392303798
H   H103      1.0  0.45970  0.59230  0.90690  1.0000 0.1477196831
H   H104      1.0  0.76610  0.66550  0.80450  1.0000 0.1074671168
H   H105      1.0  0.98860  0.79560  0.38180  1.0000 0.0985741745
H   H106      1.0  0.84910  0.65060  0.87430  1.0000 0.1392303798
H   H107      1.0  0.59750  0.83480  0.35240  1.0000 0.0985741745
H   H108      1.0  0.47520  0.23940  0.31710  1.0000 0.0887816418
H   H109      1.0  0.97590  0.99710  0.68580  1.0000 0.1074671168
H   H110      1.0  0.48700  0.82890  0.61620  1.0000 0.0985741745
H   H111      1.0  0.89570  0.97850  0.86370  1.0000 0.1392303798
H   H112      1.0  0.92500  0.04940  0.62400  1.0000 0.1477196831
C   C1        1.0  0.72290  0.53610  0.63200  1.0000 0.0181344145
C   C2        1.0  0.91160  0.30780  0.63050  1.0000 -0.1493796322
C   C3        1.0  0.26180  0.59040  0.13410  1.0000 0.0354991425
C   C4        1.0  0.30470  0.51310  0.40380  1.0000 0.0291146818
C   C5        1.0  0.76870  0.58800  0.43590  1.0000 0.0181344145
C   C6        1.0  0.26850  0.47900  0.44420  1.0000 0.6476779822
C   C7        1.0  0.65640  0.30370  0.62000  1.0000 -0.1493796322
C   C8        1.0  0.30190  0.60200  0.57740  1.0000 0.0181344145
C   C9        1.0  0.80290  0.36180  0.56680  1.0000 0.6476779822
C   C10       1.0  0.21520  0.90110  0.05690  1.0000 0.6414816324
C   C11       1.0  0.52010  0.55980  0.67650  1.0000 0.0887816418
C   C12       1.0  0.75940  0.54380  0.47210  1.0000 0.6314855758
C   C13       1.0  0.97850  0.88260  0.15680  1.0000 0.0807640331
C   C14       1.0  0.64810  0.26980  0.65910  1.0000 0.0807640331
C   C15       1.0  0.40610  0.56170  0.19430  1.0000 0.0807640331
C   C16       1.0  0.27450  0.64590  0.20090  1.0000 0.0610297755
C   C17       1.0  0.29990  0.59810  0.36010  1.0000 0.0610297755
C   C18       1.0  0.89560  0.61490  0.42480  1.0000 -0.1493796322
C   C19       1.0  0.64220  0.60550  0.41430  1.0000 -0.1493796322
C   C20       1.0  0.17760  0.61240  0.60230  1.0000 -0.1573703141
C   C21       1.0  0.16370  0.88400  0.10260  1.0000 0.0291146818
C   C22       1.0  0.80210  0.57070  0.65970  1.0000 -0.1493796322
C   C23       1.0  0.26070  0.56860  0.39670  1.0000 -0.1779018446
C   C24       1.0  0.65190  0.64580  0.38080  1.0000 0.0688830826
C   C25       1.0  0.73850  0.59880  0.69300  1.0000 0.0291146818
C   C26       1.0  0.57480  0.52910  0.64230  1.0000 -0.1573703141
C   C27       1.0  0.21700  0.63700  0.15990  1.0000 -0.1573703141
C   C28       1.0  0.79110  0.32310  0.60770  1.0000 0.0291146818
C   C29       1.0  0.41880  0.63760  0.58300  1.0000 -0.1573703141
C   C30       1.0  0.02440  0.89380  0.11360  1.0000 -0.1389010045
C   C31       1.0  0.20150  0.58290  0.08770  1.0000 0.6178012179
C   C32       1.0  0.78590  0.50600  0.59220  1.0000 0.6178012179
C   C33       1.0  0.20350  0.84950  0.17480  1.0000 0.053026475
C   C34       1.0  0.40770  0.68170  0.61350  1.0000 0.0887816418
C   C35       1.0  0.25530  0.85920  0.13310  1.0000 -0.1573703141
C   C36       1.0  0.17910  0.65830  0.63090  1.0000 0.0610297755
C   C37       1.0  0.89380  0.27250  0.66780  1.0000 0.0688830826
C   C38       1.0  0.42200  0.52050  0.33610  1.0000 0.0688830826
C   C39       1.0  0.90000  0.65410  0.39090  1.0000 0.053026475
C   C40       1.0  0.36080  0.55250  0.15230  1.0000 -0.1573703141
C   C41       1.0  0.29850  0.55100  0.54690  1.0000 0.6414816324
C   C42       1.0  0.39000  0.48790  0.37270  1.0000 -0.1573703141
C   C43       1.0  0.77710  0.46390  0.13200  1.0000 0.0181344145
C   C44       1.0  0.58840  0.69220  0.13050  1.0000 -0.1493796322
C   C45       1.0  0.23820  0.40960  0.63410  1.0000 0.0354991425
C   C46       1.0  0.19530  0.48690  0.90380  1.0000 0.0291146818
C   C47       1.0  0.73130  0.41200  0.93590  1.0000 0.0181344145
C   C48       1.0  0.23150  0.52100  0.94420  1.0000 0.6476779822
C   C49       1.0  0.84360  0.69630  0.12000  1.0000 -0.1493796322
C   C50       1.0  0.19810  0.39800  0.07740  1.0000 0.0181344145
C   C51       1.0  0.69710  0.63820  0.06680  1.0000 0.6476779822
C   C52       1.0  0.28480  0.09890  0.55690  1.0000 0.6414816324
C   C53       1.0  0.97990  0.44020  0.17650  1.0000 0.0887816418
C   C54       1.0  0.74060  0.45620  0.97210  1.0000 0.6314855758
C   C55       1.0  0.52150  0.11740  0.65680  1.0000 0.0807640331
C   C56       1.0  0.85190  0.73020  0.15910  1.0000 0.0807640331
C   C57       1.0  0.09390  0.43830  0.69430  1.0000 0.0807640331
C   C58       1.0  0.22550  0.35410  0.70090  1.0000 0.0610297755
C   C59       1.0  0.20010  0.40190  0.86010  1.0000 0.0610297755
C   C60       1.0  0.60440  0.38510  0.92480  1.0000 -0.1493796322
C   C61       1.0  0.85780  0.39450  0.91430  1.0000 -0.1493796322
C   C62       1.0  0.32240  0.38760  0.10230  1.0000 -0.1573703141
C   C63       1.0  0.33630  0.11600  0.60260  1.0000 0.0291146818
C   C64       1.0  0.69790  0.42930  0.15970  1.0000 -0.1493796322
C   C65       1.0  0.23930  0.43140  0.89670  1.0000 -0.1779018446
C   C66       1.0  0.84810  0.35420  0.88080  1.0000 0.0688830826
C   C67       1.0  0.76150  0.40120  0.19300  1.0000 0.0291146818
C   C68       1.0  0.92520  0.47090  0.14230  1.0000 -0.1573703141
C   C69       1.0  0.28300  0.36300  0.65990  1.0000 -0.1573703141
C   C70       1.0  0.70890  0.67690  0.10770  1.0000 0.0291146818
C   C71       1.0  0.08120  0.36240  0.08300  1.0000 -0.1493796322
C   C72       1.0  0.47560  0.10620  0.61360  1.0000 -0.1389010045
C   C73       1.0  0.29850  0.41710  0.58770  1.0000 0.6178012179
C   C74       1.0  0.71410  0.49400  0.09220  1.0000 0.6149723474
C   C75       1.0  0.29650  0.15050  0.67480  1.0000 0.053026475
C   C76       1.0  0.09230  0.31830  0.11350  1.0000 0.0887816418
C   C77       1.0  0.24470  0.14080  0.63310  1.0000 -0.1573703141
C   C78       1.0  0.32090  0.34170  0.13090  1.0000 0.0610297755
C   C79       1.0  0.60620  0.72750  0.16780  1.0000 0.0688830826
C   C80       1.0  0.07800  0.47950  0.83610  1.0000 0.0610297755
C   C81       1.0  0.60000  0.34590  0.89090  1.0000 0.053026475
C   C82       1.0  0.13920  0.44750  0.65230  1.0000 -0.1573703141
C   C83       1.0  0.20150  0.44900  0.04690  1.0000 0.6414816324
C   C84       1.0  0.11000  0.51210  0.87270  1.0000 -0.1573703141
C   C85       1.0  0.27710  0.03610  0.86800  1.0000 0.0181344145
C   C86       1.0  0.08840  0.80780  0.86950  1.0000 -0.1493796322
C   C87       1.0  0.73820  0.09040  0.36590  1.0000 0.0354991425
C   C88       1.0  0.69530  0.01310  0.09620  1.0000 0.0291146818
C   C89       1.0  0.23130  0.08800  0.06410  1.0000 0.0181344145
C   C90       1.0  0.73150  0.97900  0.05580  1.0000 0.6476779822
C   C91       1.0  0.34360  0.80370  0.88000  1.0000 -0.1573703141
C   C92       1.0  0.69810  0.10200  0.92260  1.0000 0.0181344145
C   C93       1.0  0.19710  0.86180  0.93320  1.0000 0.6476779822
C   C94       1.0  0.78480  0.40110  0.44310  1.0000 0.6414816324
C   C95       1.0  0.47990  0.05980  0.82350  1.0000 0.0887816418
C   C96       1.0  0.24060  0.04380  0.02790  1.0000 0.6314855758
C   C97       1.0  0.02150  0.38260  0.34320  1.0000 0.0807640331
C   C98       1.0  0.35190  0.76980  0.84090  1.0000 0.0807640331
C   C99       1.0  0.59390  0.06170  0.30570  1.0000 0.0807640331
C   C100      1.0  0.72550  0.14590  0.29910  1.0000 0.0610297755
C   C101      1.0  0.70010  0.09810  0.13990  1.0000 0.0610297755
C   C102      1.0  0.10440  0.11490  0.07520  1.0000 -0.1493796322
C   C103      1.0  0.35780  0.10550  0.08570  1.0000 -0.1493796322
C   C104      1.0  0.82240  0.11240  0.89770  1.0000 -0.1573703141
C   C105      1.0  0.83630  0.38400  0.39740  1.0000 0.0291146818
C   C106      1.0  0.19790  0.07070  0.84030  1.0000 -0.1493796322
C   C107      1.0  0.73930  0.06860  0.10330  1.0000 -0.1779018446
C   C108      1.0  0.34810  0.14580  0.11920  1.0000 0.0688830826
C   C109      1.0  0.26150  0.09880  0.80700  1.0000 0.0291146818
C   C110      1.0  0.42520  0.02910  0.85770  1.0000 -0.1573703141
C   C111      1.0  0.78300  0.13700  0.34010  1.0000 -0.1573703141
C   C112      1.0  0.20890  0.82310  0.89230  1.0000 0.0291146818
C   C113      1.0  0.58120  0.13760  0.91700  1.0000 -0.1493796322
C   C114      1.0  0.97560  0.39380  0.38640  1.0000 -0.1389010045
C   C115      1.0  0.79850  0.08290  0.41230  1.0000 0.6178012179
C   C116      1.0  0.21410  0.00600  0.90780  1.0000 0.6178012179
C   C117      1.0  0.79650  0.34950  0.32520  1.0000 0.053026475
C   C118      1.0  0.59230  0.18170  0.88650  1.0000 0.0887816418
C   C119      1.0  0.74470  0.35920  0.36690  1.0000 -0.1573703141
C   C120      1.0  0.82090  0.15830  0.86910  1.0000 0.0610297755
C   C121      1.0  0.10620  0.77250  0.83220  1.0000 0.0688830826
C   C122      1.0  0.57800  0.02050  0.16390  1.0000 0.0688830826
C   C123      1.0  0.10000  0.15410  0.10910  1.0000 0.053026475
C   C124      1.0  0.63920  0.05250  0.34770  1.0000 -0.1573703141
C   C125      1.0  0.70150  0.05100  0.95310  1.0000 0.6414816324
C   C126      1.0  0.61000  0.98790  0.12730  1.0000 -0.1573703141
C   C127      1.0  0.22290  0.96390  0.36800  1.0000 0.0181344145
C   C128      1.0  0.41160  0.19220  0.36950  1.0000 -0.1493796322
C   C129      1.0  0.76180  0.90960  0.86590  1.0000 0.0354991425
C   C130      1.0  0.80470  0.98690  0.59620  1.0000 0.0291146818
C   C131      1.0  0.26870  0.91200  0.56410  1.0000 0.0181344145
C   C132      1.0  0.76850  0.02100  0.55580  1.0000 0.6476779822
C   C133      1.0  0.15640  0.19630  0.38000  1.0000 -0.1493796322
C   C134      1.0  0.80190  0.89800  0.42260  1.0000 0.0181344145
C   C135      1.0  0.30290  0.13820  0.43320  1.0000 0.6476779822
C   C136      1.0  0.71520  0.59890  0.94310  1.0000 0.6414816324
C   C137      1.0  0.02010  0.94020  0.32350  1.0000 0.0887816418
C   C138      1.0  0.25940  0.95620  0.52790  1.0000 0.6314855758
C   C139      1.0  0.47850  0.61740  0.84320  1.0000 0.0807640331
C   C140      1.0  0.14810  0.23020  0.34090  1.0000 0.0807640331
C   C141      1.0  0.90610  0.93830  0.80570  1.0000 0.0807640331
C   C142      1.0  0.77450  0.85410  0.79910  1.0000 0.0610297755
C   C143      1.0  0.79990  0.90190  0.63990  1.0000 0.0610297755
C   C144      1.0  0.39560  0.88510  0.57520  1.0000 -0.1493796322
C   C145      1.0  0.14220  0.89450  0.58570  1.0000 -0.1493796322
C   C146      1.0  0.67760  0.88760  0.39770  1.0000 -0.1573703141
C   C147      1.0  0.66370  0.61600  0.89740  1.0000 0.0291146818
C   C148      1.0  0.30210  0.92930  0.34030  1.0000 -0.1493796322
C   C149      1.0  0.76070  0.93140  0.60330  1.0000 -0.1779018446
C   C150      1.0  0.15190  0.85420  0.61920  1.0000 0.0688830826
C   C151      1.0  0.23850  0.90120  0.30700  1.0000 0.0291146818
C   C152      1.0  0.07480  0.97090  0.35770  1.0000 -0.1573703141
C   C153      1.0  0.71700  0.86300  0.84010  1.0000 -0.1573703141
C   C154      1.0  0.29110  0.17690  0.39230  1.0000 0.0291146818
C   C155      1.0  0.91880  0.86240  0.41700  1.0000 -0.1573703141
C   C156      1.0  0.52440  0.60620  0.88640  1.0000 -0.1389010045
C   C157      1.0  0.70150  0.91710  0.91230  1.0000 0.6178012179
C   C158      1.0  0.28590  0.99400  0.40780  1.0000 0.6178012179
C   C159      1.0  0.70350  0.65050  0.82520  1.0000 0.053026475
C   C160      1.0  0.90770  0.81830  0.38650  1.0000 0.0887816418
C   C161      1.0  0.75530  0.64080  0.86690  1.0000 -0.1573703141
C   C162      1.0  0.67910  0.84170  0.36910  1.0000 0.0610297755
C   C163      1.0  0.39380  0.22750  0.33220  1.0000 0.0688830826
C   C164      1.0  0.92200  0.97950  0.66390  1.0000 0.0610297755
C   C165      1.0  0.40000  0.84590  0.60910  1.0000 0.053026475
C   C166      1.0  0.86080  0.94750  0.84770  1.0000 -0.1573703141
C   C167      1.0  0.79850  0.94900  0.45310  1.0000 0.6414816324
C   C168      1.0  0.89000  0.01210  0.62730  1.0000 -0.1573703141
I   I1        1.0  0.71056  0.89228  0.24883  1.0000 -0.4557847958
I   I2        1.0  0.52197  0.73002  0.28565  1.0000 -0.4036467728
I   I3        1.0  0.01306  0.74467  0.27535  1.0000 -0.4036467728
I   I4        1.0  0.78944  0.10772  0.74883  1.0000 -0.4557847958
I   I5        1.0  0.97803  0.26998  0.78565  1.0000 -0.4036467728
I   I6        1.0  0.48694  0.25533  0.77535  1.0000 -0.4036467728
I   I7        1.0  0.28944  0.39228  0.25117  1.0000 -0.4557847958
I   I8        1.0  0.47803  0.23002  0.21435  1.0000 -0.4036467728
I   I9        1.0  0.98694  0.24467  0.22465  1.0000 -0.4036467728
I   I10       1.0  0.21056  0.60772  0.75117  1.0000 -0.4557847958
I   I11       1.0  0.02197  0.76998  0.71435  1.0000 -0.4036467728
I   I12       1.0  0.51306  0.75533  0.72465  1.0000 -0.4036467728
N   N1        1.0  0.77970  0.66880  0.36730  1.0000 -0.1779018446
N   N2        1.0  0.38290  0.57480  0.32980  1.0000 -0.1779018446
N   N3        1.0  0.37050  0.60720  0.21820  1.0000 -0.1779018446
N   N4        1.0  0.29400  0.69350  0.63580  1.0000 -0.1779018446
N   N5        1.0  0.76320  0.25560  0.68210  1.0000 -0.1779018446
N   N6        1.0  0.59280  0.59370  0.70260  1.0000 -0.1779018446
N   N7        1.0  0.06590  0.86090  0.18680  1.0000 -0.1872351226
N   N8        1.0  0.72030  0.33120  0.86730  1.0000 -0.1779018446
N   N9        1.0  0.11710  0.42520  0.82980  1.0000 -0.1779018446
N   N10       1.0  0.12950  0.39280  0.71820  1.0000 -0.1779018446
N   N11       1.0  0.20600  0.30650  0.13580  1.0000 -0.1779018446
N   N12       1.0  0.73680  0.74440  0.18210  1.0000 -0.1779018446
N   N13       1.0  0.90720  0.40630  0.20260  1.0000 -0.1779018446
N   N14       1.0  0.43410  0.13910  0.68680  1.0000 -0.1872351226
N   N15       1.0  0.22030  0.16880  0.13270  1.0000 -0.1779018446
N   N16       1.0  0.61710  0.07480  0.17020  1.0000 -0.1779018446
N   N17       1.0  0.62950  0.10720  0.28180  1.0000 -0.1779018446
N   N18       1.0  0.70600  0.19350  0.86420  1.0000 -0.1779018446
N   N19       1.0  0.23680  0.75560  0.81790  1.0000 -0.1779018446
N   N20       1.0  0.40720  0.09370  0.79740  1.0000 -0.1779018446
N   N21       1.0  0.93410  0.36090  0.31320  1.0000 -0.1872351226
N   N22       1.0  0.27970  0.83120  0.63270  1.0000 -0.1779018446
N   N23       1.0  0.88290  0.92520  0.67020  1.0000 -0.1779018446
N   N24       1.0  0.87050  0.89280  0.78180  1.0000 -0.1779018446
N   N25       1.0  0.79400  0.80650  0.36420  1.0000 -0.1779018446
N   N26       1.0  0.26320  0.24440  0.31790  1.0000 -0.1779018446
N   N27       1.0  0.09280  0.90630  0.29740  1.0000 -0.1779018446
N   N28       1.0  0.56590  0.63910  0.81320  1.0000 -0.1872351226
O   O1        1.0  0.17770  0.53840  0.53100  1.0000 -0.6686554508
O   O2        1.0  0.41800  0.52570  0.53990  1.0000 -0.6686554508
O   O3        1.0  0.92390  0.38470  0.56050  1.0000 -0.6610368807
O   O4        1.0  0.69330  0.36620  0.54360  1.0000 -0.6536199804
O   O5        1.0  0.13900  0.47410  0.45550  1.0000 -0.6536199804
O   O6        1.0  0.87520  0.53620  0.49320  1.0000 -0.6893914696
O   O7        1.0  0.06950  0.58580  0.08360  1.0000 -0.6276052054
O   O8        1.0  0.92040  0.51070  0.58710  1.0000 -0.6610368807
O   O9        1.0  0.64780  0.51710  0.47700  1.0000 -0.6077520903
O   O10       1.0  0.70390  0.48150  0.56630  1.0000 -0.6610368807
O   O11       1.0  0.37120  0.45410  0.46280  1.0000 -0.6686554508
O   O12       1.0  0.29290  0.57280  0.05850  1.0000 -0.6893914696
O   O13       1.0  0.34990  0.89930  0.04920  1.0000 -0.6610368807
O   O14       1.0  0.11930  0.91440  0.03030  1.0000 -0.6795072016
O   O15       1.0  0.32230  0.46160  0.03100  1.0000 -0.6686554508
O   O16       1.0  0.08200  0.47430  0.03990  1.0000 -0.6686554508
O   O17       1.0  0.57610  0.61530  0.06050  1.0000 -0.6610368807
O   O18       1.0  0.80670  0.63380  0.04360  1.0000 -0.6536199804
O   O19       1.0  0.36100  0.52590  0.95550  1.0000 -0.6536199804
O   O20       1.0  0.62480  0.46380  0.99320  1.0000 -0.6893914696
O   O21       1.0  0.43050  0.41420  0.58360  1.0000 -0.6276052054
O   O22       1.0  0.57960  0.48930  0.08710  1.0000 -0.6610368807
O   O23       1.0  0.85220  0.48290  0.97700  1.0000 -0.6077520903
O   O24       1.0  0.79610  0.51850  0.06630  1.0000 -0.6610368807
O   O25       1.0  0.12880  0.54590  0.96280  1.0000 -0.6686554508
O   O26       1.0  0.20710  0.42720  0.55850  1.0000 -0.6893914696
O   O27       1.0  0.15010  0.10070  0.54920  1.0000 -0.6610368807
O   O28       1.0  0.38070  0.08560  0.53030  1.0000 -0.6795072016
O   O29       1.0  0.82230  0.03840  0.96900  1.0000 -0.6686554508
O   O30       1.0  0.58200  0.02570  0.96010  1.0000 -0.6686554508
O   O31       1.0  0.07610  0.88470  0.93950  1.0000 -0.6610368807
O   O32       1.0  0.30670  0.86620  0.95640  1.0000 -0.6536199804
O   O33       1.0  0.86100  0.97410  0.04450  1.0000 -0.6536199804
O   O34       1.0  0.12480  0.03620  0.00680  1.0000 -0.6893914696
O   O35       1.0  0.93050  0.08580  0.41640  1.0000 -0.6276052054
O   O36       1.0  0.07960  0.01070  0.91290  1.0000 -0.6610368807
O   O37       1.0  0.35220  0.01710  0.02300  1.0000 -0.6077520903
O   O38       1.0  0.29610  0.98150  0.93370  1.0000 -0.6610368807
O   O39       1.0  0.62880  0.95410  0.03720  1.0000 -0.6686554508
O   O40       1.0  0.70710  0.07280  0.44150  1.0000 -0.6893914696
O   O41       1.0  0.65010  0.39930  0.45080  1.0000 -0.6610368807
O   O42       1.0  0.88070  0.41440  0.46970  1.0000 -0.6795072016
O   O43       1.0  0.67770  0.96160  0.46900  1.0000 -0.6686554508
O   O44       1.0  0.91800  0.97430  0.46010  1.0000 -0.6686554508
O   O45       1.0  0.42390  0.11530  0.43950  1.0000 -0.6610368807
O   O46       1.0  0.19330  0.13380  0.45640  1.0000 -0.6536199804
O   O47       1.0  0.63900  0.02590  0.54450  1.0000 -0.6536199804
O   O48       1.0  0.37520  0.96380  0.50680  1.0000 -0.6893914696
O   O49       1.0  0.56950  0.91420  0.91640  1.0000 -0.6276052054
O   O50       1.0  0.42040  0.98930  0.41290  1.0000 -0.6610368807
O   O51       1.0  0.14780  0.98290  0.52300  1.0000 -0.6077520903
O   O52       1.0  0.20390  0.01850  0.43370  1.0000 -0.6610368807
O   O53       1.0  0.87120  0.04590  0.53720  1.0000 -0.6686554508
O   O54       1.0  0.79290  0.92720  0.94150  1.0000 -0.6893914696
O   O55       1.0  0.84990  0.60070  0.95080  1.0000 -0.6610368807
O   O56       1.0  0.61930  0.58560  0.96970  1.0000 -0.6795072016
