# DDEC6 charges by PACMAN v1.1 (https://github.com/mtap-research/PACMAN-charge/)
data_2017[Mn][fsc]3[ASR]1
_chemical_formula_sum              "Mn2 H26 C38 N4 O10"
_cell_length_a       10.2909
_cell_length_b       10.655
_cell_length_c       11.4221
_cell_angle_alpha    79.594
_cell_angle_beta     75.334
_cell_angle_gamma    61.906

_symmetry_space_group_name_H-M    "P 1"
_symmetry_Int_Tables_number       1

loop_
  _symmetry_equiv_pos_as_xyz
  'x, y, z'

loop_
  _atom_site_type_symbol
  _atom_site_label
  _atom_site_symmetry_multiplicity
  _atom_site_fract_x
  _atom_site_fract_y
  _atom_site_fract_z
  _atom_site_occupancy
  _atom_site_charge
Mn  Mn1       1.0  0.55529  0.34795  0.17958  1.0000 0.9814929092
Mn  Mn2       1.0  0.44356  0.65458  0.81910  1.0000 0.9719774449
H   H1        1.0  0.49476  0.18234  0.82908  1.0000 0.1071646914
H   H2        1.0  0.71938  0.87605  0.10200  1.0000 0.1071646914
H   H3        1.0  0.91517  0.84473  0.92725  1.0000 0.1071646914
H   H4        1.0  0.10999  0.13327  0.77390  1.0000 0.1071646914
H   H5        1.0  0.85649  0.33456  0.80557  1.0000 0.1170430449
H   H6        1.0  0.75615  0.20922  0.55009  1.0000 0.1071646914
H   H7        1.0  0.86150  0.07725  0.65809  1.0000 0.0615668656
H   H8        1.0  0.15061  0.97372  0.59879  1.0000 0.0749073425
H   H9        1.0  0.22553  0.04006  0.45497  1.0000 0.0787609374
H   H10       1.0  0.34018  0.41269  0.43306  1.0000 0.1009562362
H   H11       1.0  0.12699  0.36299  0.53941  1.0000 0.1170430449
H   H12       1.0  0.13154  0.22496  0.20389  1.0000 0.1071646914
H   H13       1.0  0.35489  0.26589  0.11112  1.0000 0.0901086652
H   H14       1.0  0.50522  0.81770  0.17083  1.0000 0.1071646914
H   H15       1.0  0.28056  0.12401  0.89794  1.0000 0.1071646914
H   H16       1.0  0.08467  0.15544  0.07282  1.0000 0.1009562362
H   H17       1.0  0.89002  0.86666  0.22613  1.0000 0.1071646914
H   H18       1.0  0.14354  0.66552  0.19419  1.0000 0.1170430449
H   H19       1.0  0.24456  0.78906  0.44953  1.0000 0.1071646914
H   H20       1.0  0.13683  0.92238  0.34324  1.0000 0.0615668656
H   H21       1.0  0.85092  0.02323  0.40232  1.0000 0.0787609374
H   H22       1.0  0.77456  0.95826  0.54580  1.0000 0.0787609374
H   H23       1.0  0.64914  0.60410  0.56190  1.0000 0.1009562362
H   H24       1.0  0.87188  0.64300  0.45874  1.0000 0.1170430449
H   H25       1.0  0.86945  0.77245  0.79764  1.0000 0.1071646914
H   H26       1.0  0.64876  0.72930  0.88849  1.0000 0.0901086652
C   C1        1.0  0.49723  0.10275  0.90525  1.0000 -0.1267368472
C   C2        1.0  0.62439  0.03408  0.95975  1.0000 0.0615668656
C   C3        1.0  0.62433  0.92993  0.05540  1.0000 -0.12002637
C   C4        1.0  0.59560  0.34335  0.91056  1.0000 0.5774221742
C   C5        1.0  0.18711  0.84478  0.83641  1.0000 0.5381284976
C   C6        1.0  0.73828  0.20869  0.88035  1.0000 -0.0786325312
C   C7        1.0  0.75554  0.06685  0.91397  1.0000 0.0436109589
C   C8        1.0  0.90203  0.95243  0.89772  1.0000 -0.1495541566
C   C9        1.0  0.03348  0.96943  0.84706  1.0000 -0.0319606703
C   C10       1.0  0.01317  0.11132  0.81129  1.0000 -0.1030590585
C   C11       1.0  0.86924  0.22582  0.82819  1.0000 -0.094578912
C   C12       1.0  0.11083  0.28461  0.38248  1.0000 0.0068093446
C   C13       1.0  0.97056  0.26570  0.44098  1.0000 0.4064494693
C   C14       1.0  0.85810  0.10829  0.55946  1.0000 -0.0614535999
C   C15       1.0  0.13533  0.01050  0.50303  1.0000 -0.0614535999
C   C16       1.0  0.29532  0.36631  0.38498  1.0000 0.0787609374
C   C17       1.0  0.17326  0.33944  0.44403  1.0000 -0.1495541566
C   C18       1.0  0.17621  0.26290  0.25953  1.0000 -0.1495541566
C   C19       1.0  0.30011  0.28726  0.20638  1.0000 0.0901086652
C   C20       1.0  0.50270  0.89729  0.09465  1.0000 -0.1267368472
C   C21       1.0  0.37542  0.96608  0.04023  1.0000 0.0615668656
C   C22       1.0  0.37561  0.07011  0.94451  1.0000 -0.12002637
C   C23       1.0  0.40429  0.65770  0.08833  1.0000 0.5774221742
C   C24       1.0  0.81146  0.15555  0.16376  1.0000 0.5381284976
C   C25       1.0  0.26150  0.79168  0.11935  1.0000 -0.0786325312
C   C26       1.0  0.24403  0.93355  0.08606  1.0000 0.0436109589
C   C27       1.0  0.09741  0.04790  0.10244  1.0000 -0.1495541566
C   C28       1.0  0.96574  0.03097  0.15306  1.0000 -0.0319606703
C   C29       1.0  0.98669  0.88884  0.18876  1.0000 -0.1030590585
C   C30       1.0  0.13069  0.77435  0.17171  1.0000 -0.094578912
C   C31       1.0  0.88956  0.71587  0.61733  1.0000 0.0068093446
C   C32       1.0  0.03132  0.73221  0.55961  1.0000 0.4064494693
C   C33       1.0  0.14219  0.89027  0.44141  1.0000 -0.0614535999
C   C34       1.0  0.86536  0.98740  0.49831  1.0000 -0.0614535999
C   C35       1.0  0.69678  0.64703  0.61073  1.0000 0.0901086652
C   C36       1.0  0.82323  0.66797  0.55367  1.0000 -0.1495541566
C   C37       1.0  0.82440  0.73800  0.73998  1.0000 -0.1495541566
C   C38       1.0  0.69737  0.71598  0.79245  1.0000 0.0901086652
N   N1        1.0  0.36437  0.33747  0.26593  1.0000 -0.2758909738
N   N2        1.0  0.98886  0.13604  0.50211  1.0000 -0.1416261918
N   N3        1.0  0.63033  0.67135  0.73078  1.0000 -0.2726311064
N   N4        1.0  0.01208  0.86217  0.49919  1.0000 -0.1495541566
O   O1        1.0  0.52345  0.35749  0.02228  1.0000 -0.5085277434
O   O2        1.0  0.55285  0.44523  0.82538  1.0000 -0.5195206678
O   O3        1.0  0.21294  0.71530  0.87477  1.0000 -0.4940577424
O   O4        1.0  0.30827  0.86124  0.78748  1.0000 -0.5195206678
O   O5        1.0  0.84464  0.36756  0.43412  1.0000 -0.4835519469
O   O6        1.0  0.47577  0.64347  0.97654  1.0000 -0.5085277434
O   O7        1.0  0.44820  0.55594  0.17351  1.0000 -0.5085277434
O   O8        1.0  0.78583  0.28497  0.12499  1.0000 -0.4967882014
O   O9        1.0  0.69013  0.13954  0.21278  1.0000 -0.5195206678
O   O10       1.0  0.15768  0.63091  0.56570  1.0000 -0.4835519469
