# DDEC6 charges by PACMAN v1.1 (https://github.com/mtap-research/PACMAN-charge/)
data_2017[U][sql]2[ASR]1
_chemical_formula_sum              "U2 H28 C28 N8 O16"
_cell_length_a       9.887
_cell_length_b       11.785
_cell_length_c       12.143
_cell_angle_alpha    61.353
_cell_angle_beta     71.009
_cell_angle_gamma    74.31

_symmetry_space_group_name_H-M    "P 1"
_symmetry_Int_Tables_number       1

loop_
  _symmetry_equiv_pos_as_xyz
  'x, y, z'

loop_
  _atom_site_type_symbol
  _atom_site_label
  _atom_site_symmetry_multiplicity
  _atom_site_fract_x
  _atom_site_fract_y
  _atom_site_fract_z
  _atom_site_occupancy
  _atom_site_charge
U   U1        1.0  0.84908  0.21660  0.67615  1.0000 1.6904856645
U   U2        1.0  0.15092  0.78340  0.32385  1.0000 1.6774606191
H   H1        1.0  0.44567  0.46514  0.83222  1.0000 0.1497491681
H   H2        1.0  0.50293  0.41758  0.95867  1.0000 0.1357437509
H   H3        1.0  0.17825  0.45554  0.86947  1.0000 0.1357437509
H   H4        1.0  0.98552  0.34864  0.05950  1.0000 0.1357437509
H   H5        1.0  0.35872  0.22871  0.17060  1.0000 0.1205913134
H   H6        1.0  0.00527  0.13916  0.28755  1.0000 0.1497491681
H   H7        1.0  0.15030  0.11000  0.33333  1.0000 0.1357437509
H   H8        1.0  0.83366  0.55317  0.45807  1.0000 0.1205913134
H   H9        1.0  0.67297  0.57904  0.53716  1.0000 0.1555557333
H   H10       1.0  0.49349  0.77522  0.40563  1.0000 0.1357437509
H   H11       1.0  0.52891  0.95252  0.18384  1.0000 0.1357437509
H   H12       1.0  0.89841  0.70614  0.21437  1.0000 0.1205913134
H   H13       1.0  0.88958  0.88125  0.98995  1.0000 0.130570861
H   H14       1.0  0.73258  0.95423  0.96667  1.0000 0.130570861
H   H15       1.0  0.55433  0.53486  0.16778  1.0000 0.1497491681
H   H16       1.0  0.49707  0.58242  0.04133  1.0000 0.1357437509
H   H17       1.0  0.82175  0.54446  0.13053  1.0000 0.1357437509
H   H18       1.0  0.01448  0.65136  0.94050  1.0000 0.1357437509
H   H19       1.0  0.64128  0.77129  0.82940  1.0000 0.1205913134
H   H20       1.0  0.99473  0.86084  0.71245  1.0000 0.1497491681
H   H21       1.0  0.84970  0.89000  0.66667  1.0000 0.130570861
H   H22       1.0  0.16634  0.44683  0.54193  1.0000 0.1205913134
H   H23       1.0  0.32703  0.42096  0.46284  1.0000 0.1555557333
H   H24       1.0  0.50651  0.22478  0.59437  1.0000 0.1357437509
H   H25       1.0  0.47109  0.04748  0.81616  1.0000 0.1357437509
H   H26       1.0  0.10159  0.29386  0.78563  1.0000 0.1205913134
H   H27       1.0  0.11042  0.11875  0.01005  1.0000 0.130570861
H   H28       1.0  0.26742  0.04577  0.03333  1.0000 0.130570861
C   C1        1.0  0.68720  0.46650  0.44360  1.0000 0.6391837679
C   C2        1.0  0.55870  0.27730  0.88820  1.0000 0.6173114859
C   C3        1.0  0.45790  0.38990  0.91520  1.0000 -0.2896830208
C   C4        1.0  0.18970  0.39650  0.95420  1.0000 -0.1199409805
C   C5        1.0  0.08490  0.33780  0.05760  1.0000 -0.1044510185
C   C6        1.0  0.28970  0.27190  0.11900  1.0000 0.016699503
C   C7        1.0  0.07800  0.18060  0.29040  1.0000 -0.283816985
C   C8        1.0  0.00400  0.25600  0.37090  1.0000 0.6291010164
C   C9        1.0  0.73050  0.57440  0.45540  1.0000 -0.2896830208
C   C10       1.0  0.57910  0.78400  0.33900  1.0000 -0.1044510185
C   C11       1.0  0.59820  0.88000  0.21830  1.0000 -0.0796034552
C   C12       1.0  0.80170  0.74530  0.23420  1.0000 0.033872486
C   C13       1.0  0.80130  0.93270  0.01990  1.0000 -0.299833975
C   C14       1.0  0.84040  0.05900  0.99980  1.0000 0.6391837679
C   C15       1.0  0.31280  0.53350  0.55640  1.0000 0.6391837679
C   C16       1.0  0.44130  0.72270  0.11180  1.0000 0.6173114859
C   C17       1.0  0.54210  0.61010  0.08480  1.0000 -0.2896830208
C   C18       1.0  0.81030  0.60350  0.04580  1.0000 -0.1199409805
C   C19       1.0  0.91510  0.66220  0.94240  1.0000 -0.1044510185
C   C20       1.0  0.71030  0.72810  0.88100  1.0000 0.016699503
C   C21       1.0  0.92200  0.81940  0.70960  1.0000 -0.283816985
C   C22       1.0  0.99600  0.74400  0.62910  1.0000 0.6291010164
C   C23       1.0  0.26950  0.42560  0.54460  1.0000 -0.2896830208
C   C24       1.0  0.42090  0.21600  0.66100  1.0000 -0.1044510185
C   C25       1.0  0.40180  0.12000  0.78170  1.0000 -0.0796034552
C   C26       1.0  0.19830  0.25470  0.76580  1.0000 0.033872486
C   C27       1.0  0.19870  0.06730  0.98010  1.0000 -0.299833975
C   C28       1.0  0.15960  0.94100  0.00020  1.0000 0.6391837679
N   N1        1.0  0.31630  0.35380  0.99580  1.0000 0.0769419678
N   N2        1.0  0.14970  0.25970  0.15910  1.0000 0.0698302806
N   N3        1.0  0.70740  0.70100  0.34730  1.0000 0.0902141415
N   N4        1.0  0.73710  0.85360  0.15420  1.0000 0.0985737302
N   N5        1.0  0.68370  0.64620  0.00420  1.0000 0.0769419678
N   N6        1.0  0.85030  0.74030  0.84090  1.0000 0.0698302806
N   N7        1.0  0.29260  0.29900  0.65270  1.0000 0.0902141415
N   N8        1.0  0.26290  0.14640  0.84580  1.0000 0.0985737302
O   O1        1.0  0.89470  0.13200  0.88390  1.0000 -0.6959177322
O   O2        1.0  0.66560  0.31900  0.79200  1.0000 -0.6595961171
O   O3        1.0  0.70150  0.35330  0.53520  1.0000 -0.6595961171
O   O4        1.0  0.95250  0.18070  0.48780  1.0000 -0.6959177322
O   O5        1.0  0.53450  0.16500  0.95560  1.0000 -0.547850541
O   O6        1.0  0.99440  0.37480  0.32400  1.0000 -0.5575913108
O   O7        1.0  0.63990  0.49260  0.35090  1.0000 -0.5419533767
O   O8        1.0  0.82330  0.08130  0.09300  1.0000 -0.5575913108
O   O9        1.0  0.10530  0.86800  0.11610  1.0000 -0.6959177322
O   O10       1.0  0.33440  0.68100  0.20800  1.0000 -0.6595961171
O   O11       1.0  0.29850  0.64670  0.46480  1.0000 -0.6541028537
O   O12       1.0  0.04750  0.81930  0.51220  1.0000 -0.6959177322
O   O13       1.0  0.46550  0.83500  0.04440  1.0000 -0.547850541
O   O14       1.0  0.00560  0.62520  0.67600  1.0000 -0.5575913108
O   O15       1.0  0.36010  0.50740  0.64910  1.0000 -0.5419533767
O   O16       1.0  0.17670  0.91870  0.90700  1.0000 -0.5575913108
