# DDEC6 charges by PACMAN v1.1 (https://github.com/mtap-research/PACMAN-charge/)
data_2017[Zn][raa]3[ASR]2
_chemical_formula_sum              "Zn8 H64 C56 N48"
_cell_length_a       10.8619
_cell_length_b       12.4407
_cell_length_c       19.1793
_cell_angle_alpha    90
_cell_angle_beta     119.849
_cell_angle_gamma    90

_symmetry_space_group_name_H-M    "P 1"
_symmetry_Int_Tables_number       1

loop_
  _symmetry_equiv_pos_as_xyz
  'x, y, z'

loop_
  _atom_site_type_symbol
  _atom_site_label
  _atom_site_symmetry_multiplicity
  _atom_site_fract_x
  _atom_site_fract_y
  _atom_site_fract_z
  _atom_site_occupancy
  _atom_site_charge
Zn  Zn1       1.0  0.86966  0.73539  0.59663  1.0000 0.6780840138
Zn  Zn2       1.0  0.24915  0.74259  0.46162  1.0000 0.6780840138
Zn  Zn3       1.0  0.13034  0.23539  0.90337  1.0000 0.6780840138
Zn  Zn4       1.0  0.75085  0.24259  0.03838  1.0000 0.6780840138
Zn  Zn5       1.0  0.13034  0.26461  0.40337  1.0000 0.6780840138
Zn  Zn6       1.0  0.75085  0.25741  0.53838  1.0000 0.6780840138
Zn  Zn7       1.0  0.86966  0.76461  0.09663  1.0000 0.6780840138
Zn  Zn8       1.0  0.24915  0.75741  0.96162  1.0000 0.6780840138
H   H1        1.0  0.13020  0.63200  0.21150  1.0000 0.1606751867
H   H2        1.0  0.26920  0.67480  0.28980  1.0000 0.1606751867
H   H3        1.0  0.16910  0.58770  0.29840  1.0000 0.1679567674
H   H4        1.0  0.88510  0.95000  0.35670  1.0000 0.1606751867
H   H5        1.0  0.04870  0.98390  0.40010  1.0000 0.1523931453
H   H6        1.0  0.18390  0.67640  0.66570  1.0000 0.1606751867
H   H7        1.0  0.24700  0.63880  0.61000  1.0000 0.1606751867
H   H8        1.0  0.30720  0.74460  0.66400  1.0000 0.1679567674
H   H9        1.0  0.67340  0.99320  0.67400  1.0000 0.1679567674
H   H10       1.0  0.81000  0.92350  0.69230  1.0000 0.1523931453
H   H11       1.0  0.75220  0.01320  0.62350  1.0000 0.1523931453
H   H12       1.0  0.45410  0.62850  0.42620  1.0000 0.1523931453
H   H13       1.0  0.56430  0.69150  0.40890  1.0000 0.1606751867
H   H14       1.0  0.01710  0.38890  0.63020  1.0000 0.1606751867
H   H15       1.0  0.06010  0.48810  0.59350  1.0000 0.1606751867
H   H16       1.0  0.03910  0.50570  0.66960  1.0000 0.1606751867
H   H17       1.0  0.86980  0.13200  0.28850  1.0000 0.1606751867
H   H18       1.0  0.73080  0.17480  0.21020  1.0000 0.1606751867
H   H19       1.0  0.83090  0.08770  0.20160  1.0000 0.1679567674
H   H20       1.0  0.11490  0.45000  0.14330  1.0000 0.1606751867
H   H21       1.0  0.95130  0.48390  0.09990  1.0000 0.1523931453
H   H22       1.0  0.81610  0.17640  0.83430  1.0000 0.1606751867
H   H23       1.0  0.75300  0.13880  0.89000  1.0000 0.1606751867
H   H24       1.0  0.69280  0.24460  0.83600  1.0000 0.1679567674
H   H25       1.0  0.32660  0.49320  0.82600  1.0000 0.1679567674
H   H26       1.0  0.19000  0.42350  0.80770  1.0000 0.1523931453
H   H27       1.0  0.24780  0.51320  0.87650  1.0000 0.1523931453
H   H28       1.0  0.54590  0.12850  0.07380  1.0000 0.1523931453
H   H29       1.0  0.43570  0.19150  0.09110  1.0000 0.1606751867
H   H30       1.0  0.98290  0.88890  0.86980  1.0000 0.1606751867
H   H31       1.0  0.93990  0.98810  0.90650  1.0000 0.1606751867
H   H32       1.0  0.96090  0.00570  0.83040  1.0000 0.1606751867
H   H33       1.0  0.86980  0.36800  0.78850  1.0000 0.1606751867
H   H34       1.0  0.73080  0.32520  0.71020  1.0000 0.1606751867
H   H35       1.0  0.83090  0.41230  0.70160  1.0000 0.1679567674
H   H36       1.0  0.11490  0.05000  0.64330  1.0000 0.1606751867
H   H37       1.0  0.95130  0.01610  0.59990  1.0000 0.1523931453
H   H38       1.0  0.81610  0.32360  0.33430  1.0000 0.1606751867
H   H39       1.0  0.75300  0.36120  0.39000  1.0000 0.1606751867
H   H40       1.0  0.69280  0.25540  0.33600  1.0000 0.1679567674
H   H41       1.0  0.32660  0.00680  0.32600  1.0000 0.1679567674
H   H42       1.0  0.19000  0.07650  0.30770  1.0000 0.1523931453
H   H43       1.0  0.24780  0.98680  0.37650  1.0000 0.1523931453
H   H44       1.0  0.54590  0.37150  0.57380  1.0000 0.1523931453
H   H45       1.0  0.43570  0.30850  0.59110  1.0000 0.1606751867
H   H46       1.0  0.98290  0.61110  0.36980  1.0000 0.1606751867
H   H47       1.0  0.93990  0.51190  0.40650  1.0000 0.1606751867
H   H48       1.0  0.96090  0.49430  0.33040  1.0000 0.1606751867
H   H49       1.0  0.13020  0.86800  0.71150  1.0000 0.1606751867
H   H50       1.0  0.26920  0.82520  0.78980  1.0000 0.1606751867
H   H51       1.0  0.16910  0.91230  0.79840  1.0000 0.1679567674
H   H52       1.0  0.88510  0.55000  0.85670  1.0000 0.1606751867
H   H53       1.0  0.04870  0.51610  0.90010  1.0000 0.1523931453
H   H54       1.0  0.18390  0.82360  0.16570  1.0000 0.1606751867
H   H55       1.0  0.24700  0.86120  0.11000  1.0000 0.1606751867
H   H56       1.0  0.30720  0.75540  0.16400  1.0000 0.1679567674
H   H57       1.0  0.67340  0.50680  0.17400  1.0000 0.1679567674
H   H58       1.0  0.81000  0.57650  0.19230  1.0000 0.1523931453
H   H59       1.0  0.75220  0.48680  0.12350  1.0000 0.1523931453
H   H60       1.0  0.45410  0.87150  0.92620  1.0000 0.1523931453
H   H61       1.0  0.56430  0.80850  0.90890  1.0000 0.1606751867
H   H62       1.0  0.01710  0.11110  0.13020  1.0000 0.1606751867
H   H63       1.0  0.06010  0.01190  0.09350  1.0000 0.1606751867
H   H64       1.0  0.03910  0.99430  0.16960  1.0000 0.1606751867
C   C1        1.0  0.17080  0.65080  0.26830  1.0000 -0.5327848663
C   C2        1.0  0.08610  0.73900  0.27660  1.0000 0.3929007331
C   C3        1.0  0.00340  0.85390  0.32510  1.0000 0.3548434356
C   C4        1.0  0.98340  0.92170  0.38400  1.0000 -0.3729949912
C   C5        1.0  0.00950  0.86190  0.45790  1.0000 0.3548434356
C   C6        1.0  0.11320  0.76730  0.56420  1.0000 0.4063582102
C   C7        1.0  0.22220  0.70110  0.63180  1.0000 -0.5327848663
C   C8        1.0  0.72480  0.95880  0.65010  1.0000 -0.5164766928
C   C9        1.0  0.63200  0.87770  0.59040  1.0000 0.4004934819
C   C10       1.0  0.55800  0.74830  0.50660  1.0000 0.3619320472
C   C11       1.0  0.55050  0.66030  0.45200  1.0000 -0.3822663149
C   C12       1.0  0.65670  0.57250  0.49230  1.0000 0.3619320472
C   C13       1.0  0.85200  0.49070  0.56420  1.0000 0.4004934819
C   C14       1.0  0.00520  0.46620  0.61910  1.0000 -0.5411212763
C   C15       1.0  0.82920  0.15080  0.23170  1.0000 -0.5327848663
C   C16       1.0  0.91390  0.23900  0.22340  1.0000 0.3929007331
C   C17       1.0  0.99660  0.35390  0.17490  1.0000 0.3619320472
C   C18       1.0  0.01660  0.42170  0.11600  1.0000 -0.3729949912
C   C19       1.0  0.99050  0.36190  0.04210  1.0000 0.3548434356
C   C20       1.0  0.88680  0.26730  0.93580  1.0000 0.4063582102
C   C21       1.0  0.77780  0.20110  0.86820  1.0000 -0.5327848663
C   C22       1.0  0.27520  0.45880  0.84990  1.0000 -0.5164766928
C   C23       1.0  0.36800  0.37770  0.90960  1.0000 0.4004934819
C   C24       1.0  0.44200  0.24830  0.99340  1.0000 0.3619320472
C   C25       1.0  0.44950  0.16030  0.04800  1.0000 -0.3822663149
C   C26       1.0  0.34330  0.07250  0.00770  1.0000 0.3619320472
C   C27       1.0  0.14800  0.99070  0.93580  1.0000 0.4004934819
C   C28       1.0  0.99480  0.96620  0.88090  1.0000 -0.5411212763
C   C29       1.0  0.82920  0.34920  0.73170  1.0000 -0.5327848663
C   C30       1.0  0.91390  0.26100  0.72340  1.0000 0.3929007331
C   C31       1.0  0.99660  0.14610  0.67490  1.0000 0.3548434356
C   C32       1.0  0.01660  0.07830  0.61600  1.0000 -0.3729949912
C   C33       1.0  0.99050  0.13810  0.54210  1.0000 0.3548434356
C   C34       1.0  0.88680  0.23270  0.43580  1.0000 0.4063582102
C   C35       1.0  0.77780  0.29890  0.36820  1.0000 -0.5327848663
C   C36       1.0  0.27520  0.04120  0.34990  1.0000 -0.5164766928
C   C37       1.0  0.36800  0.12230  0.40960  1.0000 0.4004934819
C   C38       1.0  0.44200  0.25170  0.49340  1.0000 0.3619320472
C   C39       1.0  0.44950  0.33970  0.54800  1.0000 -0.3822663149
C   C40       1.0  0.34330  0.42750  0.50770  1.0000 0.3619320472
C   C41       1.0  0.14800  0.50930  0.43580  1.0000 0.4004934819
C   C42       1.0  0.99480  0.53380  0.38090  1.0000 -0.5411212763
C   C43       1.0  0.17080  0.84920  0.76830  1.0000 -0.5327848663
C   C44       1.0  0.08610  0.76100  0.77660  1.0000 0.3929007331
C   C45       1.0  0.00340  0.64610  0.82510  1.0000 0.3548434356
C   C46       1.0  0.98340  0.57830  0.88400  1.0000 -0.3729949912
C   C47       1.0  0.00950  0.63810  0.95790  1.0000 0.3548434356
C   C48       1.0  0.11320  0.73270  0.06420  1.0000 0.4063582102
C   C49       1.0  0.22220  0.79890  0.13180  1.0000 -0.5327848663
C   C50       1.0  0.72480  0.54120  0.15010  1.0000 -0.5164766928
C   C51       1.0  0.63200  0.62230  0.09040  1.0000 0.4004934819
C   C52       1.0  0.55800  0.75170  0.00660  1.0000 0.3619320472
C   C53       1.0  0.55050  0.83970  0.95200  1.0000 -0.3822663149
C   C54       1.0  0.65670  0.92750  0.99230  1.0000 0.3619320472
C   C55       1.0  0.85200  0.00930  0.06420  1.0000 0.4004934819
C   C56       1.0  0.00520  0.03380  0.11910  1.0000 -0.5411212763
N   N1        1.0  0.67758  0.79980  0.55848  1.0000 -0.4343363886
N   N2        1.0  0.49330  0.87540  0.56070  1.0000 -0.2905628461
N   N3        1.0  0.44633  0.79120  0.50633  1.0000 -0.2805273553
N   N4        1.0  0.79718  0.59070  0.54488  1.0000 -0.4433362206
N   N5        1.0  0.62447  0.46990  0.47867  1.0000 -0.2905628461
N   N6        1.0  0.75233  0.41690  0.52613  1.0000 -0.2905628461
N   N7        1.0  0.98958  0.79770  0.55528  1.0000 -0.2905628461
N   N8        1.0  0.92051  0.85900  0.48551  1.0000 -0.2905628461
N   N9        1.0  0.13127  0.80560  0.50457  1.0000 -0.4343363886
N   N10       1.0  0.10936  0.78070  0.34676  1.0000 -0.451369079
N   N11       1.0  0.91998  0.86020  0.24698  1.0000 -0.2905628461
N   N12       1.0  0.97470  0.78460  0.21580  1.0000 -0.2905628461
N   N13       1.0  0.32242  0.29980  0.94152  1.0000 -0.4343363886
N   N14       1.0  0.50670  0.37540  0.93930  1.0000 -0.2905628461
N   N15       1.0  0.55367  0.29120  0.99367  1.0000 -0.2805273553
N   N16       1.0  0.20282  0.09070  0.95512  1.0000 -0.4433362206
N   N17       1.0  0.37553  0.96990  0.02133  1.0000 -0.2905628461
N   N18       1.0  0.24767  0.91690  0.97387  1.0000 -0.2805273553
N   N19       1.0  0.01042  0.29770  0.94472  1.0000 -0.2905628461
N   N20       1.0  0.07949  0.35900  0.01449  1.0000 -0.2905628461
N   N21       1.0  0.86873  0.30560  0.99543  1.0000 -0.4343363886
N   N22       1.0  0.89064  0.28070  0.15324  1.0000 -0.451369079
N   N23       1.0  0.08002  0.36020  0.25302  1.0000 -0.2905628461
N   N24       1.0  0.02530  0.28460  0.28420  1.0000 -0.2905628461
N   N25       1.0  0.32242  0.20020  0.44152  1.0000 -0.4343363886
N   N26       1.0  0.50670  0.12460  0.43930  1.0000 -0.2905628461
N   N27       1.0  0.55367  0.20880  0.49367  1.0000 -0.2805273553
N   N28       1.0  0.20282  0.40930  0.45512  1.0000 -0.4433362206
N   N29       1.0  0.37553  0.53010  0.52133  1.0000 -0.2905628461
N   N30       1.0  0.24767  0.58310  0.47387  1.0000 -0.2805273553
N   N31       1.0  0.01042  0.20230  0.44472  1.0000 -0.2905628461
N   N32       1.0  0.07949  0.14100  0.51449  1.0000 -0.2905628461
N   N33       1.0  0.86873  0.19440  0.49543  1.0000 -0.4343363886
N   N34       1.0  0.89064  0.21930  0.65324  1.0000 -0.451369079
N   N35       1.0  0.08002  0.13980  0.75302  1.0000 -0.2905628461
N   N36       1.0  0.02530  0.21540  0.78420  1.0000 -0.2905628461
N   N37       1.0  0.67758  0.70020  0.05848  1.0000 -0.4343363886
N   N38       1.0  0.49330  0.62460  0.06070  1.0000 -0.2905628461
N   N39       1.0  0.44633  0.70880  0.00633  1.0000 -0.2805273553
N   N40       1.0  0.79718  0.90930  0.04488  1.0000 -0.4433362206
N   N41       1.0  0.62447  0.03010  0.97867  1.0000 -0.2905628461
N   N42       1.0  0.75233  0.08310  0.02613  1.0000 -0.2905628461
N   N43       1.0  0.98958  0.70230  0.05528  1.0000 -0.2905628461
N   N44       1.0  0.92051  0.64100  0.98551  1.0000 -0.2905628461
N   N45       1.0  0.13127  0.69440  0.00457  1.0000 -0.4343363886
N   N46       1.0  0.10936  0.71930  0.84676  1.0000 -0.451369079
N   N47       1.0  0.91998  0.63980  0.74698  1.0000 -0.2905628461
N   N48       1.0  0.97470  0.71540  0.71580  1.0000 -0.2905628461
