# DDEC6 charges by PACMAN v1.1 (https://github.com/mtap-research/PACMAN-charge/)
data_2017[Ag][hcb]2[ASR]9
_chemical_formula_sum              "Ag2 H42 C54 N6 O12"
_cell_length_a       9.2303
_cell_length_b       13.093
_cell_length_c       16.287
_cell_angle_alpha    107.974
_cell_angle_beta     101.203
_cell_angle_gamma    103.14

_symmetry_space_group_name_H-M    "P 1"
_symmetry_Int_Tables_number       1

loop_
  _symmetry_equiv_pos_as_xyz
  'x, y, z'

loop_
  _atom_site_type_symbol
  _atom_site_label
  _atom_site_symmetry_multiplicity
  _atom_site_fract_x
  _atom_site_fract_y
  _atom_site_fract_z
  _atom_site_occupancy
  _atom_site_charge
Ag  Ag1       1.0  0.44437  0.11123  0.68374  1.0000 0.2199973976
Ag  Ag2       1.0  0.55563  0.88877  0.31626  1.0000 0.2199973976
H   H1        1.0  0.66450  0.01940  0.80290  1.0000 0.1001700988
H   H2        1.0  0.77330  0.87260  0.78970  1.0000 0.1370055368
H   H3        1.0  0.51700  0.72240  0.52910  1.0000 0.1171366414
H   H4        1.0  0.40890  0.87140  0.55090  1.0000 0.088264955
H   H5        1.0  0.87900  0.56550  0.57120  1.0000 0.1103770075
H   H6        1.0  0.72740  0.48070  0.57560  1.0000 0.1103770075
H   H7        1.0  0.67880  0.33080  0.83760  1.0000 0.088264955
H   H8        1.0  0.72640  0.44850  0.98600  1.0000 0.1315651917
H   H9        1.0  0.30450  0.27180  0.98250  1.0000 0.1315651917
H   H10       1.0  0.26030  0.17150  0.82950  1.0000 0.1001700988
H   H11       1.0  0.51920  0.54670  0.24080  1.0000 0.1001700988
H   H12       1.0  0.37550  0.45370  0.24320  1.0000 0.1103770075
H   H13       1.0  0.25420  0.96000  0.47540  1.0000 0.088264955
H   H14       1.0  0.07100  0.95830  0.35650  1.0000 0.1315651917
H   H15       1.0  0.05860  0.25980  0.51490  1.0000 0.1315651917
H   H16       1.0  0.24130  0.25320  0.63030  1.0000 0.1001700988
H   H17       1.0  0.86350  0.23640  0.24580  1.0000 0.1171366414
H   H18       1.0  0.71440  0.15130  0.25220  1.0000 0.1001700988
H   H19       1.0  0.58400  0.55590  0.40440  1.0000 0.1103770075
H   H20       1.0  0.62150  0.30410  0.19940  1.0000 0.1171366414
H   H21       1.0  0.84840  0.36200  0.45680  1.0000 0.1103770075
H   H22       1.0  0.33550  0.98060  0.19710  1.0000 0.1001700988
H   H23       1.0  0.22670  0.12740  0.21030  1.0000 0.1370055368
H   H24       1.0  0.48300  0.27760  0.47090  1.0000 0.1171366414
H   H25       1.0  0.59110  0.12860  0.44910  1.0000 0.088264955
H   H26       1.0  0.12100  0.43450  0.42880  1.0000 0.1103770075
H   H27       1.0  0.27260  0.51930  0.42440  1.0000 0.1103770075
H   H28       1.0  0.32120  0.66920  0.16240  1.0000 0.088264955
H   H29       1.0  0.27360  0.55150  0.01400  1.0000 0.1315651917
H   H30       1.0  0.69550  0.72820  0.01750  1.0000 0.1315651917
H   H31       1.0  0.73970  0.82850  0.17050  1.0000 0.1001700988
H   H32       1.0  0.48080  0.45330  0.75920  1.0000 0.1001700988
H   H33       1.0  0.62450  0.54630  0.75680  1.0000 0.1103770075
H   H34       1.0  0.74580  0.04000  0.52460  1.0000 0.088264955
H   H35       1.0  0.92900  0.04170  0.64350  1.0000 0.1315651917
H   H36       1.0  0.94140  0.74020  0.48510  1.0000 0.1315651917
H   H37       1.0  0.75870  0.74680  0.36970  1.0000 0.1001700988
H   H38       1.0  0.13650  0.76360  0.75420  1.0000 0.1171366414
H   H39       1.0  0.28560  0.84870  0.74780  1.0000 0.1001700988
H   H40       1.0  0.41600  0.44410  0.59560  1.0000 0.1103770075
H   H41       1.0  0.37850  0.69590  0.80060  1.0000 0.1171366414
H   H42       1.0  0.15160  0.63800  0.54320  1.0000 0.1103770075
C   C1        1.0  0.63340  0.95810  0.74670  1.0000 0.0511501087
C   C2        1.0  0.70010  0.87170  0.73940  1.0000 -0.167165936
C   C3        1.0  0.65650  0.78350  0.65600  1.0000 0.0032101553
C   C4        1.0  0.54890  0.78230  0.58600  1.0000 -0.1614173834
C   C5        1.0  0.48520  0.87250  0.59980  1.0000 0.0511501087
C   C6        1.0  0.73380  0.69310  0.64830  1.0000 0.4910558304
C   C7        1.0  0.76480  0.53310  0.54620  1.0000 -0.0886259374
C   C8        1.0  0.60110  0.31930  0.86730  1.0000 0.0445790393
C   C9        1.0  0.63160  0.38870  0.95640  1.0000 -0.1614173834
C   C10       1.0  0.52270  0.36970  0.00140  1.0000 -0.0010864465
C   C11       1.0  0.38300  0.28670  0.95390  1.0000 -0.1614173834
C   C12       1.0  0.35930  0.22500  0.86310  1.0000 0.0689971401
C   C13       1.0  0.55980  0.44050  0.10020  1.0000 0.4910558304
C   C14       1.0  0.47650  0.46550  0.22940  1.0000 -0.0886259374
C   C15       1.0  0.21390  0.02180  0.48330  1.0000 0.0318773566
C   C16       1.0  0.10550  0.02040  0.41230  1.0000 -0.167165936
C   C17       1.0  0.04640  0.11010  0.42250  1.0000 0.0032101553
C   C18       1.0  0.09790  0.19740  0.50530  1.0000 -0.1818951378
C   C19       1.0  0.20670  0.19260  0.57360  1.0000 0.0576422801
C   C20       1.0  0.93570  0.11260  0.34260  1.0000 0.4910558304
C   C21       1.0  0.80260  0.22100  0.28680  1.0000 -0.0886259374
C   C22       1.0  0.72210  0.47070  0.44580  1.0000 0.088264955
C   C23       1.0  0.62500  0.49550  0.38380  1.0000 -0.2266032352
C   C24       1.0  0.58580  0.43370  0.29140  1.0000 0.1001700988
C   C25       1.0  0.64590  0.34610  0.26200  1.0000 -0.2143016988
C   C26       1.0  0.74300  0.31850  0.32420  1.0000 0.1001700988
C   C27       1.0  0.78170  0.38020  0.41500  1.0000 -0.2379511008
C   C28       1.0  0.36660  0.04190  0.25330  1.0000 0.0511501087
C   C29       1.0  0.29990  0.12830  0.26060  1.0000 -0.167165936
C   C30       1.0  0.34350  0.21650  0.34400  1.0000 0.0032101553
C   C31       1.0  0.45110  0.21770  0.41400  1.0000 -0.1614173834
C   C32       1.0  0.51480  0.12750  0.40020  1.0000 0.0511501087
C   C33       1.0  0.26620  0.30690  0.35170  1.0000 0.4910558304
C   C34       1.0  0.23520  0.46690  0.45380  1.0000 -0.0886259374
C   C35       1.0  0.39890  0.68070  0.13270  1.0000 0.0445790393
C   C36       1.0  0.36840  0.61130  0.04360  1.0000 -0.1614173834
C   C37       1.0  0.47730  0.63030  0.99860  1.0000 -0.0010864465
C   C38       1.0  0.61700  0.71330  0.04610  1.0000 -0.1614173834
C   C39       1.0  0.64070  0.77500  0.13690  1.0000 0.0689971401
C   C40       1.0  0.44020  0.55950  0.89980  1.0000 0.4910558304
C   C41       1.0  0.52350  0.53450  0.77060  1.0000 -0.0886259374
C   C42       1.0  0.78610  0.97820  0.51670  1.0000 0.0318773566
C   C43       1.0  0.89450  0.97960  0.58770  1.0000 -0.167165936
C   C44       1.0  0.95360  0.88990  0.57750  1.0000 0.0032101553
C   C45       1.0  0.90210  0.80260  0.49470  1.0000 -0.1818951378
C   C46       1.0  0.79330  0.80740  0.42640  1.0000 0.0576422801
C   C47       1.0  0.06430  0.88740  0.65740  1.0000 0.4910558304
C   C48       1.0  0.19740  0.77900  0.71320  1.0000 -0.0886259374
C   C49       1.0  0.27790  0.52930  0.55420  1.0000 0.1001700988
C   C50       1.0  0.37500  0.50450  0.61620  1.0000 -0.2266032352
C   C51       1.0  0.41420  0.56630  0.70860  1.0000 0.1001700988
C   C52       1.0  0.35410  0.65390  0.73800  1.0000 -0.2143016988
C   C53       1.0  0.25700  0.68150  0.67580  1.0000 0.1001700988
C   C54       1.0  0.21830  0.61980  0.58500  1.0000 -0.2379511008
N   N1        1.0  0.52670  0.95880  0.67780  1.0000 -0.1999454582
N   N2        1.0  0.46830  0.23750  0.82170  1.0000 -0.1999454582
N   N3        1.0  0.26610  0.10750  0.56430  1.0000 -0.1999454582
N   N4        1.0  0.47330  0.04120  0.32220  1.0000 -0.1999454582
N   N5        1.0  0.53170  0.76250  0.17830  1.0000 -0.1999454582
N   N6        1.0  0.73390  0.89250  0.43570  1.0000 -0.1999454582
O   O1        1.0  0.82080  0.68660  0.71030  1.0000 -0.4596100161
O   O2        1.0  0.69440  0.62140  0.56300  1.0000 -0.2266032352
O   O3        1.0  0.67120  0.52160  0.13850  1.0000 -0.4519465277
O   O4        1.0  0.45150  0.40100  0.13560  1.0000 -0.2266032352
O   O5        1.0  0.88880  0.03680  0.26970  1.0000 -0.4942435036
O   O6        1.0  0.89970  0.20670  0.36130  1.0000 -0.2266032352
O   O7        1.0  0.17920  0.31340  0.28970  1.0000 -0.4596100161
O   O8        1.0  0.30560  0.37860  0.43700  1.0000 -0.2266032352
O   O9        1.0  0.32880  0.47840  0.86150  1.0000 -0.4519465277
O   O10       1.0  0.54850  0.59900  0.86440  1.0000 -0.2266032352
O   O11       1.0  0.11120  0.96320  0.73030  1.0000 -0.4942435036
O   O12       1.0  0.10030  0.79330  0.63870  1.0000 -0.2266032352
