# DDEC6 charges by PACMAN v1.1 (https://github.com/mtap-research/PACMAN-charge/)
data_2017[Co][pcu]2[ASR]3
_chemical_formula_sum              "Co8 H88 C144 N56 O48"
_cell_length_a       10.0364
_cell_length_b       19.714
_cell_length_c       20.177
_cell_angle_alpha    90
_cell_angle_beta     90
_cell_angle_gamma    90

_symmetry_space_group_name_H-M    "P 1"
_symmetry_Int_Tables_number       1

loop_
  _symmetry_equiv_pos_as_xyz
  'x, y, z'

loop_
  _atom_site_type_symbol
  _atom_site_label
  _atom_site_symmetry_multiplicity
  _atom_site_fract_x
  _atom_site_fract_y
  _atom_site_fract_z
  _atom_site_occupancy
  _atom_site_charge
Co  Co1       1.0  0.92310  0.95902  0.05747  1.0000 0.8418489181
Co  Co2       1.0  0.91656  0.55506  0.56136  1.0000 0.8418489181
Co  Co3       1.0  0.07690  0.45902  0.44253  1.0000 0.8418489181
Co  Co4       1.0  0.08344  0.05506  0.93864  1.0000 0.8418489181
Co  Co5       1.0  0.57690  0.04098  0.55747  1.0000 0.8418489181
Co  Co6       1.0  0.58344  0.44494  0.06136  1.0000 0.8418489181
Co  Co7       1.0  0.42310  0.54098  0.94253  1.0000 0.8418489181
Co  Co8       1.0  0.41656  0.94494  0.43864  1.0000 0.8418489181
H   H1        1.0  0.09670  0.87030  0.95230  1.0000 0.1313147387
H   H2        1.0  0.77310  0.81570  0.05050  1.0000 0.1209852352
H   H3        1.0  0.82740  0.72170  0.97590  1.0000 0.1398922594
H   H4        1.0  0.89190  0.68600  0.86740  1.0000 0.1615824819
H   H5        1.0  0.30450  0.76120  0.80610  1.0000 0.0916100524
H   H6        1.0  0.82100  0.59080  0.80990  1.0000 0.1313147387
H   H7        1.0  0.75950  0.53560  0.70550  1.0000 0.1209852352
H   H8        1.0  0.08310  0.64450  0.66860  1.0000 0.1131018687
H   H9        1.0  0.06450  0.85550  0.15830  1.0000 0.1209852352
H   H10       1.0  0.78390  0.98820  0.20380  1.0000 0.1209852352
H   H11       1.0  0.82400  0.92120  0.30420  1.0000 0.1313147387
H   H12       1.0  0.88860  0.82370  0.36510  1.0000 0.1615824819
H   H13       1.0  0.25870  0.71880  0.28330  1.0000 0.0916100524
H   H14       1.0  0.07190  0.63190  0.44650  1.0000 0.1313147387
H   H15       1.0  0.79510  0.71010  0.56320  1.0000 0.1209852352
H   H16       1.0  0.84130  0.79520  0.47690  1.0000 0.1398922594
H   H17       1.0  0.46130  0.56120  0.57010  1.0000 0.1209852352
H   H18       1.0  0.60970  0.37410  0.60700  1.0000 0.1313147387
H   H19       1.0  0.21180  0.40330  0.60190  1.0000 0.1313147387
H   H20       1.0  0.45380  0.94880  0.06890  1.0000 0.1209852352
H   H21       1.0  0.22250  0.11280  0.10160  1.0000 0.1313147387
H   H22       1.0  0.62600  0.12870  0.11430  1.0000 0.1313147387
H   H23       1.0  0.90330  0.37030  0.54770  1.0000 0.1313147387
H   H24       1.0  0.22690  0.31570  0.44950  1.0000 0.1209852352
H   H25       1.0  0.17260  0.22170  0.52410  1.0000 0.1398922594
H   H26       1.0  0.10810  0.18600  0.63260  1.0000 0.1615824819
H   H27       1.0  0.69550  0.26120  0.69390  1.0000 0.0916100524
H   H28       1.0  0.17900  0.09080  0.69010  1.0000 0.1313147387
H   H29       1.0  0.24050  0.03560  0.79450  1.0000 0.1209852352
H   H30       1.0  0.91690  0.14450  0.83140  1.0000 0.1131018687
H   H31       1.0  0.93550  0.35550  0.34170  1.0000 0.1209852352
H   H32       1.0  0.21610  0.48820  0.29620  1.0000 0.1209852352
H   H33       1.0  0.17600  0.42120  0.19580  1.0000 0.1313147387
H   H34       1.0  0.11140  0.32370  0.13490  1.0000 0.1615824819
H   H35       1.0  0.74130  0.21880  0.21670  1.0000 0.0916100524
H   H36       1.0  0.92810  0.13190  0.05350  1.0000 0.1313147387
H   H37       1.0  0.20490  0.21010  0.93680  1.0000 0.1209852352
H   H38       1.0  0.15870  0.29520  0.02310  1.0000 0.1398922594
H   H39       1.0  0.53870  0.06120  0.92990  1.0000 0.1209852352
H   H40       1.0  0.39030  0.87410  0.89300  1.0000 0.1313147387
H   H41       1.0  0.78820  0.90330  0.89810  1.0000 0.1313147387
H   H42       1.0  0.54620  0.44880  0.43110  1.0000 0.1209852352
H   H43       1.0  0.77750  0.61280  0.39840  1.0000 0.1313147387
H   H44       1.0  0.37400  0.62870  0.38570  1.0000 0.1313147387
H   H45       1.0  0.40330  0.12970  0.45230  1.0000 0.1313147387
H   H46       1.0  0.72690  0.18430  0.55050  1.0000 0.1209852352
H   H47       1.0  0.67260  0.27830  0.47590  1.0000 0.1398922594
H   H48       1.0  0.60810  0.31400  0.36740  1.0000 0.1615824819
H   H49       1.0  0.19550  0.23880  0.30610  1.0000 0.0916100524
H   H50       1.0  0.67900  0.40920  0.30990  1.0000 0.1313147387
H   H51       1.0  0.74050  0.46440  0.20550  1.0000 0.1209852352
H   H52       1.0  0.41690  0.35550  0.16860  1.0000 0.1131018687
H   H53       1.0  0.43550  0.14450  0.65830  1.0000 0.1209852352
H   H54       1.0  0.71610  0.01180  0.70380  1.0000 0.1209852352
H   H55       1.0  0.67600  0.07880  0.80420  1.0000 0.1313147387
H   H56       1.0  0.61140  0.17630  0.86510  1.0000 0.1615824819
H   H57       1.0  0.24130  0.28120  0.78330  1.0000 0.0916100524
H   H58       1.0  0.42810  0.36810  0.94650  1.0000 0.1313147387
H   H59       1.0  0.70490  0.28990  0.06320  1.0000 0.1209852352
H   H60       1.0  0.65870  0.20480  0.97690  1.0000 0.1398922594
H   H61       1.0  0.03870  0.43880  0.07010  1.0000 0.1209852352
H   H62       1.0  0.89030  0.62590  0.10700  1.0000 0.1313147387
H   H63       1.0  0.28820  0.59670  0.10190  1.0000 0.1313147387
H   H64       1.0  0.04620  0.05120  0.56890  1.0000 0.1209852352
H   H65       1.0  0.27750  0.88720  0.60160  1.0000 0.1313147387
H   H66       1.0  0.87400  0.87130  0.61430  1.0000 0.1313147387
H   H67       1.0  0.59670  0.62970  0.04770  1.0000 0.1313147387
H   H68       1.0  0.27310  0.68430  0.94950  1.0000 0.1209852352
H   H69       1.0  0.32740  0.77830  0.02410  1.0000 0.1398922594
H   H70       1.0  0.39190  0.81400  0.13260  1.0000 0.1615824819
H   H71       1.0  0.80450  0.73880  0.19390  1.0000 0.0916100524
H   H72       1.0  0.32100  0.90920  0.19010  1.0000 0.1313147387
H   H73       1.0  0.25950  0.96440  0.29450  1.0000 0.1209852352
H   H74       1.0  0.58310  0.85550  0.33140  1.0000 0.1131018687
H   H75       1.0  0.56450  0.64450  0.84170  1.0000 0.1209852352
H   H76       1.0  0.28390  0.51180  0.79620  1.0000 0.1209852352
H   H77       1.0  0.32400  0.57880  0.69580  1.0000 0.1313147387
H   H78       1.0  0.38860  0.67630  0.63490  1.0000 0.1615824819
H   H79       1.0  0.75870  0.78120  0.71670  1.0000 0.0916100524
H   H80       1.0  0.57190  0.86810  0.55350  1.0000 0.1313147387
H   H81       1.0  0.29510  0.78990  0.43680  1.0000 0.1209852352
H   H82       1.0  0.34130  0.70480  0.52310  1.0000 0.1398922594
H   H83       1.0  0.96130  0.93880  0.42990  1.0000 0.1209852352
H   H84       1.0  0.10970  0.12590  0.39300  1.0000 0.1313147387
H   H85       1.0  0.71180  0.09670  0.39810  1.0000 0.1313147387
H   H86       1.0  0.95380  0.55120  0.93110  1.0000 0.1209852352
H   H87       1.0  0.72250  0.38720  0.89840  1.0000 0.1313147387
H   H88       1.0  0.12600  0.37130  0.88570  1.0000 0.1313147387
C   C1        1.0  0.02190  0.84510  0.96750  1.0000 0.1455821254
C   C2        1.0  0.84600  0.81470  0.02050  1.0000 -0.0284856477
C   C3        1.0  0.87470  0.76320  0.98010  1.0000 -0.1003918286
C   C4        1.0  0.04550  0.75100  0.88980  1.0000 0.3526378952
C   C5        1.0  0.97690  0.70240  0.85420  1.0000 -0.3276040471
C   C6        1.0  0.04140  0.67950  0.79800  1.0000 0.3587020345
C   C7        1.0  0.21830  0.74600  0.81860  1.0000 0.2432018247
C   C8        1.0  0.86590  0.59480  0.76860  1.0000 -0.0918623126
C   C9        1.0  0.83380  0.56480  0.71170  1.0000 -0.02182044
C   C10       1.0  0.00970  0.62380  0.69040  1.0000 0.1398922594
C   C11       1.0  0.99980  0.88070  0.18220  1.0000 0.1313147387
C   C12       1.0  0.84680  0.95240  0.20780  1.0000 -0.02182044
C   C13       1.0  0.86810  0.91620  0.26280  1.0000 -0.1003918286
C   C14       1.0  0.02390  0.81970  0.28790  1.0000 0.3526378952
C   C15       1.0  0.96590  0.80200  0.34810  1.0000 -0.3189631134
C   C16       1.0  0.03080  0.75030  0.38070  1.0000 0.3419226118
C   C17       1.0  0.18240  0.74120  0.30050  1.0000 0.2432018247
C   C18       1.0  0.00830  0.66190  0.46540  1.0000 0.1398922594
C   C19       1.0  0.85770  0.70520  0.52820  1.0000 -0.0284856477
C   C20       1.0  0.88240  0.75200  0.48140  1.0000 -0.0918623126
C   C21       1.0  0.20070  0.53610  0.57220  1.0000 0.5608854004
C   C22       1.0  0.31740  0.48950  0.58350  1.0000 -0.0072126071
C   C23       1.0  0.44720  0.51440  0.57930  1.0000 -0.1101632371
C   C24       1.0  0.55560  0.47200  0.58820  1.0000 0.0051578566
C   C25       1.0  0.53620  0.40400  0.60210  1.0000 -0.1423703052
C   C26       1.0  0.40720  0.38080  0.60860  1.0000 0.0645289653
C   C27       1.0  0.29920  0.42150  0.59860  1.0000 -0.1320785462
C   C28       1.0  0.69340  0.50060  0.58010  1.0000 0.5278238662
C   C29       1.0  0.69330  0.00260  0.07710  1.0000 0.5243393489
C   C30       1.0  0.56070  0.03390  0.08820  1.0000 -0.0035238335
C   C31       1.0  0.44550  0.99580  0.07850  1.0000 -0.1101632371
C   C32       1.0  0.32040  0.02380  0.08260  1.0000 -0.0035238335
C   C33       1.0  0.30760  0.09180  0.09920  1.0000 -0.1423703052
C   C34       1.0  0.42300  0.12820  0.11240  1.0000 0.0699116819
C   C35       1.0  0.54930  0.10170  0.10630  1.0000 -0.1491095416
C   C36       1.0  0.20230  0.97920  0.06930  1.0000 0.5608854004
C   C37       1.0  0.97810  0.34510  0.53250  1.0000 0.1455821254
C   C38       1.0  0.15400  0.31470  0.47950  1.0000 -0.0284856477
C   C39       1.0  0.12530  0.26320  0.51990  1.0000 -0.1003918286
C   C40       1.0  0.95450  0.25100  0.61020  1.0000 0.3526378952
C   C41       1.0  0.02310  0.20240  0.64580  1.0000 -0.3276040471
C   C42       1.0  0.95860  0.17950  0.70200  1.0000 0.3587020345
C   C43       1.0  0.78170  0.24600  0.68140  1.0000 0.2432018247
C   C44       1.0  0.13410  0.09480  0.73140  1.0000 -0.0918623126
C   C45       1.0  0.16620  0.06480  0.78830  1.0000 -0.02182044
C   C46       1.0  0.99030  0.12380  0.80960  1.0000 0.1398922594
C   C47       1.0  0.00020  0.38070  0.31780  1.0000 0.1398922594
C   C48       1.0  0.15320  0.45240  0.29220  1.0000 -0.02182044
C   C49       1.0  0.13190  0.41620  0.23720  1.0000 -0.1003918286
C   C50       1.0  0.97610  0.31970  0.21210  1.0000 0.3526378952
C   C51       1.0  0.03410  0.30200  0.15190  1.0000 -0.3189631134
C   C52       1.0  0.96920  0.25030  0.11930  1.0000 0.3419226118
C   C53       1.0  0.81760  0.24120  0.19950  1.0000 0.2432018247
C   C54       1.0  0.99170  0.16190  0.03460  1.0000 0.1398922594
C   C55       1.0  0.14230  0.20520  0.97180  1.0000 -0.0284856477
C   C56       1.0  0.11760  0.25200  0.01860  1.0000 -0.0918623126
C   C57       1.0  0.79930  0.03610  0.92780  1.0000 0.5608854004
C   C58       1.0  0.68260  0.98950  0.91650  1.0000 -0.0072126071
C   C59       1.0  0.55280  0.01440  0.92070  1.0000 -0.1101632371
C   C60       1.0  0.44440  0.97200  0.91180  1.0000 0.0051578566
C   C61       1.0  0.46380  0.90400  0.89790  1.0000 -0.1423703052
C   C62       1.0  0.59280  0.88080  0.89140  1.0000 0.0645289653
C   C63       1.0  0.70080  0.92150  0.90140  1.0000 -0.1320785462
C   C64       1.0  0.30660  0.00060  0.91990  1.0000 0.5278238662
C   C65       1.0  0.30670  0.50260  0.42290  1.0000 0.5243393489
C   C66       1.0  0.43930  0.53390  0.41180  1.0000 -0.0035238335
C   C67       1.0  0.55450  0.49580  0.42150  1.0000 -0.1101632371
C   C68       1.0  0.67960  0.52380  0.41740  1.0000 -0.0035238335
C   C69       1.0  0.69240  0.59180  0.40080  1.0000 -0.1423703052
C   C70       1.0  0.57700  0.62820  0.38760  1.0000 0.0699116819
C   C71       1.0  0.45070  0.60170  0.39370  1.0000 -0.1491095416
C   C72       1.0  0.79770  0.47920  0.43070  1.0000 0.5608854004
C   C73       1.0  0.47810  0.15490  0.46750  1.0000 0.1455821254
C   C74       1.0  0.65400  0.18530  0.52050  1.0000 -0.0284856477
C   C75       1.0  0.62530  0.23680  0.48010  1.0000 -0.1003918286
C   C76       1.0  0.45450  0.24900  0.38980  1.0000 0.3526378952
C   C77       1.0  0.52310  0.29760  0.35420  1.0000 -0.3276040471
C   C78       1.0  0.45860  0.32050  0.29800  1.0000 0.3587020345
C   C79       1.0  0.28170  0.25400  0.31860  1.0000 0.2432018247
C   C80       1.0  0.63410  0.40520  0.26860  1.0000 -0.0918623126
C   C81       1.0  0.66620  0.43520  0.21170  1.0000 -0.02182044
C   C82       1.0  0.49030  0.37620  0.19040  1.0000 0.1398922594
C   C83       1.0  0.50020  0.11930  0.68220  1.0000 0.1313147387
C   C84       1.0  0.65320  0.04760  0.70780  1.0000 -0.02182044
C   C85       1.0  0.63190  0.08380  0.76280  1.0000 -0.1003918286
C   C86       1.0  0.47610  0.18030  0.78790  1.0000 0.3526378952
C   C87       1.0  0.53410  0.19800  0.84810  1.0000 -0.3189631134
C   C88       1.0  0.46920  0.24970  0.88070  1.0000 0.3419226118
C   C89       1.0  0.31760  0.25880  0.80050  1.0000 0.2432018247
C   C90       1.0  0.49170  0.33810  0.96540  1.0000 0.1398922594
C   C91       1.0  0.64230  0.29480  0.02820  1.0000 -0.0284856477
C   C92       1.0  0.61760  0.24800  0.98140  1.0000 -0.0918623126
C   C93       1.0  0.29930  0.46390  0.07220  1.0000 0.5608854004
C   C94       1.0  0.18260  0.51050  0.08350  1.0000 -0.0072126071
C   C95       1.0  0.05280  0.48560  0.07930  1.0000 -0.1101632371
C   C96       1.0  0.94440  0.52800  0.08820  1.0000 0.0051578566
C   C97       1.0  0.96380  0.59600  0.10210  1.0000 -0.1423703052
C   C98       1.0  0.09280  0.61920  0.10860  1.0000 0.0645289653
C   C99       1.0  0.20080  0.57850  0.09860  1.0000 -0.1320785462
C   C100      1.0  0.80660  0.49940  0.08010  1.0000 0.5278238662
C   C101      1.0  0.80670  0.99740  0.57710  1.0000 0.5243393489
C   C102      1.0  0.93930  0.96610  0.58820  1.0000 -0.0035238335
C   C103      1.0  0.05450  0.00420  0.57850  1.0000 -0.1101632371
C   C104      1.0  0.17960  0.97620  0.58260  1.0000 -0.0035238335
C   C105      1.0  0.19240  0.90820  0.59920  1.0000 -0.1423703052
C   C106      1.0  0.07700  0.87180  0.61240  1.0000 0.0699116819
C   C107      1.0  0.95070  0.89830  0.60630  1.0000 -0.1491095416
C   C108      1.0  0.29770  0.02080  0.56930  1.0000 0.5608854004
C   C109      1.0  0.52190  0.65490  0.03250  1.0000 0.1455821254
C   C110      1.0  0.34600  0.68530  0.97950  1.0000 -0.0284856477
C   C111      1.0  0.37470  0.73680  0.01990  1.0000 -0.1003918286
C   C112      1.0  0.54550  0.74900  0.11020  1.0000 0.3526378952
C   C113      1.0  0.47690  0.79760  0.14580  1.0000 -0.3276040471
C   C114      1.0  0.54140  0.82050  0.20200  1.0000 0.3587020345
C   C115      1.0  0.71830  0.75400  0.18140  1.0000 0.2432018247
C   C116      1.0  0.36590  0.90520  0.23140  1.0000 -0.0918623126
C   C117      1.0  0.33380  0.93520  0.28830  1.0000 -0.0284856477
C   C118      1.0  0.50970  0.87620  0.30960  1.0000 0.1398922594
C   C119      1.0  0.49980  0.61930  0.81780  1.0000 0.1398922594
C   C120      1.0  0.34680  0.54760  0.79220  1.0000 -0.02182044
C   C121      1.0  0.36810  0.58380  0.73720  1.0000 -0.1003918286
C   C122      1.0  0.52390  0.68030  0.71210  1.0000 0.3526378952
C   C123      1.0  0.46590  0.69800  0.65190  1.0000 -0.3189631134
C   C124      1.0  0.53080  0.74970  0.61930  1.0000 0.3419226118
C   C125      1.0  0.68240  0.75880  0.69950  1.0000 0.2432018247
C   C126      1.0  0.50830  0.83810  0.53460  1.0000 0.1398922594
C   C127      1.0  0.35770  0.79480  0.47180  1.0000 -0.0284856477
C   C128      1.0  0.38240  0.74800  0.51860  1.0000 -0.0918623126
C   C129      1.0  0.70070  0.96390  0.42780  1.0000 0.5608854004
C   C130      1.0  0.81740  0.01050  0.41650  1.0000 -0.0072126071
C   C131      1.0  0.94720  0.98560  0.42070  1.0000 -0.1101632371
C   C132      1.0  0.05560  0.02800  0.41180  1.0000 0.0051578566
C   C133      1.0  0.03620  0.09600  0.39790  1.0000 -0.1423703052
C   C134      1.0  0.90720  0.11920  0.39140  1.0000 0.0645289653
C   C135      1.0  0.79920  0.07850  0.40140  1.0000 -0.1320785462
C   C136      1.0  0.19340  0.99940  0.41990  1.0000 0.5278238662
C   C137      1.0  0.19330  0.49740  0.92290  1.0000 0.5243393489
C   C138      1.0  0.06070  0.46610  0.91180  1.0000 -0.0035238335
C   C139      1.0  0.94550  0.50420  0.92150  1.0000 -0.1101632371
C   C140      1.0  0.82040  0.47620  0.91740  1.0000 -0.0035238335
C   C141      1.0  0.80760  0.40820  0.90080  1.0000 -0.1423703052
C   C142      1.0  0.92300  0.37180  0.88760  1.0000 0.0699116819
C   C143      1.0  0.04930  0.39830  0.89370  1.0000 -0.1491095416
C   C144      1.0  0.70230  0.52080  0.93070  1.0000 0.5608854004
N   N1        1.0  0.93720  0.86620  0.01250  1.0000 -0.2899615961
N   N2        1.0  0.98800  0.78270  0.94540  1.0000 -0.02182044
N   N3        1.0  0.16700  0.77350  0.87400  1.0000 -0.3679986117
N   N4        1.0  0.16170  0.70010  0.77950  1.0000 -0.3679986117
N   N5        1.0  0.97820  0.63310  0.75530  1.0000 -0.02182044
N   N6        1.0  0.92550  0.58260  0.66210  1.0000 -0.2899615961
N   N7        1.0  0.92980  0.93010  0.15720  1.0000 -0.2899615961
N   N8        1.0  0.96830  0.86980  0.24730  1.0000 -0.0284856477
N   N9        1.0  0.13230  0.79000  0.26330  1.0000 -0.3635254718
N   N10       1.0  0.13950  0.71960  0.35920  1.0000 -0.3679986117
N   N11       1.0  0.97920  0.72450  0.44150  1.0000 -0.02182044
N   N12       1.0  0.93730  0.64860  0.51770  1.0000 -0.2899615961
N   N13       1.0  0.38450  0.30950  0.62610  1.0000 0.5140942492
N   N14       1.0  0.41140  0.19920  0.13540  1.0000 0.5140942492
N   N15       1.0  0.06280  0.36620  0.48750  1.0000 -0.2899615961
N   N16       1.0  0.01200  0.28270  0.55460  1.0000 -0.02182044
N   N17       1.0  0.83300  0.27350  0.62600  1.0000 -0.3679986117
N   N18       1.0  0.83830  0.20010  0.72050  1.0000 -0.3679986117
N   N19       1.0  0.02180  0.13310  0.74470  1.0000 -0.02182044
N   N20       1.0  0.07450  0.08260  0.83790  1.0000 -0.2899615961
N   N21       1.0  0.07020  0.43010  0.34280  1.0000 -0.2899615961
N   N22       1.0  0.03170  0.36980  0.25270  1.0000 -0.0284856477
N   N23       1.0  0.86770  0.29000  0.23670  1.0000 -0.3635254718
N   N24       1.0  0.86050  0.21960  0.14080  1.0000 -0.3679986117
N   N25       1.0  0.02080  0.22450  0.05850  1.0000 -0.02182044
N   N26       1.0  0.06270  0.14860  0.98230  1.0000 -0.2899615961
N   N27       1.0  0.61550  0.80950  0.87390  1.0000 0.5140942492
N   N28       1.0  0.58860  0.69920  0.36460  1.0000 0.5140942492
N   N29       1.0  0.56280  0.13380  0.51250  1.0000 -0.2899615961
N   N30       1.0  0.51200  0.21730  0.44540  1.0000 -0.02182044
N   N31       1.0  0.33300  0.22650  0.37400  1.0000 -0.3679986117
N   N32       1.0  0.33830  0.29990  0.27950  1.0000 -0.3679986117
N   N33       1.0  0.52180  0.36690  0.25530  1.0000 -0.02182044
N   N34       1.0  0.57450  0.41740  0.16210  1.0000 -0.2899615961
N   N35       1.0  0.57020  0.06990  0.65720  1.0000 -0.2899615961
N   N36       1.0  0.53170  0.13020  0.74730  1.0000 -0.0284856477
N   N37       1.0  0.36770  0.21000  0.76330  1.0000 -0.3635254718
N   N38       1.0  0.36050  0.28040  0.85920  1.0000 -0.3679986117
N   N39       1.0  0.52080  0.27550  0.94150  1.0000 -0.02182044
N   N40       1.0  0.56270  0.35140  0.01770  1.0000 -0.2899615961
N   N41       1.0  0.11550  0.69050  0.12610  1.0000 0.5140942492
N   N42       1.0  0.08860  0.80080  0.63540  1.0000 0.5140942492
N   N43       1.0  0.43720  0.63380  0.98750  1.0000 -0.2899615961
N   N44       1.0  0.48800  0.71730  0.05460  1.0000 -0.02182044
N   N45       1.0  0.66700  0.72650  0.12600  1.0000 -0.3679986117
N   N46       1.0  0.66170  0.79990  0.22050  1.0000 -0.3679986117
N   N47       1.0  0.47820  0.86690  0.24470  1.0000 -0.02182044
N   N48       1.0  0.42550  0.91740  0.33790  1.0000 -0.2899615961
N   N49       1.0  0.42980  0.56990  0.84280  1.0000 -0.2899615961
N   N50       1.0  0.46830  0.63020  0.75270  1.0000 -0.0284856477
N   N51       1.0  0.63230  0.71000  0.73670  1.0000 -0.3635254718
N   N52       1.0  0.63950  0.78040  0.64080  1.0000 -0.3679986117
N   N53       1.0  0.47920  0.77550  0.55850  1.0000 -0.02182044
N   N54       1.0  0.43730  0.85140  0.48230  1.0000 -0.2899615961
N   N55       1.0  0.88450  0.19050  0.37390  1.0000 0.5140942492
N   N56       1.0  0.91140  0.30080  0.86460  1.0000 0.5140942492
O   O1        1.0  0.09250  0.50764  0.55259  1.0000 -0.5707733251
O   O2        1.0  0.21640  0.59751  0.58260  1.0000 -0.5420554869
O   O3        1.0  0.70480  0.56243  0.56590  1.0000 -0.5275110148
O   O4        1.0  0.79380  0.46320  0.58840  1.0000 -0.5275110148
O   O5        1.0  0.47630  0.26980  0.62030  1.0000 -0.3189631134
O   O6        1.0  0.27240  0.29360  0.64470  1.0000 -0.3276040471
O   O7        1.0  0.70320  0.94032  0.06680  1.0000 -0.5275110148
O   O8        1.0  0.79620  0.04066  0.07830  1.0000 -0.5275110148
O   O9        1.0  0.21140  0.91799  0.08100  1.0000 -0.5420554869
O   O10       1.0  0.09650  0.00925  0.04687  1.0000 -0.5707733251
O   O11       1.0  0.30410  0.22780  0.13000  1.0000 -0.3189631134
O   O12       1.0  0.50870  0.22450  0.16150  1.0000 -0.3189631134
O   O13       1.0  0.90750  0.00764  0.94741  1.0000 -0.5707733251
O   O14       1.0  0.78360  0.09751  0.91740  1.0000 -0.5420554869
O   O15       1.0  0.29520  0.06243  0.93410  1.0000 -0.5275110148
O   O16       1.0  0.20620  0.96320  0.91160  1.0000 -0.5275110148
O   O17       1.0  0.52370  0.76980  0.87970  1.0000 -0.3189631134
O   O18       1.0  0.72760  0.79360  0.85530  1.0000 -0.3276040471
O   O19       1.0  0.29680  0.44032  0.43320  1.0000 -0.5275110148
O   O20       1.0  0.20380  0.54066  0.42170  1.0000 -0.5275110148
O   O21       1.0  0.78860  0.41799  0.41900  1.0000 -0.5420554869
O   O22       1.0  0.90350  0.50925  0.45313  1.0000 -0.5707733251
O   O23       1.0  0.69590  0.72780  0.37000  1.0000 -0.3189631134
O   O24       1.0  0.49130  0.72450  0.33850  1.0000 -0.3189631134
O   O25       1.0  0.40750  0.49236  0.05259  1.0000 -0.5707733251
O   O26       1.0  0.28360  0.40249  0.08260  1.0000 -0.5420554869
O   O27       1.0  0.79520  0.43757  0.06590  1.0000 -0.5275110148
O   O28       1.0  0.70620  0.53680  0.08840  1.0000 -0.5275110148
O   O29       1.0  0.02370  0.73020  0.12030  1.0000 -0.3189631134
O   O30       1.0  0.22760  0.70640  0.14470  1.0000 -0.3276040471
O   O31       1.0  0.79680  0.05968  0.56680  1.0000 -0.5275110148
O   O32       1.0  0.70380  0.95934  0.57830  1.0000 -0.5275110148
O   O33       1.0  0.28860  0.08201  0.58100  1.0000 -0.5420554869
O   O34       1.0  0.40350  0.99075  0.54687  1.0000 -0.5707733251
O   O35       1.0  0.19590  0.77220  0.63000  1.0000 -0.3189631134
O   O36       1.0  0.99130  0.77550  0.66150  1.0000 -0.3189631134
O   O37       1.0  0.59250  0.99236  0.44741  1.0000 -0.5707733251
O   O38       1.0  0.71640  0.90249  0.41740  1.0000 -0.5420554869
O   O39       1.0  0.20480  0.93757  0.43410  1.0000 -0.5275110148
O   O40       1.0  0.29380  0.03680  0.41160  1.0000 -0.5275110148
O   O41       1.0  0.97630  0.23020  0.37970  1.0000 -0.3189631134
O   O42       1.0  0.77240  0.20640  0.35530  1.0000 -0.3276040471
O   O43       1.0  0.20320  0.55968  0.93320  1.0000 -0.5275110148
O   O44       1.0  0.29620  0.45934  0.92170  1.0000 -0.5275110148
O   O45       1.0  0.71140  0.58201  0.91900  1.0000 -0.5420554869
O   O46       1.0  0.59650  0.49075  0.95313  1.0000 -0.5707733251
O   O47       1.0  0.80410  0.27220  0.87000  1.0000 -0.3189631134
O   O48       1.0  0.00870  0.27550  0.83850  1.0000 -0.3189631134
