# DDEC6 charges by PACMAN v1.1 (https://github.com/mtap-research/PACMAN-charge/)
data_2017[Zn][hcb]2[ASR]4
_chemical_formula_sum              "Zn4 H60 C84 N8 Cl4 O16"
_cell_length_a       8.483
_cell_length_b       30.133
_cell_length_c       9.78
_cell_angle_alpha    90
_cell_angle_beta     117.59
_cell_angle_gamma    90

_symmetry_space_group_name_H-M    "P 1"
_symmetry_Int_Tables_number       1

loop_
  _symmetry_equiv_pos_as_xyz
  'x, y, z'

loop_
  _atom_site_type_symbol
  _atom_site_label
  _atom_site_symmetry_multiplicity
  _atom_site_fract_x
  _atom_site_fract_y
  _atom_site_fract_z
  _atom_site_occupancy
  _atom_site_charge
Zn  Zn1       1.0  0.78208  0.90553  0.69484  1.0000 0.7734972023
Zn  Zn2       1.0  0.21792  0.40553  0.80516  1.0000 0.7734972023
Zn  Zn3       1.0  0.21792  0.09447  0.30516  1.0000 0.7734972023
Zn  Zn4       1.0  0.78208  0.59447  0.19484  1.0000 0.7734972023
H   H1        1.0  0.19580  0.88150  0.16190  1.0000 0.128034922
H   H2        1.0  0.23690  0.77260  0.94510  1.0000 0.1188030401
H   H3        1.0  0.61660  0.80090  0.37010  1.0000 0.128034922
H   H4        1.0  0.51720  0.73240  0.04950  1.0000 0.128034922
H   H5        1.0  0.67080  0.74470  0.21280  1.0000 0.1386849889
H   H6        1.0  0.26900  0.68760  0.04240  1.0000 0.128034922
H   H7        1.0  0.19920  0.62570  0.13690  1.0000 0.158870303
H   H8        1.0  0.65440  0.63970  0.52610  1.0000 0.1458312654
H   H9        1.0  0.71680  0.70100  0.42210  1.0000 0.128034922
H   H10       1.0  0.26410  0.57080  0.33333  1.0000 0.128034922
H   H11       1.0  0.56810  0.58070  0.60280  1.0000 0.1188030401
H   H12       1.0  0.17820  0.51190  0.40860  1.0000 0.1386849889
H   H13       1.0  0.11210  0.45130  0.51180  1.0000 0.1188030401
H   H14       1.0  0.53950  0.46700  0.89780  1.0000 0.128034922
H   H15       1.0  0.62080  0.52720  0.80540  1.0000 0.1458312654
H   H16       1.0  0.80420  0.38150  0.33810  1.0000 0.128034922
H   H17       1.0  0.76310  0.27260  0.55490  1.0000 0.1188030401
H   H18       1.0  0.38340  0.30090  0.12990  1.0000 0.128034922
H   H19       1.0  0.48280  0.23240  0.45050  1.0000 0.128034922
H   H20       1.0  0.32920  0.24470  0.28720  1.0000 0.1386849889
H   H21       1.0  0.73100  0.18760  0.45760  1.0000 0.128034922
H   H22       1.0  0.80080  0.12570  0.36310  1.0000 0.158870303
H   H23       1.0  0.34560  0.13970  0.97390  1.0000 0.1458312654
H   H24       1.0  0.28320  0.20100  0.07790  1.0000 0.128034922
H   H25       1.0  0.73590  0.07080  0.16667  1.0000 0.128034922
H   H26       1.0  0.43190  0.08070  0.89720  1.0000 0.1188030401
H   H27       1.0  0.82180  0.01190  0.09140  1.0000 0.1386849889
H   H28       1.0  0.88790  0.95130  0.98820  1.0000 0.1188030401
H   H29       1.0  0.46050  0.96700  0.60220  1.0000 0.128034922
H   H30       1.0  0.37920  0.02720  0.69460  1.0000 0.1458312654
H   H31       1.0  0.80420  0.11850  0.83810  1.0000 0.128034922
H   H32       1.0  0.76310  0.22740  0.05490  1.0000 0.1188030401
H   H33       1.0  0.38340  0.19910  0.62990  1.0000 0.128034922
H   H34       1.0  0.48280  0.26760  0.95050  1.0000 0.128034922
H   H35       1.0  0.32920  0.25530  0.78720  1.0000 0.1386849889
H   H36       1.0  0.73100  0.31240  0.95760  1.0000 0.128034922
H   H37       1.0  0.80080  0.37430  0.86310  1.0000 0.158870303
H   H38       1.0  0.34560  0.36030  0.47390  1.0000 0.1458312654
H   H39       1.0  0.28320  0.29900  0.57790  1.0000 0.128034922
H   H40       1.0  0.73590  0.42920  0.66667  1.0000 0.128034922
H   H41       1.0  0.43190  0.41930  0.39720  1.0000 0.1188030401
H   H42       1.0  0.82180  0.48810  0.59140  1.0000 0.1386849889
H   H43       1.0  0.88790  0.54870  0.48820  1.0000 0.1188030401
H   H44       1.0  0.46050  0.53300  0.10220  1.0000 0.128034922
H   H45       1.0  0.37920  0.47280  0.19460  1.0000 0.1458312654
H   H46       1.0  0.19580  0.61850  0.66190  1.0000 0.128034922
H   H47       1.0  0.23690  0.72740  0.44510  1.0000 0.1188030401
H   H48       1.0  0.61660  0.69910  0.87010  1.0000 0.128034922
H   H49       1.0  0.51720  0.76760  0.54950  1.0000 0.128034922
H   H50       1.0  0.67080  0.75530  0.71280  1.0000 0.1386849889
H   H51       1.0  0.26900  0.81240  0.54240  1.0000 0.128034922
H   H52       1.0  0.19920  0.87430  0.63690  1.0000 0.158870303
H   H53       1.0  0.65440  0.86030  0.02610  1.0000 0.1458312654
H   H54       1.0  0.71680  0.79900  0.92210  1.0000 0.128034922
H   H55       1.0  0.26410  0.92920  0.83333  1.0000 0.128034922
H   H56       1.0  0.56810  0.91930  0.10280  1.0000 0.1188030401
H   H57       1.0  0.17820  0.98810  0.90860  1.0000 0.1386849889
H   H58       1.0  0.11210  0.04870  0.01180  1.0000 0.1188030401
H   H59       1.0  0.53950  0.03300  0.39780  1.0000 0.128034922
H   H60       1.0  0.62080  0.97280  0.30540  1.0000 0.1458312654
C   C1        1.0  0.49250  0.87652  0.42430  1.0000 0.5419374936
C   C2        1.0  0.41680  0.84565  0.28770  1.0000 -0.01758806
C   C3        1.0  0.25810  0.85625  0.16040  1.0000 -0.1261041677
C   C4        1.0  0.19180  0.82943  0.03080  1.0000 -0.0130474875
C   C5        1.0  0.28320  0.79114  0.03110  1.0000 -0.1833186149
C   C6        1.0  0.44250  0.78016  0.15760  1.0000 0.0860437014
C   C7        1.0  0.50900  0.80775  0.28510  1.0000 -0.1833186149
C   C8        1.0  0.02650  0.84232  0.88810  1.0000 0.5419374936
C   C9        1.0  0.54420  0.73890  0.15530  1.0000 -0.1882522497
C   C10       1.0  0.34770  0.67742  0.14040  1.0000 0.0484931198
C   C11       1.0  0.30540  0.64044  0.19700  1.0000 -0.1582073598
C   C12       1.0  0.41870  0.62460  0.34300  1.0000 0.1700751716
C   C13       1.0  0.57470  0.64872  0.42680  1.0000 -0.1882522497
C   C14       1.0  0.61180  0.68550  0.36460  1.0000 0.0410580495
C   C15       1.0  0.36960  0.58484  0.40010  1.0000 -0.1241616126
C   C16       1.0  0.46100  0.56721  0.53690  1.0000 -0.1241616126
C   C17       1.0  0.40890  0.52774  0.59550  1.0000 0.158870303
C   C18       1.0  0.25490  0.50345  0.50930  1.0000 -0.1882522497
C   C19       1.0  0.21550  0.46702  0.57250  1.0000 0.067705498
C   C20       1.0  0.46520  0.47616  0.79740  1.0000 0.1001388998
C   C21       1.0  0.51490  0.51262  0.74270  1.0000 -0.1668256029
C   C22       1.0  0.50750  0.37652  0.07570  1.0000 0.5419374936
C   C23       1.0  0.58320  0.34565  0.21230  1.0000 -0.01758806
C   C24       1.0  0.74190  0.35625  0.33960  1.0000 -0.1241616126
C   C25       1.0  0.80820  0.32943  0.46920  1.0000 -0.0130474875
C   C26       1.0  0.71680  0.29114  0.46890  1.0000 -0.1833186149
C   C27       1.0  0.55750  0.28016  0.34240  1.0000 0.0860437014
C   C28       1.0  0.49100  0.30775  0.21490  1.0000 -0.1833186149
C   C29       1.0  0.97350  0.34232  0.61190  1.0000 0.5419374936
C   C30       1.0  0.45580  0.23890  0.34470  1.0000 -0.1882522497
C   C31       1.0  0.65230  0.17742  0.35960  1.0000 0.0484931198
C   C32       1.0  0.69460  0.14044  0.30300  1.0000 -0.1582073598
C   C33       1.0  0.58130  0.12460  0.15700  1.0000 0.1700751716
C   C34       1.0  0.42530  0.14872  0.07320  1.0000 -0.1833186149
C   C35       1.0  0.38820  0.18550  0.13540  1.0000 0.0410580495
C   C36       1.0  0.63040  0.08484  0.09990  1.0000 -0.1241616126
C   C37       1.0  0.53900  0.06721  0.96310  1.0000 -0.1241616126
C   C38       1.0  0.59110  0.02774  0.90450  1.0000 0.158870303
C   C39       1.0  0.74510  0.00345  0.99070  1.0000 -0.1882522497
C   C40       1.0  0.78450  0.96702  0.92750  1.0000 0.067705498
C   C41       1.0  0.53480  0.97616  0.70260  1.0000 0.1001388998
C   C42       1.0  0.48510  0.01262  0.75730  1.0000 -0.1668256029
C   C43       1.0  0.50750  0.12348  0.57570  1.0000 0.5419374936
C   C44       1.0  0.58320  0.15435  0.71230  1.0000 -0.01758806
C   C45       1.0  0.74190  0.14375  0.83960  1.0000 -0.1261041677
C   C46       1.0  0.80820  0.17057  0.96920  1.0000 -0.0130474875
C   C47       1.0  0.71680  0.20886  0.96890  1.0000 -0.1833186149
C   C48       1.0  0.55750  0.21984  0.84240  1.0000 0.0860437014
C   C49       1.0  0.49100  0.19225  0.71490  1.0000 -0.1833186149
C   C50       1.0  0.97350  0.15768  0.11190  1.0000 0.5419374936
C   C51       1.0  0.45580  0.26110  0.84470  1.0000 -0.1882522497
C   C52       1.0  0.65230  0.32258  0.85960  1.0000 0.0484931198
C   C53       1.0  0.69460  0.35956  0.80300  1.0000 -0.1582073598
C   C54       1.0  0.58130  0.37540  0.65700  1.0000 0.1700751716
C   C55       1.0  0.42530  0.35128  0.57320  1.0000 -0.1882522497
C   C56       1.0  0.38820  0.31450  0.63540  1.0000 0.0410580495
C   C57       1.0  0.63040  0.41516  0.59990  1.0000 -0.1241616126
C   C58       1.0  0.53900  0.43279  0.46310  1.0000 -0.1241616126
C   C59       1.0  0.59110  0.47226  0.40450  1.0000 0.158870303
C   C60       1.0  0.74510  0.49655  0.49070  1.0000 -0.1882522497
C   C61       1.0  0.78450  0.53298  0.42750  1.0000 0.067705498
C   C62       1.0  0.53480  0.52384  0.20260  1.0000 0.1001388998
C   C63       1.0  0.48510  0.48738  0.25730  1.0000 -0.1668256029
C   C64       1.0  0.49250  0.62348  0.92430  1.0000 0.5419374936
C   C65       1.0  0.41680  0.65435  0.78770  1.0000 -0.01758806
C   C66       1.0  0.25810  0.64375  0.66040  1.0000 -0.1261041677
C   C67       1.0  0.19180  0.67057  0.53080  1.0000 -0.0130474875
C   C68       1.0  0.28320  0.70886  0.53110  1.0000 -0.1833186149
C   C69       1.0  0.44250  0.71984  0.65760  1.0000 0.0860437014
C   C70       1.0  0.50900  0.69225  0.78510  1.0000 -0.1833186149
C   C71       1.0  0.02650  0.65768  0.38810  1.0000 0.5419374936
C   C72       1.0  0.54420  0.76110  0.65530  1.0000 -0.1882522497
C   C73       1.0  0.34770  0.82258  0.64040  1.0000 0.0484931198
C   C74       1.0  0.30540  0.85956  0.69700  1.0000 -0.1582073598
C   C75       1.0  0.41870  0.87540  0.84300  1.0000 0.1700751716
C   C76       1.0  0.57470  0.85128  0.92680  1.0000 -0.1882522497
C   C77       1.0  0.61180  0.81450  0.86460  1.0000 0.0410580495
C   C78       1.0  0.36960  0.91516  0.90010  1.0000 -0.1241616126
C   C79       1.0  0.46100  0.93279  0.03690  1.0000 -0.1241616126
C   C80       1.0  0.40890  0.97226  0.09550  1.0000 0.158870303
C   C81       1.0  0.25490  0.99655  0.00930  1.0000 -0.1882522497
C   C82       1.0  0.21550  0.03298  0.07250  1.0000 0.067705498
C   C83       1.0  0.46520  0.02384  0.29740  1.0000 0.1001388998
C   C84       1.0  0.51490  0.98738  0.24270  1.0000 -0.1668256029
N   N1        1.0  0.31790  0.45308  0.71600  1.0000 -0.2393946565
N   N2        1.0  0.49980  0.69947  0.22280  1.0000 0.1001388998
N   N3        1.0  0.68210  0.95308  0.78400  1.0000 -0.2393946565
N   N4        1.0  0.50020  0.19947  0.27720  1.0000 0.1001388998
N   N5        1.0  0.68210  0.54692  0.28400  1.0000 -0.2393946565
N   N6        1.0  0.50020  0.30053  0.77720  1.0000 0.1001388998
N   N7        1.0  0.31790  0.04692  0.21600  1.0000 -0.2393946565
N   N8        1.0  0.49980  0.80053  0.72280  1.0000 0.1001388998
Cl  Cl1       1.0  0.92650  0.94712  0.59060  1.0000 -0.5512244618
Cl  Cl2       1.0  0.07350  0.44712  0.90940  1.0000 -0.5512244618
Cl  Cl3       1.0  0.07350  0.05288  0.40940  1.0000 -0.5512244618
Cl  Cl4       1.0  0.92650  0.55288  0.09060  1.0000 -0.5512244618
O   O1        1.0  0.63600  0.86323  0.53700  1.0000 -0.5379593587
O   O2        1.0  0.41770  0.91143  0.42340  1.0000 -0.5379593587
O   O3        1.0  0.95920  0.87980  0.88860  1.0000 -0.5512244618
O   O4        1.0  0.96540  0.81657  0.77940  1.0000 -0.5329190857
O   O5        1.0  0.36400  0.36323  0.96300  1.0000 -0.5379593587
O   O6        1.0  0.58230  0.41143  0.07660  1.0000 -0.5379593587
O   O7        1.0  0.04080  0.37980  0.61140  1.0000 -0.5512244618
O   O8        1.0  0.03460  0.31657  0.72060  1.0000 -0.5329190857
O   O9        1.0  0.36400  0.13677  0.46300  1.0000 -0.5379593587
O   O10       1.0  0.58230  0.08857  0.57660  1.0000 -0.5379593587
O   O11       1.0  0.04080  0.12020  0.11140  1.0000 -0.5512244618
O   O12       1.0  0.03460  0.18343  0.22060  1.0000 -0.5329190857
O   O13       1.0  0.63600  0.63677  0.03700  1.0000 -0.5379593587
O   O14       1.0  0.41770  0.58857  0.92340  1.0000 -0.5379593587
O   O15       1.0  0.95920  0.62020  0.38860  1.0000 -0.5512244618
O   O16       1.0  0.96540  0.68343  0.27940  1.0000 -0.5329190857
