# DDEC6 charges by PACMAN v1.1 (https://github.com/mtap-research/PACMAN-charge/)
data_2017[Nd][nan]3[ASR]3
_chemical_formula_sum              "Nd8 H96 C104 O68"
_cell_length_a       12.368
_cell_length_b       12.865
_cell_length_c       24.162
_cell_angle_alpha    90
_cell_angle_beta     90
_cell_angle_gamma    90

_symmetry_space_group_name_H-M    "P 1"
_symmetry_Int_Tables_number       1

loop_
  _symmetry_equiv_pos_as_xyz
  'x, y, z'

loop_
  _atom_site_type_symbol
  _atom_site_label
  _atom_site_symmetry_multiplicity
  _atom_site_fract_x
  _atom_site_fract_y
  _atom_site_fract_z
  _atom_site_occupancy
  _atom_site_charge
Nd  Nd1       1.0  0.56045  0.89729  0.56812  1.0000 2.0717617493
Nd  Nd2       1.0  0.56045  0.10271  0.43188  1.0000 2.0717617493
Nd  Nd3       1.0  0.43955  0.39729  0.93188  1.0000 2.0717617493
Nd  Nd4       1.0  0.43955  0.60271  0.06812  1.0000 2.0717617493
Nd  Nd5       1.0  0.23116  0.37584  0.41814  1.0000 2.1315840703
Nd  Nd6       1.0  0.23116  0.62416  0.58186  1.0000 2.1315840703
Nd  Nd7       1.0  0.76884  0.87584  0.08186  1.0000 2.1315840703
Nd  Nd8       1.0  0.76884  0.12416  0.91814  1.0000 2.1315840703
H   H1        1.0  0.58260  0.69520  0.25490  1.0000 0.1318312242
H   H2        1.0  0.58260  0.30480  0.74510  1.0000 0.1318312242
H   H3        1.0  0.41740  0.19520  0.24510  1.0000 0.1318312242
H   H4        1.0  0.41740  0.80480  0.75490  1.0000 0.1318312242
H   H5        1.0  0.25720  0.68110  0.24940  1.0000 0.1487531793
H   H6        1.0  0.25720  0.31890  0.75060  1.0000 0.1487531793
H   H7        1.0  0.74280  0.18110  0.25060  1.0000 0.1487531793
H   H8        1.0  0.74280  0.81890  0.74940  1.0000 0.1487531793
H   H9        1.0  0.40710  0.74440  0.39420  1.0000 0.1409305107
H   H10       1.0  0.40710  0.25560  0.60580  1.0000 0.1409305107
H   H11       1.0  0.59290  0.24440  0.10580  1.0000 0.1409305107
H   H12       1.0  0.59290  0.75560  0.89420  1.0000 0.1409305107
H   H13       1.0  0.56960  0.71490  0.43410  1.0000 0.0923117694
H   H14       1.0  0.56960  0.28510  0.56590  1.0000 0.0923117694
H   H15       1.0  0.43040  0.21490  0.06590  1.0000 0.0923117694
H   H16       1.0  0.43040  0.78510  0.93410  1.0000 0.0923117694
H   H17       1.0  0.77000  0.80900  0.41120  1.0000 0.1487531793
H   H18       1.0  0.77000  0.19100  0.58880  1.0000 0.1487531793
H   H19       1.0  0.23000  0.30900  0.08880  1.0000 0.1487531793
H   H20       1.0  0.23000  0.69100  0.91120  1.0000 0.1487531793
H   H21       1.0  0.75710  0.68870  0.41920  1.0000 0.1318312242
H   H22       1.0  0.75710  0.31130  0.58080  1.0000 0.1318312242
H   H23       1.0  0.24290  0.18870  0.08080  1.0000 0.1318312242
H   H24       1.0  0.24290  0.81130  0.91920  1.0000 0.1318312242
H   H25       1.0  0.73400  0.76440  0.46860  1.0000 0.1409305107
H   H26       1.0  0.73400  0.23560  0.53140  1.0000 0.1409305107
H   H27       1.0  0.26600  0.26440  0.03140  1.0000 0.1409305107
H   H28       1.0  0.26600  0.73560  0.96860  1.0000 0.1409305107
H   H29       1.0  0.23500  0.78820  0.41870  1.0000 0.0957532485
H   H30       1.0  0.23500  0.21180  0.58130  1.0000 0.0957532485
H   H31       1.0  0.76500  0.28820  0.08130  1.0000 0.0957532485
H   H32       1.0  0.76500  0.71180  0.91870  1.0000 0.0957532485
H   H33       1.0  0.04400  0.67300  0.40030  1.0000 0.1487531793
H   H34       1.0  0.04400  0.32700  0.59970  1.0000 0.1487531793
H   H35       1.0  0.95600  0.17300  0.09970  1.0000 0.1487531793
H   H36       1.0  0.95600  0.82700  0.90030  1.0000 0.1487531793
H   H37       1.0  0.05260  0.79450  0.39990  1.0000 0.1409305107
H   H38       1.0  0.05260  0.20550  0.60010  1.0000 0.1409305107
H   H39       1.0  0.94740  0.29450  0.10010  1.0000 0.1409305107
H   H40       1.0  0.94740  0.70550  0.89990  1.0000 0.1409305107
H   H41       1.0  0.06610  0.73320  0.45560  1.0000 0.1409305107
H   H42       1.0  0.06610  0.26680  0.54440  1.0000 0.1409305107
H   H43       1.0  0.93390  0.23320  0.04440  1.0000 0.1409305107
H   H44       1.0  0.93390  0.76680  0.95560  1.0000 0.1409305107
H   H45       1.0  0.60970  0.50000  0.50000  1.0000 0.1409305107
H   H46       1.0  0.39030  0.00000  0.00000  1.0000 0.1409305107
H   H47       1.0  0.89250  0.54440  0.57940  1.0000 0.1409305107
H   H48       1.0  0.89250  0.45560  0.42060  1.0000 0.1409305107
H   H49       1.0  0.10750  0.04440  0.92060  1.0000 0.1409305107
H   H50       1.0  0.10750  0.95560  0.07940  1.0000 0.1409305107
H   H51       1.0  0.55600  0.48180  0.58840  1.0000 0.0923117694
H   H52       1.0  0.55600  0.51820  0.41160  1.0000 0.0923117694
H   H53       1.0  0.44400  0.98180  0.91160  1.0000 0.0923117694
H   H54       1.0  0.44400  0.01820  0.08840  1.0000 0.0923117694
H   H55       1.0  0.58840  0.61180  0.68170  1.0000 0.1487531793
H   H56       1.0  0.58840  0.38820  0.31830  1.0000 0.1487531793
H   H57       1.0  0.41160  0.11180  0.81830  1.0000 0.1487531793
H   H58       1.0  0.41160  0.88820  0.18170  1.0000 0.1487531793
H   H59       1.0  0.59500  0.49010  0.68300  1.0000 0.1409305107
H   H60       1.0  0.59500  0.50990  0.31700  1.0000 0.1409305107
H   H61       1.0  0.40500  0.99010  0.81700  1.0000 0.1409305107
H   H62       1.0  0.40500  0.00990  0.18300  1.0000 0.1409305107
H   H63       1.0  0.48380  0.54520  0.67240  1.0000 0.1318312242
H   H64       1.0  0.48380  0.45480  0.32760  1.0000 0.1318312242
H   H65       1.0  0.51620  0.04520  0.82760  1.0000 0.1318312242
H   H66       1.0  0.51620  0.95480  0.17240  1.0000 0.1318312242
H   H67       1.0  0.20130  0.00000  0.50000  1.0000 0.1318312242
H   H68       1.0  0.79870  0.50000  0.00000  1.0000 0.1318312242
H   H69       1.0  0.91970  0.97330  0.58230  1.0000 0.1487531793
H   H70       1.0  0.91970  0.02670  0.41770  1.0000 0.1487531793
H   H71       1.0  0.08030  0.47330  0.91770  1.0000 0.1487531793
H   H72       1.0  0.08030  0.52670  0.08230  1.0000 0.1487531793
H   H73       1.0  0.25290  0.04940  0.58540  1.0000 0.0957532485
H   H74       1.0  0.25290  0.95060  0.41460  1.0000 0.0957532485
H   H75       1.0  0.74710  0.54940  0.91460  1.0000 0.0957532485
H   H76       1.0  0.74710  0.45060  0.08540  1.0000 0.0957532485
H   H77       1.0  0.23720  0.92750  0.68260  1.0000 0.1409305107
H   H78       1.0  0.23720  0.07250  0.31740  1.0000 0.1409305107
H   H79       1.0  0.76280  0.42750  0.81740  1.0000 0.1409305107
H   H80       1.0  0.76280  0.57250  0.18260  1.0000 0.1409305107
H   H81       1.0  0.21660  0.04780  0.68130  1.0000 0.1318312242
H   H82       1.0  0.21660  0.95220  0.31870  1.0000 0.1318312242
H   H83       1.0  0.78340  0.54780  0.81870  1.0000 0.1318312242
H   H84       1.0  0.78340  0.45220  0.18130  1.0000 0.1318312242
H   H85       1.0  0.33260  0.00390  0.66950  1.0000 0.1409305107
H   H86       1.0  0.33260  0.99610  0.33050  1.0000 0.1409305107
H   H87       1.0  0.66740  0.50390  0.83050  1.0000 0.1409305107
H   H88       1.0  0.66740  0.49610  0.16950  1.0000 0.1409305107
H   H89       1.0  0.33020  0.27940  0.30040  1.0000 0.3681847375
H   H90       1.0  0.33020  0.72060  0.69960  1.0000 0.3681847375
H   H91       1.0  0.66980  0.77940  0.19960  1.0000 0.3681847375
H   H92       1.0  0.66980  0.22060  0.80040  1.0000 0.3681847375
H   H93       1.0  0.32890  0.37300  0.32760  1.0000 0.2990769591
H   H94       1.0  0.32890  0.62700  0.67240  1.0000 0.2990769591
H   H95       1.0  0.67110  0.87300  0.17240  1.0000 0.2990769591
H   H96       1.0  0.67110  0.12700  0.82760  1.0000 0.2990769591
C   C1        1.0  0.50970  0.72220  0.32990  1.0000 0.2919056077
C   C2        1.0  0.50970  0.27780  0.67010  1.0000 0.2919056077
C   C3        1.0  0.49030  0.22220  0.17010  1.0000 0.2919056077
C   C4        1.0  0.49030  0.77780  0.82990  1.0000 0.2919056077
C   C5        1.0  0.51600  0.70030  0.27260  1.0000 -0.2764978189
C   C6        1.0  0.51600  0.29970  0.72740  1.0000 -0.2764978189
C   C7        1.0  0.48400  0.20030  0.22740  1.0000 -0.2764978189
C   C8        1.0  0.48400  0.79970  0.77260  1.0000 -0.2764978189
C   C9        1.0  0.42070  0.68670  0.24340  1.0000 0.0291241628
C   C10       1.0  0.42070  0.31330  0.75660  1.0000 0.0291241628
C   C11       1.0  0.57930  0.18670  0.25660  1.0000 0.0291241628
C   C12       1.0  0.57930  0.81330  0.74340  1.0000 0.0291241628
C   C13       1.0  0.32050  0.69130  0.26950  1.0000 -0.2524505037
C   C14       1.0  0.32050  0.30870  0.73050  1.0000 -0.2524505037
C   C15       1.0  0.67950  0.19130  0.23050  1.0000 -0.2524505037
C   C16       1.0  0.67950  0.80870  0.76950  1.0000 -0.2524505037
C   C17       1.0  0.31620  0.71150  0.32680  1.0000 0.2919056077
C   C18       1.0  0.31620  0.28850  0.67320  1.0000 0.2919056077
C   C19       1.0  0.68380  0.21150  0.17320  1.0000 0.2919056077
C   C20       1.0  0.68380  0.78850  0.82680  1.0000 0.2919056077
C   C21       1.0  0.41040  0.72870  0.35670  1.0000 -0.3721892613
C   C22       1.0  0.41040  0.27130  0.64330  1.0000 -0.3721892613
C   C23       1.0  0.58960  0.22870  0.14330  1.0000 -0.3721892613
C   C24       1.0  0.58960  0.77130  0.85670  1.0000 -0.3721892613
C   C25       1.0  0.61290  0.76300  0.41180  1.0000 0.0736388896
C   C26       1.0  0.61290  0.23700  0.58820  1.0000 0.0736388896
C   C27       1.0  0.38710  0.26300  0.08820  1.0000 0.0736388896
C   C28       1.0  0.38710  0.73700  0.91180  1.0000 0.0736388896
C   C29       1.0  0.56970  0.87290  0.41930  1.0000 0.5737356466
C   C30       1.0  0.56970  0.12710  0.58070  1.0000 0.5737356466
C   C31       1.0  0.43030  0.37290  0.08070  1.0000 0.5737356466
C   C32       1.0  0.43030  0.62710  0.91930  1.0000 0.5737356466
C   C33       1.0  0.72890  0.75560  0.42930  1.0000 -0.4519396167
C   C34       1.0  0.72890  0.24440  0.57070  1.0000 -0.4519396167
C   C35       1.0  0.27110  0.25560  0.07070  1.0000 -0.4519396167
C   C36       1.0  0.27110  0.74440  0.92930  1.0000 -0.4519396167
C   C37       1.0  0.20000  0.72390  0.40640  1.0000 0.058678053
C   C38       1.0  0.20000  0.27610  0.59360  1.0000 0.058678053
C   C39       1.0  0.80000  0.22390  0.09360  1.0000 0.058678053
C   C40       1.0  0.80000  0.77610  0.90640  1.0000 0.058678053
C   C41       1.0  0.24680  0.63390  0.43730  1.0000 0.629232071
C   C42       1.0  0.24680  0.36610  0.56270  1.0000 0.629232071
C   C43       1.0  0.75320  0.13390  0.06270  1.0000 0.629232071
C   C44       1.0  0.75320  0.86610  0.93730  1.0000 0.629232071
C   C45       1.0  0.07970  0.73190  0.41650  1.0000 -0.4519396167
C   C46       1.0  0.07970  0.26810  0.58350  1.0000 -0.4519396167
C   C47       1.0  0.92030  0.23190  0.08350  1.0000 -0.4519396167
C   C48       1.0  0.92030  0.76810  0.91650  1.0000 -0.4519396167
C   C49       1.0  0.42530  0.66090  0.18290  1.0000 0.5512417179
C   C50       1.0  0.42530  0.33910  0.81710  1.0000 0.5512417179
C   C51       1.0  0.57470  0.16090  0.31710  1.0000 0.5512417179
C   C52       1.0  0.57470  0.83910  0.68290  1.0000 0.5512417179
C   C53       1.0  0.68480  0.50000  0.50000  1.0000 -0.3567120511
C   C54       1.0  0.31520  0.00000  0.00000  1.0000 -0.3567120511
C   C55       1.0  0.74200  0.52670  0.54760  1.0000 0.2803743702
C   C56       1.0  0.74200  0.47330  0.45240  1.0000 0.2803743702
C   C57       1.0  0.25800  0.02670  0.95240  1.0000 0.2803743702
C   C58       1.0  0.25800  0.97330  0.04760  1.0000 0.2803743702
C   C59       1.0  0.85460  0.52660  0.54750  1.0000 -0.2366190072
C   C60       1.0  0.85460  0.47340  0.45250  1.0000 -0.2366190072
C   C61       1.0  0.14540  0.02660  0.95250  1.0000 -0.2366190072
C   C62       1.0  0.14540  0.97340  0.04750  1.0000 -0.2366190072
C   C63       1.0  0.90980  0.50000  0.50000  1.0000 -0.0076541892
C   C64       1.0  0.09020  0.00000  0.00000  1.0000 -0.0076541892
C   C65       1.0  0.03060  0.50000  0.50000  1.0000 0.6510029208
C   C66       1.0  0.96940  0.00000  0.00000  1.0000 0.6510029208
C   C67       1.0  0.58220  0.54760  0.60390  1.0000 0.0736388896
C   C68       1.0  0.58220  0.45240  0.39610  1.0000 0.0736388896
C   C69       1.0  0.41780  0.04760  0.89610  1.0000 0.0736388896
C   C70       1.0  0.41780  0.95240  0.10390  1.0000 0.0736388896
C   C71       1.0  0.52180  0.63900  0.57520  1.0000 0.6098796498
C   C72       1.0  0.52180  0.36100  0.42480  1.0000 0.6098796498
C   C73       1.0  0.47820  0.13900  0.92480  1.0000 0.6098796498
C   C74       1.0  0.47820  0.86100  0.07520  1.0000 0.6098796498
C   C75       1.0  0.56030  0.54880  0.66600  1.0000 -0.4634320218
C   C76       1.0  0.56030  0.45120  0.33400  1.0000 -0.4634320218
C   C77       1.0  0.43970  0.04880  0.83400  1.0000 -0.4634320218
C   C78       1.0  0.43970  0.95120  0.16600  1.0000 -0.4634320218
C   C79       1.0  0.12610  0.00000  0.50000  1.0000 -0.3547427434
C   C80       1.0  0.87390  0.50000  0.00000  1.0000 -0.3567120511
C   C81       1.0  0.06850  0.98720  0.54850  1.0000 0.2560401183
C   C82       1.0  0.06850  0.01280  0.45150  1.0000 0.2560401183
C   C83       1.0  0.93150  0.48720  0.95150  1.0000 0.2560401183
C   C84       1.0  0.93150  0.51280  0.04850  1.0000 0.2560401183
C   C85       1.0  0.95680  0.98480  0.54940  1.0000 -0.2366190072
C   C86       1.0  0.95680  0.01520  0.45060  1.0000 -0.2366190072
C   C87       1.0  0.04320  0.48480  0.95060  1.0000 -0.2366190072
C   C88       1.0  0.04320  0.51520  0.04940  1.0000 -0.2366190072
C   C89       1.0  0.90100  0.00000  0.50000  1.0000 -0.0076541892
C   C90       1.0  0.09900  0.50000  0.00000  1.0000 -0.0076541892
C   C91       1.0  0.78020  0.00000  0.50000  1.0000 0.6510029208
C   C92       1.0  0.21980  0.50000  0.00000  1.0000 0.6510029208
C   C93       1.0  0.23020  0.98520  0.60390  1.0000 0.0451500114
C   C94       1.0  0.23020  0.01480  0.39610  1.0000 0.0451500114
C   C95       1.0  0.76980  0.48520  0.89610  1.0000 0.0451500114
C   C96       1.0  0.76980  0.51480  0.10390  1.0000 0.0451500114
C   C97       1.0  0.28550  0.89500  0.57820  1.0000 0.6195876818
C   C98       1.0  0.28550  0.10500  0.42180  1.0000 0.6195876818
C   C99       1.0  0.71450  0.39500  0.92180  1.0000 0.6195876818
C   C100      1.0  0.71450  0.60500  0.07820  1.0000 0.6195876818
C   C101      1.0  0.25660  0.99170  0.66490  1.0000 -0.4373214919
C   C102      1.0  0.25660  0.00830  0.33510  1.0000 -0.4373214919
C   C103      1.0  0.74340  0.49170  0.83510  1.0000 -0.4373214919
C   C104      1.0  0.74340  0.50830  0.16490  1.0000 -0.4373214919
O   O1        1.0  0.21390  0.71310  0.34820  1.0000 -0.1976822469
O   O2        1.0  0.21390  0.28690  0.65180  1.0000 -0.1976822469
O   O3        1.0  0.78610  0.21310  0.15180  1.0000 -0.1976822469
O   O4        1.0  0.78610  0.78690  0.84820  1.0000 -0.1976822469
O   O5        1.0  0.27110  0.55550  0.41320  1.0000 -0.616931178
O   O6        1.0  0.27110  0.44450  0.58680  1.0000 -0.616931178
O   O7        1.0  0.72890  0.05550  0.08680  1.0000 -0.616931178
O   O8        1.0  0.72890  0.94450  0.91320  1.0000 -0.616931178
O   O9        1.0  0.25500  0.65320  0.48920  1.0000 -0.7129759569
O   O10       1.0  0.25500  0.34680  0.51080  1.0000 -0.7129759569
O   O11       1.0  0.74500  0.15320  0.01080  1.0000 -0.7129759569
O   O12       1.0  0.74500  0.84680  0.98920  1.0000 -0.7129759569
O   O13       1.0  0.60800  0.73190  0.35480  1.0000 -0.1976822469
O   O14       1.0  0.60800  0.26810  0.64520  1.0000 -0.1976822469
O   O15       1.0  0.39200  0.23190  0.14520  1.0000 -0.1976822469
O   O16       1.0  0.39200  0.76810  0.85480  1.0000 -0.1976822469
O   O17       1.0  0.54490  0.90180  0.46759  1.0000 -0.7192241329
O   O18       1.0  0.54490  0.09820  0.53241  1.0000 -0.7192241329
O   O19       1.0  0.45510  0.40180  0.03241  1.0000 -0.7192241329
O   O20       1.0  0.45510  0.59820  0.96759  1.0000 -0.7192241329
O   O21       1.0  0.56970  0.93370  0.37974  1.0000 -0.5692460913
O   O22       1.0  0.56970  0.06630  0.62026  1.0000 -0.5692460913
O   O23       1.0  0.43030  0.43370  0.12026  1.0000 -0.5692460913
O   O24       1.0  0.43030  0.56630  0.87974  1.0000 -0.5692460913
O   O25       1.0  0.51530  0.66740  0.15861  1.0000 -0.6254813451
O   O26       1.0  0.51530  0.33260  0.84139  1.0000 -0.6254813451
O   O27       1.0  0.48470  0.16740  0.34139  1.0000 -0.6254813451
O   O28       1.0  0.48470  0.83260  0.65861  1.0000 -0.6254813451
O   O29       1.0  0.34130  0.63820  0.15710  1.0000 -0.5917096588
O   O30       1.0  0.34130  0.36180  0.84290  1.0000 -0.5917096588
O   O31       1.0  0.65870  0.13820  0.34290  1.0000 -0.5917096588
O   O32       1.0  0.65870  0.86180  0.65710  1.0000 -0.5917096588
O   O33       1.0  0.69580  0.55290  0.59700  1.0000 -0.1834749657
O   O34       1.0  0.69580  0.44710  0.40300  1.0000 -0.1834749657
O   O35       1.0  0.30420  0.05290  0.90300  1.0000 -0.1834749657
O   O36       1.0  0.30420  0.94710  0.09700  1.0000 -0.1834749657
O   O37       1.0  0.57730  0.71430  0.55960  1.0000 -0.6443623606
O   O38       1.0  0.57730  0.28570  0.44040  1.0000 -0.6443623606
O   O39       1.0  0.42270  0.21430  0.94040  1.0000 -0.6443623606
O   O40       1.0  0.42270  0.78570  0.05960  1.0000 -0.6443623606
O   O41       1.0  0.42320  0.62980  0.57240  1.0000 -0.6443623606
O   O42       1.0  0.42320  0.37020  0.42760  1.0000 -0.6443623606
O   O43       1.0  0.57680  0.12980  0.92760  1.0000 -0.6443623606
O   O44       1.0  0.57680  0.87020  0.07240  1.0000 -0.6443623606
O   O45       1.0  0.07730  0.54300  0.53930  1.0000 -0.6798974354
O   O46       1.0  0.07730  0.45700  0.46070  1.0000 -0.6798974354
O   O47       1.0  0.92270  0.04300  0.96070  1.0000 -0.6798974354
O   O48       1.0  0.92270  0.95700  0.03930  1.0000 -0.6798974354
O   O49       1.0  0.11560  0.97500  0.60040  1.0000 -0.2106188316
O   O50       1.0  0.11560  0.02500  0.39960  1.0000 -0.2106188316
O   O51       1.0  0.88440  0.47500  0.89960  1.0000 -0.2106188316
O   O52       1.0  0.88440  0.52500  0.10040  1.0000 -0.2106188316
O   O53       1.0  0.37680  0.91360  0.55830  1.0000 -0.6488063115
O   O54       1.0  0.37680  0.08640  0.44170  1.0000 -0.6488063115
O   O55       1.0  0.62320  0.41360  0.94170  1.0000 -0.6488063115
O   O56       1.0  0.62320  0.58640  0.05830  1.0000 -0.6488063115
O   O57       1.0  0.24260  0.81120  0.57800  1.0000 -0.5917096588
O   O58       1.0  0.24260  0.18880  0.42200  1.0000 -0.5917096588
O   O59       1.0  0.75740  0.31120  0.92200  1.0000 -0.5917096588
O   O60       1.0  0.75740  0.68880  0.07800  1.0000 -0.5917096588
O   O61       1.0  0.73240  0.95370  0.53940  1.0000 -0.6798974354
O   O62       1.0  0.73240  0.04630  0.46060  1.0000 -0.6798974354
O   O63       1.0  0.26760  0.45370  0.96060  1.0000 -0.6798974354
O   O64       1.0  0.26760  0.54630  0.03940  1.0000 -0.6798974354
O   O65       1.0  0.30760  0.31030  0.32920  1.0000 -0.7598442215
O   O66       1.0  0.30760  0.68970  0.67080  1.0000 -0.7598442215
O   O67       1.0  0.69240  0.81030  0.17080  1.0000 -0.7598442215
O   O68       1.0  0.69240  0.18970  0.82920  1.0000 -0.7598442215
