# DDEC6 charges by PACMAN v1.1 (https://github.com/mtap-research/PACMAN-charge/)
data_2018[Gd][hcb]2[ASR]1
_chemical_formula_sum              "Gd4 C36 Br12 O24"
_cell_length_a       11.2637
_cell_length_b       22.5779
_cell_length_c       12.5762
_cell_angle_alpha    90
_cell_angle_beta     118.961
_cell_angle_gamma    90

_symmetry_space_group_name_H-M    "P 1"
_symmetry_Int_Tables_number       1

loop_
  _symmetry_equiv_pos_as_xyz
  'x, y, z'

loop_
  _atom_site_type_symbol
  _atom_site_label
  _atom_site_symmetry_multiplicity
  _atom_site_fract_x
  _atom_site_fract_y
  _atom_site_fract_z
  _atom_site_occupancy
  _atom_site_charge
Gd  Gd1       1.0  0.11783  0.61635  0.79147  1.0000 1.9415613254
Gd  Gd2       1.0  0.88217  0.11635  0.70853  1.0000 1.9415613254
Gd  Gd3       1.0  0.88217  0.38365  0.20853  1.0000 1.9415613254
Gd  Gd4       1.0  0.11783  0.88365  0.29147  1.0000 1.9415613254
C   C1        1.0  0.26330  0.76730  0.07430  1.0000 -0.1671070467
C   C2        1.0  0.19620  0.73080  0.97350  1.0000 0.2759006311
C   C3        1.0  0.04340  0.73500  0.89860  1.0000 0.2603813996
C   C4        1.0  0.97260  0.77230  0.93630  1.0000 -0.1571511599
C   C5        1.0  0.01760  0.44880  0.94060  1.0000 -0.1495821635
C   C6        1.0  0.06390  0.50300  0.92470  1.0000 0.2710841785
C   C7        1.0  0.04840  0.55820  0.99040  1.0000 0.3027849262
C   C8        1.0  0.03820  0.80420  0.04430  1.0000 0.2603813996
C   C9        1.0  0.19240  0.80060  0.11850  1.0000 0.2603813996
C   C10       1.0  0.73670  0.26730  0.42570  1.0000 -0.1671070467
C   C11       1.0  0.80380  0.23080  0.52650  1.0000 0.2759006311
C   C12       1.0  0.95660  0.23500  0.60140  1.0000 0.2603813996
C   C13       1.0  0.02740  0.27230  0.56370  1.0000 -0.1571511599
C   C14       1.0  0.98240  0.94880  0.55940  1.0000 -0.1495821635
C   C15       1.0  0.93610  0.00300  0.57530  1.0000 0.2710841785
C   C16       1.0  0.95160  0.05820  0.50960  1.0000 0.3027849262
C   C17       1.0  0.96180  0.30420  0.45570  1.0000 0.2542354604
C   C18       1.0  0.80760  0.30060  0.38150  1.0000 0.2710841785
C   C19       1.0  0.73670  0.23270  0.92570  1.0000 -0.1671070467
C   C20       1.0  0.80380  0.26920  0.02650  1.0000 0.2759006311
C   C21       1.0  0.95660  0.26500  0.10140  1.0000 0.2603813996
C   C22       1.0  0.02740  0.22770  0.06370  1.0000 -0.1571511599
C   C23       1.0  0.98240  0.55120  0.05940  1.0000 -0.1495821635
C   C24       1.0  0.93610  0.49700  0.07530  1.0000 0.2710841785
C   C25       1.0  0.95160  0.44180  0.00960  1.0000 0.3027849262
C   C26       1.0  0.96180  0.19580  0.95570  1.0000 0.2603813996
C   C27       1.0  0.80760  0.19940  0.88150  1.0000 0.2603813996
C   C28       1.0  0.26330  0.73270  0.57430  1.0000 -0.1671070467
C   C29       1.0  0.19620  0.76920  0.47350  1.0000 0.2759006311
C   C30       1.0  0.04340  0.76500  0.39860  1.0000 0.2603813996
C   C31       1.0  0.97260  0.72770  0.43630  1.0000 -0.1571511599
C   C32       1.0  0.01760  0.05120  0.44060  1.0000 -0.1495821635
C   C33       1.0  0.06390  0.99700  0.42470  1.0000 0.2710841785
C   C34       1.0  0.04840  0.94180  0.49040  1.0000 0.3027849262
C   C35       1.0  0.03820  0.69580  0.54430  1.0000 0.2542354604
C   C36       1.0  0.19240  0.69940  0.61850  1.0000 0.2710841785
Br  Br1       1.0  0.45426  0.76628  0.16551  1.0000 0.0488607625
Br  Br2       1.0  0.78172  0.77695  0.84307  1.0000 -0.0108708214
Br  Br3       1.0  0.03590  0.38117  0.85968  1.0000 -0.0720266766
Br  Br4       1.0  0.54574  0.26628  0.33449  1.0000 0.0488607625
Br  Br5       1.0  0.21828  0.27695  0.65693  1.0000 -0.0108708214
Br  Br6       1.0  0.96410  0.88117  0.64032  1.0000 -0.0758703957
Br  Br7       1.0  0.54574  0.23372  0.83449  1.0000 0.0440383842
Br  Br8       1.0  0.21828  0.22305  0.15693  1.0000 -0.0161719546
Br  Br9       1.0  0.96410  0.61883  0.14032  1.0000 -0.0720266766
Br  Br10      1.0  0.45426  0.73372  0.66551  1.0000 0.0488607625
Br  Br11      1.0  0.78172  0.72305  0.34307  1.0000 -0.0108708214
Br  Br12      1.0  0.03590  0.11883  0.35968  1.0000 -0.0638549859
O   O1        1.0  0.25300  0.69420  0.93770  1.0000 -0.473794126
O   O2        1.0  0.99190  0.70280  0.80430  1.0000 -0.4909752419
O   O3        1.0  0.11880  0.51325  0.86010  1.0000 -0.5905623148
O   O4        1.0  0.09710  0.60520  0.97540  1.0000 -0.4909752419
O   O5        1.0  0.98280  0.83630  0.08930  1.0000 -0.5031580488
O   O6        1.0  0.24580  0.82910  0.21590  1.0000 -0.5194773833
O   O7        1.0  0.74700  0.19420  0.56230  1.0000 -0.473794126
O   O8        1.0  0.00810  0.20280  0.69570  1.0000 -0.4839459072
O   O9        1.0  0.88120  0.01325  0.63990  1.0000 -0.5905623148
O   O10       1.0  0.90290  0.10520  0.52460  1.0000 -0.4909752419
O   O11       1.0  0.01720  0.33630  0.41070  1.0000 -0.5031580488
O   O12       1.0  0.75420  0.32910  0.28410  1.0000 -0.5194773833
O   O13       1.0  0.74700  0.30580  0.06230  1.0000 -0.473794126
O   O14       1.0  0.00810  0.29720  0.19570  1.0000 -0.4839459072
O   O15       1.0  0.88120  0.48675  0.13990  1.0000 -0.5905623148
O   O16       1.0  0.90290  0.39480  0.02460  1.0000 -0.4909752419
O   O17       1.0  0.01720  0.16370  0.91070  1.0000 -0.5031580488
O   O18       1.0  0.75420  0.17090  0.78410  1.0000 -0.5194773833
O   O19       1.0  0.25300  0.80580  0.43770  1.0000 -0.473794126
O   O20       1.0  0.99190  0.79720  0.30430  1.0000 -0.4909752419
O   O21       1.0  0.11880  0.98675  0.36010  1.0000 -0.5905623148
O   O22       1.0  0.09710  0.89480  0.47540  1.0000 -0.4909752419
O   O23       1.0  0.98280  0.66370  0.58930  1.0000 -0.5031580488
O   O24       1.0  0.24580  0.67090  0.71590  1.0000 -0.5194773833
