# DDEC6 charges by PACMAN v1.1 (https://github.com/mtap-research/PACMAN-charge/)
data_2018[Zn][sql]2[ASR]13
_chemical_formula_sum              "Zn2 H40 C30 N8 O8"
_cell_length_a       8.4154
_cell_length_b       8.6294
_cell_length_c       16.5502
_cell_angle_alpha    94.818
_cell_angle_beta     104.057
_cell_angle_gamma    110.031

_symmetry_space_group_name_H-M    "P 1"
_symmetry_Int_Tables_number       1

loop_
  _symmetry_equiv_pos_as_xyz
  'x, y, z'

loop_
  _atom_site_type_symbol
  _atom_site_label
  _atom_site_symmetry_multiplicity
  _atom_site_fract_x
  _atom_site_fract_y
  _atom_site_fract_z
  _atom_site_occupancy
  _atom_site_charge
Zn  Zn1       1.0  0.44601  0.98973  0.25115  1.0000 0.765116153
Zn  Zn2       1.0  0.55399  0.01027  0.74885  1.0000 0.765116153
H   H1        1.0  0.86127  0.79510  0.20563  1.0000 0.1191088839
H   H2        1.0  0.93654  0.77498  0.29857  1.0000 0.1104117879
H   H3        1.0  0.68813  0.54840  0.31019  1.0000 0.1104117879
H   H4        1.0  0.58050  0.57505  0.22445  1.0000 0.1191088839
H   H5        1.0  0.83203  0.13903  0.02718  1.0000 0.1191088839
H   H6        1.0  0.72516  0.98975  0.95041  1.0000 0.1191088839
H   H7        1.0  0.35928  0.82321  0.40719  1.0000 0.1191088839
H   H8        1.0  0.71382  0.12840  0.15283  1.0000 0.1191088839
H   H9        1.0  0.88110  0.48742  0.24133  1.0000 0.0994570756
H   H10       1.0  0.77363  0.51503  0.15568  1.0000 0.0832535367
H   H11       1.0  0.89470  0.83926  0.01058  1.0000 0.1104117879
H   H12       1.0  0.00395  0.99195  0.08572  1.0000 0.1104117879
H   H13       1.0  0.52071  0.69860  0.99310  1.0000 0.1404991427
H   H14       1.0  0.81449  0.96975  0.35721  1.0000 0.1284703442
H   H15       1.0  0.85316  0.85501  0.48694  1.0000 0.1284703442
H   H16       1.0  0.42958  0.72050  0.54352  1.0000 0.1191088839
H   H17       1.0  0.62938  0.80410  0.59641  1.0000 0.1284703442
H   H18       1.0  0.36255  0.66889  0.10055  1.0000 0.1404991427
H   H19       1.0  0.68197  0.57520  0.53807  1.0000 0.1104117879
H   H20       1.0  0.54238  0.51706  0.58798  1.0000 0.1191088839
H   H21       1.0  0.13873  0.20490  0.79437  1.0000 0.1191088839
H   H22       1.0  0.06346  0.22502  0.70143  1.0000 0.1104117879
H   H23       1.0  0.31187  0.45160  0.68981  1.0000 0.1104117879
H   H24       1.0  0.41950  0.42495  0.77555  1.0000 0.1191088839
H   H25       1.0  0.16797  0.86097  0.97282  1.0000 0.1191088839
H   H26       1.0  0.27484  0.01025  0.04959  1.0000 0.1191088839
H   H27       1.0  0.64072  0.17679  0.59281  1.0000 0.1191088839
H   H28       1.0  0.28618  0.87160  0.84717  1.0000 0.1191088839
H   H29       1.0  0.11890  0.51258  0.75867  1.0000 0.0994570756
H   H30       1.0  0.22637  0.48497  0.84432  1.0000 0.0832535367
H   H31       1.0  0.10530  0.16074  0.98942  1.0000 0.1104117879
H   H32       1.0  0.99605  0.00805  0.91428  1.0000 0.1104117879
H   H33       1.0  0.47929  0.30140  0.00690  1.0000 0.1404991427
H   H34       1.0  0.18551  0.03025  0.64279  1.0000 0.1284703442
H   H35       1.0  0.14684  0.14499  0.51306  1.0000 0.1284703442
H   H36       1.0  0.57042  0.27950  0.45648  1.0000 0.1191088839
H   H37       1.0  0.37062  0.19590  0.40359  1.0000 0.1284703442
H   H38       1.0  0.63745  0.33111  0.89945  1.0000 0.1404991427
H   H39       1.0  0.31803  0.42480  0.46193  1.0000 0.1104117879
H   H40       1.0  0.45762  0.48294  0.41202  1.0000 0.1191088839
C   C1        1.0  0.92420  0.73650  0.23977  1.0000 -0.3388558051
C   C2        1.0  0.64970  0.51200  0.24919  1.0000 -0.3482575438
C   C3        1.0  0.78700  0.01800  0.01052  1.0000 -0.1142877212
C   C4        1.0  0.47740  0.84620  0.41076  1.0000 0.0832535367
C   C5        1.0  0.64580  0.01750  0.12681  1.0000 0.0832535367
C   C6        1.0  0.81140  0.55020  0.21675  1.0000 -0.103702769
C   C7        1.0  0.93890  0.96050  0.02600  1.0000 -0.1689959264
C   C8        1.0  0.54020  0.78110  0.03834  1.0000 -0.103702769
C   C9        1.0  0.53480  0.32710  0.22768  1.0000 0.6085962632
C   C10       1.0  0.72740  0.92610  0.38363  1.0000 -0.0382076672
C   C11       1.0  0.74970  0.86320  0.45522  1.0000 -0.1182535461
C   C12       1.0  0.10670  0.78670  0.22830  1.0000 0.5921570638
C   C13       1.0  0.54860  0.73280  0.54352  1.0000 -0.128365027
C   C14       1.0  0.45330  0.76540  0.09790  1.0000 -0.0382076672
C   C15       1.0  0.56260  0.56160  0.53790  1.0000 -0.1947876534
C   C16       1.0  0.07580  0.26350  0.76023  1.0000 -0.3388558051
C   C17       1.0  0.35030  0.48800  0.75081  1.0000 -0.3482575438
C   C18       1.0  0.21300  0.98200  0.98948  1.0000 -0.1182535461
C   C19       1.0  0.52260  0.15380  0.58924  1.0000 0.0832535367
C   C20       1.0  0.35420  0.98250  0.87319  1.0000 0.0832535367
C   C21       1.0  0.18860  0.44980  0.78325  1.0000 -0.103702769
C   C22       1.0  0.06110  0.03950  0.97400  1.0000 -0.1689959264
C   C23       1.0  0.45980  0.21890  0.96166  1.0000 -0.103702769
C   C24       1.0  0.46520  0.67290  0.77232  1.0000 0.6085962632
C   C25       1.0  0.27260  0.07390  0.61637  1.0000 -0.0382076672
C   C26       1.0  0.25030  0.13680  0.54478  1.0000 -0.1182535461
C   C27       1.0  0.89330  0.21330  0.77170  1.0000 0.5921570638
C   C28       1.0  0.45140  0.26720  0.45648  1.0000 -0.128365027
C   C29       1.0  0.54670  0.23460  0.90210  1.0000 -0.0382076672
C   C30       1.0  0.43740  0.43840  0.46210  1.0000 -0.1947876534
N   N1        1.0  0.52060  0.91510  0.15388  1.0000 -0.2959494314
N   N2        1.0  0.59020  0.81330  0.47239  1.0000 0.0410577224
N   N3        1.0  0.66220  0.94140  0.05749  1.0000 0.0410577224
N   N4        1.0  0.55610  0.91590  0.35552  1.0000 -0.282691168
N   N5        1.0  0.47940  0.08490  0.84612  1.0000 -0.2959494314
N   N6        1.0  0.40980  0.18670  0.52761  1.0000 0.0410577224
N   N7        1.0  0.33780  0.05860  0.94251  1.0000 0.0410577224
N   N8        1.0  0.44390  0.08410  0.64448  1.0000 -0.282691168
O   O1        1.0  0.58590  0.23551  0.27702  1.0000 -0.5949967525
O   O2        1.0  0.40450  0.27020  0.16544  1.0000 -0.5685175082
O   O3        1.0  0.20251  0.94371  0.25205  1.0000 -0.5783226511
O   O4        1.0  0.16210  0.68670  0.20093  1.0000 -0.5504574201
O   O5        1.0  0.41410  0.76449  0.72298  1.0000 -0.5949967525
O   O6        1.0  0.59550  0.72980  0.83456  1.0000 -0.5685175082
O   O7        1.0  0.79749  0.05629  0.74795  1.0000 -0.5783226511
O   O8        1.0  0.83790  0.31330  0.79907  1.0000 -0.5504574201
