# DDEC6 charges by PACMAN v1.1 (https://github.com/mtap-research/PACMAN-charge/)
data_2018[Nd][nan]3[ASR]3
_chemical_formula_sum              "Nd6 H18 C42 N6 O30"
_cell_length_a       11.936
_cell_length_b       11.936
_cell_length_c       15.797
_cell_angle_alpha    90
_cell_angle_beta     90
_cell_angle_gamma    120

_symmetry_space_group_name_H-M    "P 1"
_symmetry_Int_Tables_number       1

loop_
  _symmetry_equiv_pos_as_xyz
  'x, y, z'

loop_
  _atom_site_type_symbol
  _atom_site_label
  _atom_site_symmetry_multiplicity
  _atom_site_fract_x
  _atom_site_fract_y
  _atom_site_fract_z
  _atom_site_occupancy
  _atom_site_charge
Nd  Nd1       1.0  0.82248  0.64496  0.75000  1.0000 2.0964896253
Nd  Nd2       1.0  0.82248  0.17752  0.41667  1.0000 2.0964896253
Nd  Nd3       1.0  0.35504  0.17752  0.08333  1.0000 2.0964896253
Nd  Nd4       1.0  0.17752  0.35504  0.25000  1.0000 2.0964896253
Nd  Nd5       1.0  0.17752  0.82248  0.91667  1.0000 2.0964896253
Nd  Nd6       1.0  0.64496  0.82248  0.58333  1.0000 2.0964896253
H   H1        1.0  0.77740  0.35869  0.65029  1.0000 0.1147843695
H   H2        1.0  0.58129  0.22260  0.31695  1.0000 0.1147843695
H   H3        1.0  0.64131  0.41871  0.98362  1.0000 0.1147843695
H   H4        1.0  0.22260  0.64131  0.15029  1.0000 0.1147843695
H   H5        1.0  0.41871  0.77740  0.81695  1.0000 0.1147843695
H   H6        1.0  0.35869  0.58129  0.48362  1.0000 0.1147843695
H   H7        1.0  0.41871  0.64131  0.34971  1.0000 0.1147843695
H   H8        1.0  0.35869  0.77740  0.68305  1.0000 0.1147843695
H   H9        1.0  0.22260  0.58129  0.01638  1.0000 0.1147843695
H   H10       1.0  0.58129  0.35869  0.84971  1.0000 0.1147843695
H   H11       1.0  0.64131  0.22260  0.18305  1.0000 0.1147843695
H   H12       1.0  0.77740  0.41871  0.51638  1.0000 0.1147843695
H   H13       1.0  0.50953  0.01906  0.75000  1.0000 0.1364836913
H   H14       1.0  0.50953  0.49047  0.41667  1.0000 0.1364836913
H   H15       1.0  0.98094  0.49047  0.08333  1.0000 0.1364836913
H   H16       1.0  0.49047  0.98094  0.25000  1.0000 0.1364836913
H   H17       1.0  0.49047  0.50953  0.91667  1.0000 0.1364836913
H   H18       1.0  0.01906  0.50953  0.58333  1.0000 0.1364836913
C   C1        1.0  0.71200  0.31300  0.69217  1.0000 0.0708869028
C   C2        1.0  0.64800  0.18300  0.68887  1.0000 -0.0666445131
C   C3        1.0  0.66500  0.11310  0.61387  1.0000 0.6409654191
C   C4        1.0  0.60100  0.28800  0.35883  1.0000 0.0708869028
C   C5        1.0  0.53500  0.35200  0.35553  1.0000 -0.0666445131
C   C6        1.0  0.44810  0.33500  0.28053  1.0000 0.6409654191
C   C7        1.0  0.68700  0.39900  0.02550  1.0000 0.0708869028
C   C8        1.0  0.81700  0.46500  0.02220  1.0000 -0.0666445131
C   C9        1.0  0.88690  0.55190  0.94720  1.0000 0.6409654191
C   C10       1.0  0.28800  0.68700  0.19217  1.0000 0.0708869028
C   C11       1.0  0.35200  0.81700  0.18887  1.0000 -0.0666445131
C   C12       1.0  0.33500  0.88690  0.11387  1.0000 0.6409654191
C   C13       1.0  0.39900  0.71200  0.85883  1.0000 0.0708869028
C   C14       1.0  0.46500  0.64800  0.85553  1.0000 -0.0666445131
C   C15       1.0  0.55190  0.66500  0.78053  1.0000 0.6409654191
C   C16       1.0  0.31300  0.60100  0.52550  1.0000 0.0708869028
C   C17       1.0  0.18300  0.53500  0.52220  1.0000 -0.0666445131
C   C18       1.0  0.11310  0.44810  0.44720  1.0000 0.6409654191
C   C19       1.0  0.39900  0.68700  0.30783  1.0000 0.0708869028
C   C20       1.0  0.46500  0.81700  0.31113  1.0000 -0.0666445131
C   C21       1.0  0.55190  0.88690  0.38613  1.0000 0.6409654191
C   C22       1.0  0.31300  0.71200  0.64117  1.0000 0.0708869028
C   C23       1.0  0.18300  0.64800  0.64447  1.0000 -0.0666445131
C   C24       1.0  0.11310  0.66500  0.71947  1.0000 0.6409654191
C   C25       1.0  0.28800  0.60100  0.97450  1.0000 0.0708869028
C   C26       1.0  0.35200  0.53500  0.97780  1.0000 -0.0666445131
C   C27       1.0  0.33500  0.44810  0.05280  1.0000 0.6409654191
C   C28       1.0  0.60100  0.31300  0.80783  1.0000 0.0708869028
C   C29       1.0  0.53500  0.18300  0.81113  1.0000 -0.0666445131
C   C30       1.0  0.44810  0.11310  0.88613  1.0000 0.6409654191
C   C31       1.0  0.68700  0.28800  0.14117  1.0000 0.0708869028
C   C32       1.0  0.81700  0.35200  0.14447  1.0000 -0.0666445131
C   C33       1.0  0.88690  0.33500  0.21947  1.0000 0.6409654191
C   C34       1.0  0.71200  0.39900  0.47450  1.0000 0.0708869028
C   C35       1.0  0.64800  0.46500  0.47780  1.0000 -0.0666445131
C   C36       1.0  0.66500  0.55190  0.55280  1.0000 0.6409654191
C   C37       1.0  0.55560  0.11120  0.75000  1.0000 -0.0526388229
C   C38       1.0  0.55560  0.44440  0.41667  1.0000 -0.0526388229
C   C39       1.0  0.88880  0.44440  0.08333  1.0000 -0.0526388229
C   C40       1.0  0.44440  0.88880  0.25000  1.0000 -0.0526388229
C   C41       1.0  0.44440  0.55560  0.91667  1.0000 -0.0526388229
C   C42       1.0  0.11120  0.55560  0.58333  1.0000 -0.0526388229
N   N1        1.0  0.69160  0.38320  0.75000  1.0000 -0.3230574755
N   N2        1.0  0.69160  0.30840  0.41667  1.0000 -0.3230574755
N   N3        1.0  0.61680  0.30840  0.08333  1.0000 -0.3230574755
N   N4        1.0  0.30840  0.61680  0.25000  1.0000 -0.3230574755
N   N5        1.0  0.30840  0.69160  0.91667  1.0000 -0.3230574755
N   N6        1.0  0.38320  0.69160  0.58333  1.0000 -0.3230574755
O   O1        1.0  0.74470  0.18150  0.55767  1.0000 -0.6094026097
O   O2        1.0  0.59900  0.99100  0.61307  1.0000 -0.6264095136
O   O3        1.0  0.43680  0.25530  0.22433  1.0000 -0.6094026097
O   O4        1.0  0.39200  0.40100  0.27973  1.0000 -0.6264095136
O   O5        1.0  0.81850  0.56320  0.89100  1.0000 -0.6094026097
O   O6        1.0  0.00900  0.60800  0.94640  1.0000 -0.6264095136
O   O7        1.0  0.25530  0.81850  0.05767  1.0000 -0.6094026097
O   O8        1.0  0.40100  0.00900  0.11307  1.0000 -0.6264095136
O   O9        1.0  0.56320  0.74470  0.72433  1.0000 -0.6094026097
O   O10       1.0  0.60800  0.59900  0.77973  1.0000 -0.6264095136
O   O11       1.0  0.18150  0.43680  0.39100  1.0000 -0.6094026097
O   O12       1.0  0.99100  0.39200  0.44640  1.0000 -0.6264095136
O   O13       1.0  0.56320  0.81850  0.44233  1.0000 -0.6094026097
O   O14       1.0  0.60800  0.00900  0.38693  1.0000 -0.6264095136
O   O15       1.0  0.18150  0.74470  0.77567  1.0000 -0.6094026097
O   O16       1.0  0.99100  0.59900  0.72027  1.0000 -0.6264095136
O   O17       1.0  0.25530  0.43680  0.10900  1.0000 -0.6094026097
O   O18       1.0  0.40100  0.39200  0.05360  1.0000 -0.6264095136
O   O19       1.0  0.43680  0.18150  0.94233  1.0000 -0.6094026097
O   O20       1.0  0.39200  0.99100  0.88693  1.0000 -0.6264095136
O   O21       1.0  0.81850  0.25530  0.27567  1.0000 -0.6094026097
O   O22       1.0  0.00900  0.40100  0.22027  1.0000 -0.6264095136
O   O23       1.0  0.74470  0.56320  0.60900  1.0000 -0.6094026097
O   O24       1.0  0.59900  0.60800  0.55360  1.0000 -0.6264095136
O   O25       1.0  0.00000  0.82900  0.83333  1.0000 -0.9025324412
O   O26       1.0  0.82900  0.00000  0.50000  1.0000 -0.9025324412
O   O27       1.0  0.17100  0.17100  0.16667  1.0000 -0.9025324412
O   O28       1.0  0.00000  0.17100  0.33333  1.0000 -0.9025324412
O   O29       1.0  0.17100  0.00000  0.00000  1.0000 -0.9211605617
O   O30       1.0  0.82900  0.82900  0.66667  1.0000 -0.9025324412
