# DDEC6 charges by PACMAN v1.1 (https://github.com/mtap-research/PACMAN-charge/)
data_2018[Zn][crb]3[ASR]1
_chemical_formula_sum              "Zn8 H32 C64 O36"
_cell_length_a       5.8871
_cell_length_b       16.349
_cell_length_c       22.8647
_cell_angle_alpha    90
_cell_angle_beta     98.9323
_cell_angle_gamma    90

_symmetry_space_group_name_H-M    "P 1"
_symmetry_Int_Tables_number       1

loop_
  _symmetry_equiv_pos_as_xyz
  'x, y, z'

loop_
  _atom_site_type_symbol
  _atom_site_label
  _atom_site_symmetry_multiplicity
  _atom_site_fract_x
  _atom_site_fract_y
  _atom_site_fract_z
  _atom_site_occupancy
  _atom_site_charge
Zn  Zn1       1.0  0.86822  0.12671  0.90852  1.0000 0.9364177371
Zn  Zn2       1.0  0.34706  0.05642  0.10236  1.0000 0.9364177371
Zn  Zn3       1.0  0.13178  0.62671  0.59148  1.0000 0.9364177371
Zn  Zn4       1.0  0.65294  0.55642  0.39764  1.0000 0.9364177371
Zn  Zn5       1.0  0.13178  0.87329  0.09148  1.0000 0.9364177371
Zn  Zn6       1.0  0.65294  0.94358  0.89764  1.0000 0.9364177371
Zn  Zn7       1.0  0.86822  0.37329  0.40852  1.0000 0.9364177371
Zn  Zn8       1.0  0.34706  0.44358  0.60236  1.0000 0.9364177371
H   H1        1.0  0.77130  0.01700  0.97400  1.0000 0.3030771995
H   H2        1.0  0.97650  0.00290  0.95960  1.0000 0.3319641287
H   H3        1.0  0.83440  0.37830  0.97870  1.0000 0.1182318051
H   H4        1.0  0.75550  0.49680  0.02820  1.0000 0.1182318051
H   H5        1.0  0.55010  0.48890  0.10860  1.0000 0.1182318051
H   H6        1.0  0.60920  0.43240  0.21320  1.0000 0.1275551254
H   H7        1.0  0.91690  0.28830  0.20090  1.0000 0.1275551254
H   H8        1.0  0.11010  0.29240  0.11890  1.0000 0.1182318051
H   H9        1.0  0.22870  0.51700  0.52600  1.0000 0.3030771995
H   H10       1.0  0.02350  0.50290  0.54040  1.0000 0.3319641287
H   H11       1.0  0.16560  0.87830  0.52130  1.0000 0.1182318051
H   H12       1.0  0.24450  0.99680  0.47180  1.0000 0.1182318051
H   H13       1.0  0.44990  0.98890  0.39140  1.0000 0.1182318051
H   H14       1.0  0.39080  0.93240  0.28680  1.0000 0.1275551254
H   H15       1.0  0.08310  0.78830  0.29910  1.0000 0.1275551254
H   H16       1.0  0.88990  0.79240  0.38110  1.0000 0.1182318051
H   H17       1.0  0.22870  0.98300  0.02600  1.0000 0.3030771995
H   H18       1.0  0.02350  0.99710  0.04040  1.0000 0.3319641287
H   H19       1.0  0.16560  0.62170  0.02130  1.0000 0.1182318051
H   H20       1.0  0.24450  0.50320  0.97180  1.0000 0.1182318051
H   H21       1.0  0.44990  0.51110  0.89140  1.0000 0.1182318051
H   H22       1.0  0.39080  0.56760  0.78680  1.0000 0.1275551254
H   H23       1.0  0.08310  0.71170  0.79910  1.0000 0.1275551254
H   H24       1.0  0.88990  0.70760  0.88110  1.0000 0.1182318051
H   H25       1.0  0.77130  0.48300  0.47400  1.0000 0.3030771995
H   H26       1.0  0.97650  0.49710  0.45960  1.0000 0.3319641287
H   H27       1.0  0.83440  0.12170  0.47870  1.0000 0.1182318051
H   H28       1.0  0.75550  0.00320  0.52820  1.0000 0.1182318051
H   H29       1.0  0.55010  0.01110  0.60860  1.0000 0.1182318051
H   H30       1.0  0.60920  0.06760  0.71320  1.0000 0.1275551254
H   H31       1.0  0.91690  0.21170  0.70090  1.0000 0.1275551254
H   H32       1.0  0.11010  0.20760  0.61890  1.0000 0.1182318051
C   C1        1.0  0.51110  0.36490  0.10720  1.0000 0.0458922396
C   C2        1.0  0.56930  0.29410  0.07950  1.0000 -0.0507126031
C   C3        1.0  0.69260  0.29940  0.03090  1.0000 -0.0314374627
C   C4        1.0  0.75600  0.37480  0.01200  1.0000 -0.119629058
C   C5        1.0  0.70680  0.44520  0.04080  1.0000 -0.0999870663
C   C6        1.0  0.58370  0.44040  0.08870  1.0000 -0.1371570294
C   C7        1.0  0.38530  0.36250  0.15910  1.0000 0.0768092284
C   C8        1.0  0.46950  0.40250  0.21050  1.0000 -0.160966522
C   C9        1.0  0.35070  0.39990  0.25980  1.0000 -8.10995e-05
C   C10       1.0  0.14630  0.35750  0.25530  1.0000 -0.0213933577
C   C11       1.0  0.05760  0.31740  0.20320  1.0000 -0.0827586455
C   C12       1.0  0.17260  0.31940  0.15460  1.0000 -0.119629058
C   C13       1.0  0.50940  0.21150  0.10110  1.0000 0.5715463544
C   C14       1.0  0.76950  0.22340  0.00380  1.0000 0.5715463544
C   C15       1.0  0.46970  0.43420  0.31800  1.0000 0.603867882
C   C16       1.0  0.01660  0.35550  0.30760  1.0000 0.5575426752
C   C17       1.0  0.48890  0.86490  0.39280  1.0000 0.0458922396
C   C18       1.0  0.43070  0.79410  0.42050  1.0000 -0.0507126031
C   C19       1.0  0.30740  0.79940  0.46910  1.0000 -0.0314374627
C   C20       1.0  0.24400  0.87480  0.48800  1.0000 -0.119629058
C   C21       1.0  0.29320  0.94520  0.45920  1.0000 -0.0999870663
C   C22       1.0  0.41630  0.94040  0.41130  1.0000 -0.1371570294
C   C23       1.0  0.61470  0.86250  0.34090  1.0000 0.0768092284
C   C24       1.0  0.53050  0.90250  0.28950  1.0000 -0.160966522
C   C25       1.0  0.64930  0.89990  0.24020  1.0000 -8.10995e-05
C   C26       1.0  0.85370  0.85750  0.24470  1.0000 -0.0213933577
C   C27       1.0  0.94240  0.81740  0.29680  1.0000 -0.0827586455
C   C28       1.0  0.82740  0.81940  0.34540  1.0000 -0.119629058
C   C29       1.0  0.49060  0.71150  0.39890  1.0000 0.5715463544
C   C30       1.0  0.23050  0.72340  0.49620  1.0000 0.5715463544
C   C31       1.0  0.53030  0.93420  0.18200  1.0000 0.603867882
C   C32       1.0  0.98340  0.85550  0.19240  1.0000 0.5575426752
C   C33       1.0  0.48890  0.63510  0.89280  1.0000 0.0458922396
C   C34       1.0  0.43070  0.70590  0.92050  1.0000 -0.0507126031
C   C35       1.0  0.30740  0.70060  0.96910  1.0000 -0.0314374627
C   C36       1.0  0.24400  0.62520  0.98800  1.0000 -0.119629058
C   C37       1.0  0.29320  0.55480  0.95920  1.0000 -0.0999870663
C   C38       1.0  0.41630  0.55960  0.91130  1.0000 -0.1371570294
C   C39       1.0  0.61470  0.63750  0.84090  1.0000 0.0768092284
C   C40       1.0  0.53050  0.59750  0.78950  1.0000 -0.160966522
C   C41       1.0  0.64930  0.60010  0.74020  1.0000 -8.10995e-05
C   C42       1.0  0.85370  0.64250  0.74470  1.0000 -0.0213933577
C   C43       1.0  0.94240  0.68260  0.79680  1.0000 -0.0827586455
C   C44       1.0  0.82740  0.68060  0.84540  1.0000 -0.119629058
C   C45       1.0  0.49060  0.78850  0.89890  1.0000 0.5715463544
C   C46       1.0  0.23050  0.77660  0.99620  1.0000 0.5715463544
C   C47       1.0  0.53030  0.56580  0.68200  1.0000 0.603867882
C   C48       1.0  0.98340  0.64450  0.69240  1.0000 0.5575426752
C   C49       1.0  0.51110  0.13510  0.60720  1.0000 0.0458922396
C   C50       1.0  0.56930  0.20590  0.57950  1.0000 -0.0507126031
C   C51       1.0  0.69260  0.20060  0.53090  1.0000 -0.0314374627
C   C52       1.0  0.75600  0.12520  0.51200  1.0000 -0.119629058
C   C53       1.0  0.70680  0.05480  0.54080  1.0000 -0.0999870663
C   C54       1.0  0.58370  0.05960  0.58870  1.0000 -0.1371570294
C   C55       1.0  0.38530  0.13750  0.65910  1.0000 0.0768092284
C   C56       1.0  0.46950  0.09750  0.71050  1.0000 -0.160966522
C   C57       1.0  0.35070  0.10010  0.75980  1.0000 -8.10995e-05
C   C58       1.0  0.14630  0.14250  0.75530  1.0000 -0.0213933577
C   C59       1.0  0.05760  0.18260  0.70320  1.0000 -0.0827586455
C   C60       1.0  0.17260  0.18060  0.65460  1.0000 -0.119629058
C   C61       1.0  0.50940  0.28850  0.60110  1.0000 0.5715463544
C   C62       1.0  0.76950  0.27660  0.50380  1.0000 0.5715463544
C   C63       1.0  0.46970  0.06580  0.81800  1.0000 0.603867882
C   C64       1.0  0.01660  0.14450  0.80760  1.0000 0.5575426752
O   O1        1.0  0.36620  0.16810  0.06760  1.0000 -0.546296007
O   O2        1.0  0.60200  0.18820  0.15120  1.0000 -0.4779681032
O   O3        1.0  0.76060  0.22420  0.94790  1.0000 -0.5305488473
O   O4        1.0  0.84150  0.16480  0.03570  1.0000 -0.5409237211
O   O5        1.0  0.51660  0.51020  0.31880  1.0000 -0.5245485371
O   O6        1.0  0.51880  0.38500  0.35980  1.0000 -0.5305488473
O   O7        1.0  0.01590  0.41990  0.33810  1.0000 -0.5617709821
O   O8        1.0  0.92040  0.29140  0.31960  1.0000 -0.4951314097
O   O9        1.0  0.84690  0.01960  0.94680  1.0000 -0.6317825829
O   O10       1.0  0.63380  0.66810  0.43240  1.0000 -0.546296007
O   O11       1.0  0.39800  0.68820  0.34880  1.0000 -0.4779681032
O   O12       1.0  0.23940  0.72420  0.55210  1.0000 -0.5305488473
O   O13       1.0  0.15850  0.66480  0.46430  1.0000 -0.5409237211
O   O14       1.0  0.48340  0.01020  0.18120  1.0000 -0.5245485371
O   O15       1.0  0.48120  0.88500  0.14020  1.0000 -0.5305488473
O   O16       1.0  0.98410  0.91990  0.16190  1.0000 -0.5617709821
O   O17       1.0  0.07960  0.79140  0.18040  1.0000 -0.4945236807
O   O18       1.0  0.15310  0.51960  0.55320  1.0000 -0.6317825829
O   O19       1.0  0.63380  0.83190  0.93240  1.0000 -0.546296007
O   O20       1.0  0.39800  0.81180  0.84880  1.0000 -0.4779681032
O   O21       1.0  0.23940  0.77580  0.05210  1.0000 -0.5305488473
O   O22       1.0  0.15850  0.83520  0.96430  1.0000 -0.5409237211
O   O23       1.0  0.48340  0.48980  0.68120  1.0000 -0.5245485371
O   O24       1.0  0.48120  0.61500  0.64020  1.0000 -0.5305488473
O   O25       1.0  0.98410  0.58010  0.66190  1.0000 -0.5617709821
O   O26       1.0  0.07960  0.70860  0.68040  1.0000 -0.4951314097
O   O27       1.0  0.15310  0.98040  0.05320  1.0000 -0.6317825829
O   O28       1.0  0.36620  0.33190  0.56760  1.0000 -0.546296007
O   O29       1.0  0.60200  0.31180  0.65120  1.0000 -0.4779681032
O   O30       1.0  0.76060  0.27580  0.44790  1.0000 -0.5305488473
O   O31       1.0  0.84150  0.33520  0.53570  1.0000 -0.5409237211
O   O32       1.0  0.51660  0.98980  0.81880  1.0000 -0.5245485371
O   O33       1.0  0.51880  0.11500  0.85980  1.0000 -0.5305488473
O   O34       1.0  0.01590  0.08010  0.83810  1.0000 -0.5617709821
O   O35       1.0  0.92040  0.20860  0.81960  1.0000 -0.4951314097
O   O36       1.0  0.84690  0.48040  0.44680  1.0000 -0.6317825829
