# DDEC6 charges by PACMAN v1.1 (https://github.com/mtap-research/PACMAN-charge/)
data_2018[U][tbo]3[ASR]1
_chemical_formula_sum              "U8 H96 C180 O48"
_cell_length_a       31.1017
_cell_length_b       31.1017
_cell_length_c       31.1017
_cell_angle_alpha    60
_cell_angle_beta     60
_cell_angle_gamma    60

_symmetry_space_group_name_H-M    "P 1"
_symmetry_Int_Tables_number       1

loop_
  _symmetry_equiv_pos_as_xyz
  'x, y, z'

loop_
  _atom_site_type_symbol
  _atom_site_label
  _atom_site_symmetry_multiplicity
  _atom_site_fract_x
  _atom_site_fract_y
  _atom_site_fract_z
  _atom_site_occupancy
  _atom_site_charge
U   U1        1.0  0.01418  0.66194  0.66194  1.0000 2.1094423483
U   U2        1.0  0.66194  0.66194  0.01418  1.0000 2.1189319442
U   U3        1.0  0.66194  0.01418  0.66194  1.0000 2.1189319442
U   U4        1.0  0.66194  0.66194  0.66194  1.0000 2.1094423483
U   U5        1.0  0.98582  0.33806  0.33806  1.0000 2.126317377
U   U6        1.0  0.33806  0.33806  0.98582  1.0000 2.1189319442
U   U7        1.0  0.33806  0.33806  0.33806  1.0000 2.126317377
U   U8        1.0  0.33806  0.98582  0.33806  1.0000 2.1189319442
H   H1        1.0  0.01491  0.64019  0.83053  1.0000 0.1209580815
H   H2        1.0  0.01952  0.59640  0.91490  1.0000 0.1136257836
H   H3        1.0  0.83053  0.51437  0.01491  1.0000 0.1209580815
H   H4        1.0  0.91490  0.46918  0.01952  1.0000 0.1136257836
H   H5        1.0  0.64019  0.01491  0.51437  1.0000 0.1209580815
H   H6        1.0  0.59640  0.01952  0.46918  1.0000 0.1136257836
H   H7        1.0  0.51437  0.83053  0.64019  1.0000 0.1209580815
H   H8        1.0  0.46918  0.91490  0.59640  1.0000 0.1136257836
H   H9        1.0  0.64019  0.83053  0.01491  1.0000 0.1209580815
H   H10       1.0  0.59640  0.91490  0.01952  1.0000 0.1136257836
H   H11       1.0  0.51437  0.01491  0.83053  1.0000 0.1209580815
H   H12       1.0  0.46918  0.01952  0.91490  1.0000 0.1136257836
H   H13       1.0  0.01491  0.51437  0.64019  1.0000 0.1209580815
H   H14       1.0  0.01952  0.46918  0.59640  1.0000 0.1136257836
H   H15       1.0  0.83053  0.64019  0.51437  1.0000 0.1209580815
H   H16       1.0  0.91490  0.59640  0.46918  1.0000 0.1136257836
H   H17       1.0  0.83053  0.01491  0.64019  1.0000 0.1209580815
H   H18       1.0  0.91490  0.01952  0.59640  1.0000 0.1136257836
H   H19       1.0  0.01491  0.83053  0.51437  1.0000 0.1209580815
H   H20       1.0  0.01952  0.91490  0.46918  1.0000 0.1136257836
H   H21       1.0  0.51437  0.64019  0.01491  1.0000 0.1209580815
H   H22       1.0  0.46918  0.59640  0.01952  1.0000 0.1136257836
H   H23       1.0  0.64019  0.51437  0.83053  1.0000 0.1209580815
H   H24       1.0  0.59640  0.46918  0.91490  1.0000 0.1136257836
H   H25       1.0  0.98509  0.48563  0.16947  1.0000 0.1209580815
H   H26       1.0  0.98048  0.53082  0.08510  1.0000 0.1136257836
H   H27       1.0  0.16947  0.35981  0.98509  1.0000 0.1209580815
H   H28       1.0  0.08510  0.40360  0.98048  1.0000 0.1136257836
H   H29       1.0  0.35981  0.16947  0.48563  1.0000 0.1209580815
H   H30       1.0  0.40360  0.08510  0.53082  1.0000 0.1136257836
H   H31       1.0  0.48563  0.98509  0.35981  1.0000 0.1209580815
H   H32       1.0  0.53082  0.98048  0.40360  1.0000 0.1136257836
H   H33       1.0  0.35981  0.48563  0.98509  1.0000 0.1209580815
H   H34       1.0  0.40360  0.53082  0.98048  1.0000 0.1136257836
H   H35       1.0  0.48563  0.35981  0.16947  1.0000 0.1209580815
H   H36       1.0  0.53082  0.40360  0.08510  1.0000 0.1136257836
H   H37       1.0  0.98509  0.16947  0.35981  1.0000 0.1209580815
H   H38       1.0  0.98048  0.08510  0.40360  1.0000 0.1136257836
H   H39       1.0  0.16947  0.98509  0.48563  1.0000 0.1209580815
H   H40       1.0  0.08510  0.98048  0.53082  1.0000 0.1136257836
H   H41       1.0  0.16947  0.48563  0.35981  1.0000 0.1209580815
H   H42       1.0  0.08510  0.53082  0.40360  1.0000 0.1136257836
H   H43       1.0  0.98509  0.35981  0.48563  1.0000 0.1209580815
H   H44       1.0  0.98048  0.40360  0.53082  1.0000 0.1136257836
H   H45       1.0  0.48563  0.16947  0.98509  1.0000 0.1209580815
H   H46       1.0  0.53082  0.08510  0.98048  1.0000 0.1136257836
H   H47       1.0  0.35981  0.98509  0.16947  1.0000 0.1209580815
H   H48       1.0  0.40360  0.98048  0.08510  1.0000 0.1136257836
H   H49       1.0  0.98509  0.35981  0.16947  1.0000 0.1209580815
H   H50       1.0  0.98048  0.40360  0.08510  1.0000 0.1136257836
H   H51       1.0  0.16947  0.48563  0.98509  1.0000 0.1209580815
H   H52       1.0  0.08510  0.53082  0.98048  1.0000 0.1136257836
H   H53       1.0  0.35981  0.98509  0.48563  1.0000 0.1209580815
H   H54       1.0  0.40360  0.98048  0.53082  1.0000 0.1136257836
H   H55       1.0  0.48563  0.16947  0.35981  1.0000 0.1209580815
H   H56       1.0  0.53082  0.08510  0.40360  1.0000 0.1136257836
H   H57       1.0  0.35981  0.16947  0.98509  1.0000 0.1209580815
H   H58       1.0  0.40360  0.08510  0.98048  1.0000 0.1136257836
H   H59       1.0  0.48563  0.98509  0.16947  1.0000 0.1209580815
H   H60       1.0  0.53082  0.98048  0.08510  1.0000 0.1136257836
H   H61       1.0  0.98509  0.48563  0.35981  1.0000 0.1209580815
H   H62       1.0  0.98048  0.53082  0.40360  1.0000 0.1136257836
H   H63       1.0  0.16947  0.35981  0.48563  1.0000 0.1209580815
H   H64       1.0  0.08510  0.40360  0.53082  1.0000 0.1136257836
H   H65       1.0  0.16947  0.98509  0.35981  1.0000 0.1209580815
H   H66       1.0  0.08510  0.98048  0.40360  1.0000 0.1136257836
H   H67       1.0  0.98509  0.16947  0.48563  1.0000 0.1209580815
H   H68       1.0  0.98048  0.08510  0.53082  1.0000 0.1136257836
H   H69       1.0  0.48563  0.35981  0.98509  1.0000 0.1209580815
H   H70       1.0  0.53082  0.40360  0.98048  1.0000 0.1136257836
H   H71       1.0  0.35981  0.48563  0.16947  1.0000 0.1209580815
H   H72       1.0  0.40360  0.53082  0.08510  1.0000 0.1136257836
H   H73       1.0  0.01491  0.51437  0.83053  1.0000 0.1209580815
H   H74       1.0  0.01952  0.46918  0.91490  1.0000 0.1136257836
H   H75       1.0  0.83053  0.64019  0.01491  1.0000 0.1209580815
H   H76       1.0  0.91490  0.59640  0.01952  1.0000 0.1136257836
H   H77       1.0  0.64019  0.83053  0.51437  1.0000 0.1209580815
H   H78       1.0  0.59640  0.91490  0.46918  1.0000 0.1136257836
H   H79       1.0  0.51437  0.01491  0.64019  1.0000 0.1209580815
H   H80       1.0  0.46918  0.01952  0.59640  1.0000 0.1136257836
H   H81       1.0  0.64019  0.51437  0.01491  1.0000 0.1209580815
H   H82       1.0  0.59640  0.46918  0.01952  1.0000 0.1136257836
H   H83       1.0  0.51437  0.64019  0.83053  1.0000 0.1209580815
H   H84       1.0  0.46918  0.59640  0.91490  1.0000 0.1136257836
H   H85       1.0  0.01491  0.83053  0.64019  1.0000 0.1209580815
H   H86       1.0  0.01952  0.91490  0.59640  1.0000 0.1136257836
H   H87       1.0  0.83053  0.01491  0.51437  1.0000 0.1209580815
H   H88       1.0  0.91490  0.01952  0.46918  1.0000 0.1136257836
H   H89       1.0  0.83053  0.51437  0.64019  1.0000 0.1209580815
H   H90       1.0  0.91490  0.46918  0.59640  1.0000 0.1136257836
H   H91       1.0  0.01491  0.64019  0.51437  1.0000 0.1209580815
H   H92       1.0  0.01952  0.59640  0.46918  1.0000 0.1136257836
H   H93       1.0  0.51437  0.83053  0.01491  1.0000 0.1209580815
H   H94       1.0  0.46918  0.91490  0.01952  1.0000 0.1136257836
H   H95       1.0  0.64019  0.01491  0.83053  1.0000 0.1209580815
H   H96       1.0  0.59640  0.01952  0.91490  1.0000 0.1136257836
C   C1        1.0  0.01636  0.60446  0.84742  1.0000 -0.0937550894
C   C2        1.0  0.01874  0.57850  0.89806  1.0000 -0.1687694157
C   C3        1.0  0.84742  0.53176  0.01636  1.0000 -0.0937550894
C   C4        1.0  0.89806  0.50470  0.01874  1.0000 -0.1687694157
C   C5        1.0  0.60446  0.01636  0.53176  1.0000 -0.0937550894
C   C6        1.0  0.57850  0.01874  0.50470  1.0000 -0.1687694157
C   C7        1.0  0.53176  0.84742  0.60446  1.0000 -0.0937550894
C   C8        1.0  0.50470  0.89806  0.57850  1.0000 -0.1687694157
C   C9        1.0  0.60446  0.84742  0.01636  1.0000 -0.0937550894
C   C10       1.0  0.57850  0.89806  0.01874  1.0000 -0.1687694157
C   C11       1.0  0.53176  0.01636  0.84742  1.0000 -0.0937550894
C   C12       1.0  0.50470  0.01874  0.89806  1.0000 -0.1687694157
C   C13       1.0  0.01636  0.53176  0.60446  1.0000 -0.0937550894
C   C14       1.0  0.01874  0.50470  0.57850  1.0000 -0.1687694157
C   C15       1.0  0.84742  0.60446  0.53176  1.0000 -0.0937550894
C   C16       1.0  0.89806  0.57850  0.50470  1.0000 -0.1687694157
C   C17       1.0  0.84742  0.01636  0.60446  1.0000 -0.0937550894
C   C18       1.0  0.89806  0.01874  0.57850  1.0000 -0.1687694157
C   C19       1.0  0.01636  0.84742  0.53176  1.0000 -0.0937550894
C   C20       1.0  0.01874  0.89806  0.50470  1.0000 -0.1687694157
C   C21       1.0  0.53176  0.60446  0.01636  1.0000 -0.0937550894
C   C22       1.0  0.50470  0.57850  0.01874  1.0000 -0.1687694157
C   C23       1.0  0.60446  0.53176  0.84742  1.0000 -0.0937550894
C   C24       1.0  0.57850  0.50470  0.89806  1.0000 -0.1687694157
C   C25       1.0  0.98364  0.46824  0.15258  1.0000 -0.0937550894
C   C26       1.0  0.98126  0.49530  0.10194  1.0000 -0.1687694157
C   C27       1.0  0.15258  0.39554  0.98364  1.0000 -0.0937550894
C   C28       1.0  0.10194  0.42150  0.98126  1.0000 -0.1687694157
C   C29       1.0  0.39554  0.15258  0.46824  1.0000 -0.0937550894
C   C30       1.0  0.42150  0.10194  0.49530  1.0000 -0.1687694157
C   C31       1.0  0.46824  0.98364  0.39554  1.0000 -0.0937550894
C   C32       1.0  0.49530  0.98126  0.42150  1.0000 -0.1687694157
C   C33       1.0  0.39554  0.46824  0.98364  1.0000 -0.0937550894
C   C34       1.0  0.42150  0.49530  0.98126  1.0000 -0.1687694157
C   C35       1.0  0.46824  0.39554  0.15258  1.0000 -0.0937550894
C   C36       1.0  0.49530  0.42150  0.10194  1.0000 -0.1687694157
C   C37       1.0  0.98364  0.15258  0.39554  1.0000 -0.0937550894
C   C38       1.0  0.98126  0.10194  0.42150  1.0000 -0.1687694157
C   C39       1.0  0.15258  0.98364  0.46824  1.0000 -0.0937550894
C   C40       1.0  0.10194  0.98126  0.49530  1.0000 -0.1687694157
C   C41       1.0  0.15258  0.46824  0.39554  1.0000 -0.0937550894
C   C42       1.0  0.10194  0.49530  0.42150  1.0000 -0.1687694157
C   C43       1.0  0.98364  0.39554  0.46824  1.0000 -0.0937550894
C   C44       1.0  0.98126  0.42150  0.49530  1.0000 -0.1687694157
C   C45       1.0  0.46824  0.15258  0.98364  1.0000 -0.0937550894
C   C46       1.0  0.49530  0.10194  0.98126  1.0000 -0.1687694157
C   C47       1.0  0.39554  0.98364  0.15258  1.0000 -0.0937550894
C   C48       1.0  0.42150  0.98126  0.10194  1.0000 -0.1687694157
C   C49       1.0  0.98364  0.39554  0.15258  1.0000 -0.0937550894
C   C50       1.0  0.98126  0.42150  0.10194  1.0000 -0.1687694157
C   C51       1.0  0.15258  0.46824  0.98364  1.0000 -0.0937550894
C   C52       1.0  0.10194  0.49530  0.98126  1.0000 -0.1687694157
C   C53       1.0  0.39554  0.98364  0.46824  1.0000 -0.0937550894
C   C54       1.0  0.42150  0.98126  0.49530  1.0000 -0.1687694157
C   C55       1.0  0.46824  0.15258  0.39554  1.0000 -0.0937550894
C   C56       1.0  0.49530  0.10194  0.42150  1.0000 -0.1687694157
C   C57       1.0  0.39554  0.15258  0.98364  1.0000 -0.0937550894
C   C58       1.0  0.42150  0.10194  0.98126  1.0000 -0.1687694157
C   C59       1.0  0.46824  0.98364  0.15258  1.0000 -0.0937550894
C   C60       1.0  0.49530  0.98126  0.10194  1.0000 -0.1687694157
C   C61       1.0  0.98364  0.46824  0.39554  1.0000 -0.0937550894
C   C62       1.0  0.98126  0.49530  0.42150  1.0000 -0.1687694157
C   C63       1.0  0.15258  0.39554  0.46824  1.0000 -0.0937550894
C   C64       1.0  0.10194  0.42150  0.49530  1.0000 -0.1687694157
C   C65       1.0  0.15258  0.98364  0.39554  1.0000 -0.0937550894
C   C66       1.0  0.10194  0.98126  0.42150  1.0000 -0.1687694157
C   C67       1.0  0.98364  0.15258  0.46824  1.0000 -0.0937550894
C   C68       1.0  0.98126  0.10194  0.49530  1.0000 -0.1687694157
C   C69       1.0  0.46824  0.39554  0.98364  1.0000 -0.0937550894
C   C70       1.0  0.49530  0.42150  0.98126  1.0000 -0.1687694157
C   C71       1.0  0.39554  0.46824  0.15258  1.0000 -0.0937550894
C   C72       1.0  0.42150  0.49530  0.10194  1.0000 -0.1687694157
C   C73       1.0  0.01636  0.53176  0.84742  1.0000 -0.0937550894
C   C74       1.0  0.01874  0.50470  0.89806  1.0000 -0.1687694157
C   C75       1.0  0.84742  0.60446  0.01636  1.0000 -0.0937550894
C   C76       1.0  0.89806  0.57850  0.01874  1.0000 -0.1687694157
C   C77       1.0  0.60446  0.84742  0.53176  1.0000 -0.0937550894
C   C78       1.0  0.57850  0.89806  0.50470  1.0000 -0.1687694157
C   C79       1.0  0.53176  0.01636  0.60446  1.0000 -0.0937550894
C   C80       1.0  0.50470  0.01874  0.57850  1.0000 -0.1687694157
C   C81       1.0  0.60446  0.53176  0.01636  1.0000 -0.0937550894
C   C82       1.0  0.57850  0.50470  0.01874  1.0000 -0.1687694157
C   C83       1.0  0.53176  0.60446  0.84742  1.0000 -0.0937550894
C   C84       1.0  0.50470  0.57850  0.89806  1.0000 -0.1687694157
C   C85       1.0  0.01636  0.84742  0.60446  1.0000 -0.0937550894
C   C86       1.0  0.01874  0.89806  0.57850  1.0000 -0.1687694157
C   C87       1.0  0.84742  0.01636  0.53176  1.0000 -0.0937550894
C   C88       1.0  0.89806  0.01874  0.50470  1.0000 -0.1687694157
C   C89       1.0  0.84742  0.53176  0.60446  1.0000 -0.0937550894
C   C90       1.0  0.89806  0.50470  0.57850  1.0000 -0.1687694157
C   C91       1.0  0.01636  0.60446  0.53176  1.0000 -0.0937550894
C   C92       1.0  0.01874  0.57850  0.50470  1.0000 -0.1687694157
C   C93       1.0  0.53176  0.84742  0.01636  1.0000 -0.0937550894
C   C94       1.0  0.50470  0.89806  0.01874  1.0000 -0.1687694157
C   C95       1.0  0.60446  0.01636  0.84742  1.0000 -0.0937550894
C   C96       1.0  0.57850  0.01874  0.89806  1.0000 -0.1687694157
C   C97       1.0  0.01468  0.60932  0.76668  1.0000 0.5610271488
C   C98       1.0  0.01602  0.58110  0.82178  1.0000 -0.0242175496
C   C99       1.0  0.01994  0.52830  0.92346  1.0000 0.0732175699
C   C100      1.0  0.76668  0.60932  0.01468  1.0000 0.5654541205
C   C101      1.0  0.82178  0.58110  0.01602  1.0000 -0.0293481078
C   C102      1.0  0.92346  0.52830  0.01994  1.0000 0.0732175699
C   C103      1.0  0.60932  0.01468  0.60932  1.0000 0.5610271488
C   C104      1.0  0.58110  0.01602  0.58110  1.0000 -0.0293481078
C   C105      1.0  0.52830  0.01994  0.52830  1.0000 0.0732175699
C   C106      1.0  0.60932  0.76668  0.60932  1.0000 0.5610271488
C   C107      1.0  0.58110  0.82178  0.58110  1.0000 -0.0293481078
C   C108      1.0  0.52830  0.92346  0.52830  1.0000 0.0732175699
C   C109      1.0  0.60932  0.76668  0.01468  1.0000 0.5610271488
C   C110      1.0  0.58110  0.82178  0.01602  1.0000 -0.0242175496
C   C111      1.0  0.52830  0.92346  0.01994  1.0000 0.0732175699
C   C112      1.0  0.60932  0.01468  0.76668  1.0000 0.5610271488
C   C113      1.0  0.58110  0.01602  0.82178  1.0000 -0.0242175496
C   C114      1.0  0.52830  0.01994  0.92346  1.0000 0.0732175699
C   C115      1.0  0.01468  0.60932  0.60932  1.0000 0.5610271488
C   C116      1.0  0.01602  0.58110  0.58110  1.0000 -0.0293481078
C   C117      1.0  0.01994  0.52830  0.52830  1.0000 0.0732175699
C   C118      1.0  0.76668  0.60932  0.60932  1.0000 0.5610271488
C   C119      1.0  0.82178  0.58110  0.58110  1.0000 -0.0242175496
C   C120      1.0  0.92346  0.52830  0.52830  1.0000 0.0732175699
C   C121      1.0  0.76668  0.01468  0.60932  1.0000 0.5610271488
C   C122      1.0  0.82178  0.01602  0.58110  1.0000 -0.0293481078
C   C123      1.0  0.92346  0.01994  0.52830  1.0000 0.0732175699
C   C124      1.0  0.01468  0.76668  0.60932  1.0000 0.5610271488
C   C125      1.0  0.01602  0.82178  0.58110  1.0000 -0.0293481078
C   C126      1.0  0.01994  0.92346  0.52830  1.0000 0.0732175699
C   C127      1.0  0.60932  0.60932  0.01468  1.0000 0.5610271488
C   C128      1.0  0.58110  0.58110  0.01602  1.0000 -0.0242175496
C   C129      1.0  0.52830  0.52830  0.01994  1.0000 0.0732175699
C   C130      1.0  0.60932  0.60932  0.76668  1.0000 0.5610271488
C   C131      1.0  0.58110  0.58110  0.82178  1.0000 -0.0242175496
C   C132      1.0  0.52830  0.52830  0.92346  1.0000 0.0732175699
C   C133      1.0  0.98532  0.39068  0.23332  1.0000 0.5610271488
C   C134      1.0  0.98398  0.41890  0.17822  1.0000 -0.0242175496
C   C135      1.0  0.98006  0.47170  0.07654  1.0000 0.0732175699
C   C136      1.0  0.23332  0.39068  0.98532  1.0000 0.5610271488
C   C137      1.0  0.17822  0.41890  0.98398  1.0000 -0.0293481078
C   C138      1.0  0.07654  0.47170  0.98006  1.0000 0.0732175699
C   C139      1.0  0.39068  0.23332  0.39068  1.0000 0.5610271488
C   C140      1.0  0.41890  0.17822  0.41890  1.0000 -0.0293481078
C   C141      1.0  0.47170  0.07654  0.47170  1.0000 0.0732175699
C   C142      1.0  0.39068  0.98532  0.39068  1.0000 0.5610271488
C   C143      1.0  0.41890  0.98398  0.41890  1.0000 -0.0242175496
C   C144      1.0  0.47170  0.98006  0.47170  1.0000 0.0732175699
C   C145      1.0  0.39068  0.39068  0.98532  1.0000 0.5610271488
C   C146      1.0  0.41890  0.41890  0.98398  1.0000 -0.0293481078
C   C147      1.0  0.47170  0.47170  0.98006  1.0000 0.0732175699
C   C148      1.0  0.39068  0.39068  0.23332  1.0000 0.5610271488
C   C149      1.0  0.41890  0.41890  0.17822  1.0000 -0.0242175496
C   C150      1.0  0.47170  0.47170  0.07654  1.0000 0.0732175699
C   C151      1.0  0.98532  0.23332  0.39068  1.0000 0.5610271488
C   C152      1.0  0.98398  0.17822  0.41890  1.0000 -0.0293481078
C   C153      1.0  0.98006  0.07654  0.47170  1.0000 0.0732175699
C   C154      1.0  0.23332  0.98532  0.39068  1.0000 0.5610271488
C   C155      1.0  0.17822  0.98398  0.41890  1.0000 -0.0242175496
C   C156      1.0  0.07654  0.98006  0.47170  1.0000 0.0732175699
C   C157      1.0  0.23332  0.39068  0.39068  1.0000 0.5610271488
C   C158      1.0  0.17822  0.41890  0.41890  1.0000 -0.0242175496
C   C159      1.0  0.07654  0.47170  0.47170  1.0000 0.0732175699
C   C160      1.0  0.98532  0.39068  0.39068  1.0000 0.5610271488
C   C161      1.0  0.98398  0.41890  0.41890  1.0000 -0.0242175496
C   C162      1.0  0.98006  0.47170  0.47170  1.0000 0.0732175699
C   C163      1.0  0.39068  0.23332  0.98532  1.0000 0.5610271488
C   C164      1.0  0.41890  0.17822  0.98398  1.0000 -0.0293481078
C   C165      1.0  0.47170  0.07654  0.98006  1.0000 0.0732175699
C   C166      1.0  0.39068  0.98532  0.23332  1.0000 0.5610271488
C   C167      1.0  0.41890  0.98398  0.17822  1.0000 -0.0293481078
C   C168      1.0  0.47170  0.98006  0.07654  1.0000 0.0732175699
C   C169      1.0  0.02162  0.50000  0.97838  1.0000 -0.036274068
C   C170      1.0  0.97838  0.50000  0.02162  1.0000 -0.0293481078
C   C171      1.0  0.50000  0.02162  0.50000  1.0000 -0.0293481078
C   C172      1.0  0.50000  0.97838  0.50000  1.0000 -0.036274068
C   C173      1.0  0.50000  0.97838  0.02162  1.0000 -0.0293481078
C   C174      1.0  0.50000  0.02162  0.97838  1.0000 -0.036274068
C   C175      1.0  0.02162  0.50000  0.50000  1.0000 -0.036274068
C   C176      1.0  0.97838  0.50000  0.50000  1.0000 -0.0293481078
C   C177      1.0  0.97838  0.02162  0.50000  1.0000 -0.0293481078
C   C178      1.0  0.02162  0.97838  0.50000  1.0000 -0.036274068
C   C179      1.0  0.50000  0.50000  0.02162  1.0000 -0.0293481078
C   C180      1.0  0.50000  0.50000  0.97838  1.0000 -0.036274068
O   O1        1.0  0.01413  0.58585  0.74321  1.0000 -0.6202815007
O   O2        1.0  0.74321  0.65681  0.01413  1.0000 -0.6258724381
O   O3        1.0  0.58585  0.01413  0.65681  1.0000 -0.6258724381
O   O4        1.0  0.65681  0.74321  0.58585  1.0000 -0.6202815007
O   O5        1.0  0.58585  0.74321  0.01413  1.0000 -0.6202815007
O   O6        1.0  0.65681  0.01413  0.74321  1.0000 -0.6202815007
O   O7        1.0  0.01413  0.65681  0.58585  1.0000 -0.6202815007
O   O8        1.0  0.74321  0.58585  0.65681  1.0000 -0.6202815007
O   O9        1.0  0.74321  0.01413  0.58585  1.0000 -0.6202815007
O   O10       1.0  0.01413  0.74321  0.65681  1.0000 -0.6202815007
O   O11       1.0  0.65681  0.58585  0.01413  1.0000 -0.6202815007
O   O12       1.0  0.58585  0.65681  0.74321  1.0000 -0.6202815007
O   O13       1.0  0.98587  0.34319  0.25679  1.0000 -0.6202815007
O   O14       1.0  0.25679  0.41415  0.98587  1.0000 -0.6202815007
O   O15       1.0  0.41415  0.25679  0.34319  1.0000 -0.6202815007
O   O16       1.0  0.34319  0.98587  0.41415  1.0000 -0.6202815007
O   O17       1.0  0.41415  0.34319  0.98587  1.0000 -0.6202815007
O   O18       1.0  0.34319  0.41415  0.25679  1.0000 -0.6202815007
O   O19       1.0  0.98587  0.25679  0.41415  1.0000 -0.6202815007
O   O20       1.0  0.25679  0.98587  0.34319  1.0000 -0.6202815007
O   O21       1.0  0.25679  0.34319  0.41415  1.0000 -0.6202815007
O   O22       1.0  0.98587  0.41415  0.34319  1.0000 -0.6202815007
O   O23       1.0  0.34319  0.25679  0.98587  1.0000 -0.6202815007
O   O24       1.0  0.41415  0.98587  0.25679  1.0000 -0.6202815007
O   O25       1.0  0.98587  0.41415  0.25679  1.0000 -0.6202815007
O   O26       1.0  0.25679  0.34319  0.98587  1.0000 -0.6202815007
O   O27       1.0  0.41415  0.98587  0.34319  1.0000 -0.6202815007
O   O28       1.0  0.34319  0.25679  0.41415  1.0000 -0.6202815007
O   O29       1.0  0.41415  0.25679  0.98587  1.0000 -0.6202815007
O   O30       1.0  0.34319  0.98587  0.25679  1.0000 -0.6202815007
O   O31       1.0  0.98587  0.34319  0.41415  1.0000 -0.6202815007
O   O32       1.0  0.25679  0.41415  0.34319  1.0000 -0.6202815007
O   O33       1.0  0.25679  0.98587  0.41415  1.0000 -0.6202815007
O   O34       1.0  0.98587  0.25679  0.34319  1.0000 -0.6202815007
O   O35       1.0  0.34319  0.41415  0.98587  1.0000 -0.6202815007
O   O36       1.0  0.41415  0.34319  0.25679  1.0000 -0.6202815007
O   O37       1.0  0.01413  0.65681  0.74321  1.0000 -0.6202815007
O   O38       1.0  0.74321  0.58585  0.01413  1.0000 -0.6258724381
O   O39       1.0  0.58585  0.74321  0.65681  1.0000 -0.6202815007
O   O40       1.0  0.65681  0.01413  0.58585  1.0000 -0.6202815007
O   O41       1.0  0.58585  0.65681  0.01413  1.0000 -0.6202815007
O   O42       1.0  0.65681  0.58585  0.74321  1.0000 -0.6202815007
O   O43       1.0  0.01413  0.74321  0.58585  1.0000 -0.6202815007
O   O44       1.0  0.74321  0.01413  0.65681  1.0000 -0.6258724381
O   O45       1.0  0.74321  0.65681  0.58585  1.0000 -0.6202815007
O   O46       1.0  0.01413  0.58585  0.65681  1.0000 -0.6202815007
O   O47       1.0  0.65681  0.74321  0.01413  1.0000 -0.6202815007
O   O48       1.0  0.58585  0.01413  0.74321  1.0000 -0.6202815007
