# DDEC6 charges by PACMAN v1.1 (https://github.com/mtap-research/PACMAN-charge/)
data_2018[Ni][sql]2[ASR]3
_chemical_formula_sum              "Ni2 H56 C52 N8 O12"
_cell_length_a       9.5367
_cell_length_b       10.1004
_cell_length_c       15.878
_cell_angle_alpha    71.8567
_cell_angle_beta     79.957
_cell_angle_gamma    66.9099

_symmetry_space_group_name_H-M    "P 1"
_symmetry_Int_Tables_number       1

loop_
  _symmetry_equiv_pos_as_xyz
  'x, y, z'

loop_
  _atom_site_type_symbol
  _atom_site_label
  _atom_site_symmetry_multiplicity
  _atom_site_fract_x
  _atom_site_fract_y
  _atom_site_fract_z
  _atom_site_occupancy
  _atom_site_charge
Ni  Ni1       1.0  0.63028  0.24799  0.86598  1.0000 0.7010350745
Ni  Ni2       1.0  0.36972  0.75201  0.13402  1.0000 0.7010350745
H   H1        1.0  0.99110  0.81430  0.25560  1.0000 0.2771067541
H   H2        1.0  0.23820  0.72830  0.49460  1.0000 0.2746568542
H   H3        1.0  0.62870  0.73650  0.80410  1.0000 0.1028545623
H   H4        1.0  0.67850  0.66600  0.90450  1.0000 0.1028545623
H   H5        1.0  0.85250  0.96280  0.98620  1.0000 0.1115052537
H   H6        1.0  0.64850  0.25770  0.18050  1.0000 0.1322677306
H   H7        1.0  0.53560  0.53990  0.71270  1.0000 0.1115052537
H   H8        1.0  0.92120  0.86270  0.13050  1.0000 0.1322677306
H   H9        1.0  0.59180  0.34770  0.03250  1.0000 0.1115052537
H   H10       1.0  0.45870  0.16890  0.75630  1.0000 0.1115052537
H   H11       1.0  0.96110  0.49090  0.70750  1.0000 0.1028545623
H   H12       1.0  0.80410  0.62900  0.68180  1.0000 0.1115052537
H   H13       1.0  0.89260  0.70440  0.95230  1.0000 0.1028545623
H   H14       1.0  0.98470  0.79850  0.88190  1.0000 0.1028545623
H   H15       1.0  0.32480  0.26390  0.63000  1.0000 0.1374985795
H   H16       1.0  0.20340  0.80930  0.34650  1.0000 0.1115052537
H   H17       1.0  0.19340  0.65270  0.35150  1.0000 0.1115052537
H   H18       1.0  0.40510  0.64410  0.58530  1.0000 0.1322677306
H   H19       1.0  0.03350  0.38250  0.86580  1.0000 0.1028545623
H   H20       1.0  0.92270  0.45010  0.94260  1.0000 0.1028545623
H   H21       1.0  0.77410  0.88590  0.69070  1.0000 0.1028545623
H   H22       1.0  0.91190  0.90920  0.72190  1.0000 0.1028545623
H   H23       1.0  0.13110  0.53820  0.90580  1.0000 0.0806939673
H   H24       1.0  0.17520  0.53010  0.75500  1.0000 0.0901657575
H   H25       1.0  0.15690  0.69180  0.76050  1.0000 0.1028545623
H   H26       1.0  0.01260  0.71780  0.64530  1.0000 0.0706622783
H   H27       1.0  0.95530  0.88210  0.41650  1.0000 0.1028545623
H   H28       1.0  0.94540  0.72570  0.41920  1.0000 0.1115052537
H   H29       1.0  0.00890  0.18570  0.74440  1.0000 0.2771067541
H   H30       1.0  0.76180  0.27170  0.50540  1.0000 0.2746568542
H   H31       1.0  0.37130  0.26350  0.19590  1.0000 0.1028545623
H   H32       1.0  0.32150  0.33400  0.09550  1.0000 0.1028545623
H   H33       1.0  0.14750  0.03720  0.01380  1.0000 0.1115052537
H   H34       1.0  0.35150  0.74230  0.81950  1.0000 0.1322677306
H   H35       1.0  0.46440  0.46010  0.28730  1.0000 0.1152060028
H   H36       1.0  0.07880  0.13730  0.86950  1.0000 0.1322677306
H   H37       1.0  0.40820  0.65230  0.96750  1.0000 0.1115052537
H   H38       1.0  0.54130  0.83110  0.24370  1.0000 0.1115052537
H   H39       1.0  0.03890  0.50910  0.29250  1.0000 0.1028545623
H   H40       1.0  0.19590  0.37100  0.31820  1.0000 0.1115052537
H   H41       1.0  0.10740  0.29560  0.04770  1.0000 0.1028545623
H   H42       1.0  0.01530  0.20150  0.11810  1.0000 0.1028545623
H   H43       1.0  0.67520  0.73610  0.37000  1.0000 0.1374985795
H   H44       1.0  0.79660  0.19070  0.65350  1.0000 0.1115052537
H   H45       1.0  0.80660  0.34730  0.64850  1.0000 0.1115052537
H   H46       1.0  0.59490  0.35590  0.41470  1.0000 0.1322677306
H   H47       1.0  0.96650  0.61750  0.13420  1.0000 0.1028545623
H   H48       1.0  0.07730  0.54990  0.05740  1.0000 0.1028545623
H   H49       1.0  0.22590  0.11410  0.30930  1.0000 0.1028545623
H   H50       1.0  0.08810  0.09080  0.27810  1.0000 0.1028545623
H   H51       1.0  0.86890  0.46180  0.09420  1.0000 0.0806939673
H   H52       1.0  0.82480  0.46990  0.24500  1.0000 0.0901657575
H   H53       1.0  0.84310  0.30820  0.23950  1.0000 0.1028545623
H   H54       1.0  0.98740  0.28220  0.35470  1.0000 0.0706622783
H   H55       1.0  0.04470  0.11790  0.58350  1.0000 0.1028545623
H   H56       1.0  0.05460  0.27430  0.58080  1.0000 0.1115052537
C   C1        1.0  0.71710  0.69060  0.84180  1.0000 -0.2666074861
C   C2        1.0  0.81120  0.02380  0.02610  1.0000 0.0901657575
C   C3        1.0  0.68720  0.94360  0.85340  1.0000 0.5384258251
C   C4        1.0  0.69250  0.19490  0.14170  1.0000 -0.1518612061
C   C5        1.0  0.49300  0.48240  0.69540  1.0000 0.0806939673
C   C6        1.0  0.85210  0.96280  0.11220  1.0000 -0.1796805713
C   C7        1.0  0.82400  0.99230  0.26980  1.0000 0.4385829043
C   C8        1.0  0.79180  0.04850  0.17270  1.0000 0.0314602252
C   C9        1.0  0.65910  0.24740  0.05310  1.0000 0.0901657575
C   C10       1.0  0.79610  0.80250  0.82780  1.0000 0.0706622783
C   C11       1.0  0.44820  0.26690  0.72080  1.0000 0.0706622783
C   C12       1.0  0.74810  0.43670  0.83390  1.0000 0.5093713622
C   C13       1.0  0.88900  0.58400  0.72200  1.0000 -0.2593318638
C   C14       1.0  0.82640  0.54780  0.81860  1.0000 0.0706622783
C   C15       1.0  0.93150  0.72840  0.88950  1.0000 -0.2593318638
C   C16       1.0  0.36800  0.32290  0.64540  1.0000 -0.1670013968
C   C17       1.0  0.16100  0.73240  0.38230  1.0000 -0.0781719353
C   C18       1.0  0.41490  0.54540  0.61930  1.0000 -0.1796805713
C   C19       1.0  0.96110  0.47570  0.87990  1.0000 -0.2593318638
C   C20       1.0  0.85920  0.83830  0.73080  1.0000 -0.2593318638
C   C21       1.0  0.04340  0.58520  0.86650  1.0000 0.0706622783
C   C22       1.0  0.35050  0.46560  0.59200  1.0000 0.019575833
C   C23       1.0  0.10210  0.62260  0.76960  1.0000 -0.251780704
C   C24       1.0  0.97190  0.69390  0.70840  1.0000 0.0643622052
C   C25       1.0  0.99020  0.80190  0.38590  1.0000 -0.0720570836
C   C26       1.0  0.26570  0.52220  0.50910  1.0000 0.4385829043
C   C27       1.0  0.28290  0.30940  0.15820  1.0000 -0.2666074861
C   C28       1.0  0.18880  0.97620  0.97390  1.0000 0.0901657575
C   C29       1.0  0.31280  0.05640  0.14660  1.0000 0.5384258251
C   C30       1.0  0.30750  0.80510  0.85830  1.0000 -0.1518612061
C   C31       1.0  0.50700  0.51760  0.30460  1.0000 0.0806939673
C   C32       1.0  0.14790  0.03720  0.88780  1.0000 -0.1796805713
C   C33       1.0  0.17600  0.00770  0.73020  1.0000 0.4385829043
C   C34       1.0  0.20820  0.95150  0.82730  1.0000 0.0314602252
C   C35       1.0  0.34090  0.75260  0.94690  1.0000 0.0901657575
C   C36       1.0  0.20390  0.19750  0.17220  1.0000 0.0706622783
C   C37       1.0  0.55180  0.73310  0.27920  1.0000 0.0706622783
C   C38       1.0  0.25190  0.56330  0.16610  1.0000 0.5093713622
C   C39       1.0  0.11100  0.41600  0.27800  1.0000 -0.2593318638
C   C40       1.0  0.17360  0.45220  0.18140  1.0000 0.0706622783
C   C41       1.0  0.06850  0.27160  0.11050  1.0000 -0.2593318638
C   C42       1.0  0.63200  0.67710  0.35460  1.0000 -0.1670013968
C   C43       1.0  0.83900  0.26760  0.61770  1.0000 -0.0781719353
C   C44       1.0  0.58510  0.45460  0.38070  1.0000 -0.1796805713
C   C45       1.0  0.03890  0.52430  0.12010  1.0000 -0.2593318638
C   C46       1.0  0.14080  0.16170  0.26920  1.0000 -0.2593318638
C   C47       1.0  0.95660  0.41480  0.13350  1.0000 0.0706622783
C   C48       1.0  0.64950  0.53440  0.40800  1.0000 0.019575833
C   C49       1.0  0.89790  0.37740  0.23040  1.0000 -0.251780704
C   C50       1.0  0.02810  0.30610  0.29160  1.0000 0.0643622052
C   C51       1.0  0.00980  0.19810  0.61410  1.0000 -0.0720570836
C   C52       1.0  0.73430  0.47780  0.49090  1.0000 0.4385829043
N   N1        1.0  0.71620  0.16470  0.99480  1.0000 -0.2239301953
N   N2        1.0  0.51210  0.34350  0.74660  1.0000 -0.2253790576
N   N3        1.0  0.94140  0.86360  0.29520  1.0000 -0.3337468061
N   N4        1.0  0.22530  0.66930  0.46840  1.0000 -0.3337468061
N   N5        1.0  0.28380  0.83530  0.00520  1.0000 -0.2239301953
N   N6        1.0  0.48790  0.65650  0.25340  1.0000 -0.2253790576
N   N7        1.0  0.05860  0.13640  0.70480  1.0000 -0.3337468061
N   N8        1.0  0.77470  0.33070  0.53160  1.0000 -0.3337468061
O   O1        1.0  0.81790  0.31490  0.81273  1.0000 -0.5255993385
O   O2        1.0  0.61350  0.46270  0.86928  1.0000 -0.5233693499
O   O3        1.0  0.73480  0.05220  0.83472  1.0000 -0.5730012436
O   O4        1.0  0.55990  0.94710  0.89157  1.0000 -0.5517106433
O   O5        1.0  0.74470  0.06600  0.32160  1.0000 -0.4976194877
O   O6        1.0  0.23790  0.43700  0.47980  1.0000 -0.465679564
O   O7        1.0  0.18210  0.68510  0.18727  1.0000 -0.5255993385
O   O8        1.0  0.38650  0.53730  0.13072  1.0000 -0.5233693499
O   O9        1.0  0.26520  0.94780  0.16528  1.0000 -0.5730012436
O   O10       1.0  0.44010  0.05290  0.10843  1.0000 -0.5517106433
O   O11       1.0  0.25530  0.93400  0.67840  1.0000 -0.4976194877
O   O12       1.0  0.76210  0.56300  0.52020  1.0000 -0.465679564
