# DDEC6 charges by PACMAN v1.1 (https://github.com/mtap-research/PACMAN-charge/)
data_2018[Zn][sql]2[ASR]19
_chemical_formula_sum              "Zn2 H64 C108 O12"
_cell_length_a       16.6359
_cell_length_b       16.6359
_cell_length_c       14.8089
_cell_angle_alpha    78.5811
_cell_angle_beta     101.419
_cell_angle_gamma    55.5191

_symmetry_space_group_name_H-M    "P 1"
_symmetry_Int_Tables_number       1

loop_
  _symmetry_equiv_pos_as_xyz
  'x, y, z'

loop_
  _atom_site_type_symbol
  _atom_site_label
  _atom_site_symmetry_multiplicity
  _atom_site_fract_x
  _atom_site_fract_y
  _atom_site_fract_z
  _atom_site_occupancy
  _atom_site_charge
Zn  Zn1       1.0  0.10388  0.89612  0.07347  1.0000 0.9339697591
Zn  Zn2       1.0  0.89612  0.10388  0.92653  1.0000 0.9339697591
H   H1        1.0  0.15982  0.09224  0.40449  1.0000 0.1181497655
H   H2        1.0  0.15578  0.01190  0.29535  1.0000 0.1289332093
H   H3        1.0  0.89892  0.37184  0.19699  1.0000 0.1181497655
H   H4        1.0  0.89797  0.29183  0.08723  1.0000 0.1181497655
H   H5        1.0  0.30516  0.19230  0.74143  1.0000 0.1289332093
H   H6        1.0  0.20956  0.23498  0.58436  1.0000 0.1103412888
H   H7        1.0  0.17270  0.20402  0.81912  1.0000 0.1103412888
H   H8        1.0  0.06480  0.21230  0.90097  1.0000 0.1181497655
H   H9        1.0  0.95901  0.36053  0.93506  1.0000 0.1103412888
H   H10       1.0  0.96644  0.49608  0.89181  1.0000 0.1103412888
H   H11       1.0  0.07054  0.48882  0.80730  1.0000 0.1103412888
H   H12       1.0  0.33962  0.20616  0.93706  1.0000 0.1103412888
H   H13       1.0  0.48496  0.17454  0.03983  1.0000 0.1103412888
H   H14       1.0  0.53611  0.27159  0.98805  1.0000 0.1181497655
H   H15       1.0  0.43322  0.40868  0.83454  1.0000 0.1181497655
H   H16       1.0  0.28578  0.44120  0.72850  1.0000 0.1289332093
H   H17       1.0  0.09224  0.15982  0.59551  1.0000 0.1181497655
H   H18       1.0  0.01190  0.15578  0.70465  1.0000 0.1289332093
H   H19       1.0  0.37184  0.89892  0.80301  1.0000 0.1181497655
H   H20       1.0  0.29183  0.89797  0.91277  1.0000 0.1181497655
H   H21       1.0  0.19230  0.30516  0.25857  1.0000 0.1289332093
H   H22       1.0  0.23498  0.20956  0.41564  1.0000 0.1103412888
H   H23       1.0  0.20402  0.17270  0.18088  1.0000 0.1103412888
H   H24       1.0  0.21230  0.06480  0.09903  1.0000 0.1181497655
H   H25       1.0  0.36053  0.95901  0.06494  1.0000 0.1103412888
H   H26       1.0  0.49608  0.96644  0.10819  1.0000 0.1103412888
H   H27       1.0  0.48882  0.07054  0.19270  1.0000 0.1103412888
H   H28       1.0  0.20616  0.33962  0.06294  1.0000 0.1103412888
H   H29       1.0  0.17454  0.48496  0.96017  1.0000 0.1103412888
H   H30       1.0  0.27159  0.53611  0.01195  1.0000 0.1181497655
H   H31       1.0  0.40868  0.43322  0.16546  1.0000 0.1181497655
H   H32       1.0  0.44120  0.28578  0.27150  1.0000 0.1289332093
H   H33       1.0  0.84018  0.90776  0.59551  1.0000 0.1181497655
H   H34       1.0  0.84422  0.98810  0.70465  1.0000 0.1289332093
H   H35       1.0  0.10108  0.62816  0.80301  1.0000 0.1181497655
H   H36       1.0  0.10203  0.70817  0.91277  1.0000 0.1181497655
H   H37       1.0  0.69484  0.80770  0.25857  1.0000 0.1289332093
H   H38       1.0  0.79044  0.76502  0.41564  1.0000 0.1103412888
H   H39       1.0  0.82730  0.79598  0.18088  1.0000 0.1103412888
H   H40       1.0  0.93520  0.78770  0.09903  1.0000 0.1181497655
H   H41       1.0  0.04099  0.63947  0.06494  1.0000 0.1103412888
H   H42       1.0  0.03356  0.50392  0.10819  1.0000 0.1103412888
H   H43       1.0  0.92946  0.51118  0.19270  1.0000 0.1103412888
H   H44       1.0  0.66038  0.79384  0.06294  1.0000 0.1103412888
H   H45       1.0  0.51504  0.82546  0.96017  1.0000 0.1103412888
H   H46       1.0  0.46389  0.72841  0.01195  1.0000 0.1181497655
H   H47       1.0  0.56678  0.59132  0.16546  1.0000 0.1181497655
H   H48       1.0  0.71422  0.55880  0.27150  1.0000 0.1289332093
H   H49       1.0  0.90776  0.84018  0.40449  1.0000 0.1181497655
H   H50       1.0  0.98810  0.84422  0.29535  1.0000 0.1289332093
H   H51       1.0  0.62816  0.10108  0.19699  1.0000 0.1181497655
H   H52       1.0  0.70817  0.10203  0.08723  1.0000 0.1181497655
H   H53       1.0  0.80770  0.69484  0.74143  1.0000 0.1289332093
H   H54       1.0  0.76502  0.79044  0.58436  1.0000 0.1103412888
H   H55       1.0  0.79598  0.82730  0.81912  1.0000 0.1103412888
H   H56       1.0  0.78770  0.93520  0.90097  1.0000 0.1181497655
H   H57       1.0  0.63947  0.04099  0.93506  1.0000 0.1103412888
H   H58       1.0  0.50392  0.03356  0.89181  1.0000 0.1103412888
H   H59       1.0  0.51118  0.92946  0.80730  1.0000 0.1103412888
H   H60       1.0  0.79384  0.66038  0.93706  1.0000 0.1103412888
H   H61       1.0  0.82546  0.51504  0.03983  1.0000 0.1103412888
H   H62       1.0  0.72841  0.46389  0.98805  1.0000 0.1181497655
H   H63       1.0  0.59132  0.56678  0.83454  1.0000 0.1181497655
H   H64       1.0  0.55880  0.71422  0.72850  1.0000 0.1289332093
C   C1        1.0  0.02362  0.09164  0.10899  1.0000 0.5868388644
C   C2        1.0  0.02716  0.14402  0.17977  1.0000 -0.0309613266
C   C3        1.0  0.03004  0.24084  0.31236  1.0000 0.1470930061
C   C4        1.0  0.10686  0.13250  0.34092  1.0000 -0.1479533104
C   C5        1.0  0.10483  0.08451  0.27536  1.0000 -0.0919430213
C   C6        1.0  0.95134  0.29954  0.21667  1.0000 -0.1648731747
C   C7        1.0  0.03087  0.29503  0.37589  1.0000 -0.1168239651
C   C8        1.0  0.95040  0.25166  0.15109  1.0000 -0.1035020263
C   C9        1.0  0.02733  0.34887  0.42027  1.0000 -0.0617223153
C   C10       1.0  0.01547  0.42307  0.46270  1.0000 0.0025864822
C   C11       1.0  0.08952  0.39298  0.55431  1.0000 -0.0228306608
C   C12       1.0  0.07224  0.47042  0.58998  1.0000 0.1716153404
C   C13       1.0  0.20528  0.34172  0.75196  1.0000 0.2139037034
C   C14       1.0  0.24237  0.26065  0.70479  1.0000 -0.1883041927
C   C15       1.0  0.18671  0.28569  0.61229  1.0000 -0.1035020263
C   C16       1.0  0.13429  0.34497  0.80493  1.0000 0.0279561091
C   C17       1.0  0.13088  0.26348  0.83310  1.0000 -0.1479533104
C   C18       1.0  0.06592  0.26832  0.88230  1.0000 -0.0822704056
C   C19       1.0  0.00334  0.35634  0.90310  1.0000 -0.0919430213
C   C20       1.0  0.00694  0.43734  0.87640  1.0000 -0.1035020263
C   C21       1.0  0.07052  0.43214  0.82673  1.0000 -0.1479533104
C   C22       1.0  0.29962  0.32470  0.82087  1.0000 0.0279561091
C   C23       1.0  0.35884  0.24678  0.91492  1.0000 -0.1479533104
C   C24       1.0  0.44580  0.22800  0.97660  1.0000 -0.1058328369
C   C25       1.0  0.47571  0.28611  0.94680  1.0000 -0.1035020263
C   C26       1.0  0.41512  0.36652  0.85490  1.0000 -0.1035020263
C   C27       1.0  0.32633  0.38633  0.79090  1.0000 -0.1270973453
C   C28       1.0  0.09164  0.02362  0.89101  1.0000 0.5868388644
C   C29       1.0  0.14402  0.02716  0.82023  1.0000 -0.0309613266
C   C30       1.0  0.24084  0.03004  0.68764  1.0000 0.1470930061
C   C31       1.0  0.13250  0.10686  0.65908  1.0000 -0.1479533104
C   C32       1.0  0.08451  0.10483  0.72464  1.0000 -0.0919430213
C   C33       1.0  0.29954  0.95134  0.78333  1.0000 -0.1648731747
C   C34       1.0  0.29503  0.03087  0.62411  1.0000 -0.1168239651
C   C35       1.0  0.25166  0.95040  0.84891  1.0000 -0.1035020263
C   C36       1.0  0.34887  0.02733  0.57973  1.0000 -0.0617223153
C   C37       1.0  0.42307  0.01547  0.53730  1.0000 0.0025864822
C   C38       1.0  0.39298  0.08952  0.44569  1.0000 -0.0228306608
C   C39       1.0  0.47042  0.07224  0.41002  1.0000 0.1716153404
C   C40       1.0  0.34172  0.20528  0.24804  1.0000 0.2139037034
C   C41       1.0  0.26065  0.24237  0.29521  1.0000 -0.1883041927
C   C42       1.0  0.28569  0.18671  0.38771  1.0000 -0.1035020263
C   C43       1.0  0.34497  0.13429  0.19507  1.0000 0.0279561091
C   C44       1.0  0.26348  0.13088  0.16690  1.0000 -0.1479533104
C   C45       1.0  0.26832  0.06592  0.11770  1.0000 -0.0822704056
C   C46       1.0  0.35634  0.00334  0.09690  1.0000 -0.0919430213
C   C47       1.0  0.43734  0.00694  0.12360  1.0000 -0.1035020263
C   C48       1.0  0.43214  0.07052  0.17327  1.0000 -0.1479533104
C   C49       1.0  0.32470  0.29962  0.17913  1.0000 0.0279561091
C   C50       1.0  0.24678  0.35884  0.08508  1.0000 -0.1479533104
C   C51       1.0  0.22800  0.44580  0.02340  1.0000 -0.1035020263
C   C52       1.0  0.28611  0.47571  0.05320  1.0000 -0.1035020263
C   C53       1.0  0.36652  0.41512  0.14510  1.0000 -0.1058328369
C   C54       1.0  0.38633  0.32633  0.20910  1.0000 -0.1270973453
C   C55       1.0  0.97638  0.90836  0.89101  1.0000 0.5868388644
C   C56       1.0  0.97284  0.85598  0.82023  1.0000 -0.0309613266
C   C57       1.0  0.96996  0.75916  0.68764  1.0000 0.1470930061
C   C58       1.0  0.89314  0.86750  0.65908  1.0000 -0.1479533104
C   C59       1.0  0.89517  0.91549  0.72464  1.0000 -0.0919430213
C   C60       1.0  0.04866  0.70046  0.78333  1.0000 -0.1648731747
C   C61       1.0  0.96913  0.70497  0.62411  1.0000 -0.1168239651
C   C62       1.0  0.04960  0.74834  0.84891  1.0000 -0.1035020263
C   C63       1.0  0.97267  0.65113  0.57973  1.0000 -0.0617223153
C   C64       1.0  0.98453  0.57693  0.53730  1.0000 0.0025864822
C   C65       1.0  0.91048  0.60702  0.44569  1.0000 -0.0228306608
C   C66       1.0  0.92776  0.52958  0.41002  1.0000 0.1716153404
C   C67       1.0  0.79472  0.65828  0.24804  1.0000 0.2139037034
C   C68       1.0  0.75763  0.73935  0.29521  1.0000 -0.1883041927
C   C69       1.0  0.81329  0.71431  0.38771  1.0000 -0.1035020263
C   C70       1.0  0.86571  0.65503  0.19507  1.0000 0.0279561091
C   C71       1.0  0.86912  0.73652  0.16690  1.0000 -0.1479533104
C   C72       1.0  0.93408  0.73168  0.11770  1.0000 -0.0822704056
C   C73       1.0  0.99666  0.64366  0.09690  1.0000 -0.0919430213
C   C74       1.0  0.99306  0.56266  0.12360  1.0000 -0.1035020263
C   C75       1.0  0.92948  0.56786  0.17327  1.0000 -0.1479533104
C   C76       1.0  0.70038  0.67530  0.17913  1.0000 0.0279561091
C   C77       1.0  0.64116  0.75322  0.08508  1.0000 -0.1479533104
C   C78       1.0  0.55420  0.77200  0.02340  1.0000 -0.1058328369
C   C79       1.0  0.52429  0.71389  0.05320  1.0000 -0.1035020263
C   C80       1.0  0.58488  0.63348  0.14510  1.0000 -0.1058328369
C   C81       1.0  0.67367  0.61367  0.20910  1.0000 -0.1270973453
C   C82       1.0  0.90836  0.97638  0.10899  1.0000 0.5868388644
C   C83       1.0  0.85598  0.97284  0.17977  1.0000 -0.0309613266
C   C84       1.0  0.75916  0.96996  0.31236  1.0000 0.1470930061
C   C85       1.0  0.86750  0.89314  0.34092  1.0000 -0.1479533104
C   C86       1.0  0.91549  0.89517  0.27536  1.0000 -0.0919430213
C   C87       1.0  0.70046  0.04866  0.21667  1.0000 -0.1648731747
C   C88       1.0  0.70497  0.96913  0.37589  1.0000 -0.1168239651
C   C89       1.0  0.74834  0.04960  0.15109  1.0000 -0.1035020263
C   C90       1.0  0.65113  0.97267  0.42027  1.0000 -0.0617223153
C   C91       1.0  0.57693  0.98453  0.46270  1.0000 0.0025864822
C   C92       1.0  0.60702  0.91048  0.55431  1.0000 -0.0228306608
C   C93       1.0  0.52958  0.92776  0.58998  1.0000 0.1716153404
C   C94       1.0  0.65828  0.79472  0.75196  1.0000 0.2139037034
C   C95       1.0  0.73935  0.75763  0.70479  1.0000 -0.1883041927
C   C96       1.0  0.71431  0.81329  0.61229  1.0000 -0.1035020263
C   C97       1.0  0.65503  0.86571  0.80493  1.0000 0.0279561091
C   C98       1.0  0.73652  0.86912  0.83310  1.0000 -0.1479533104
C   C99       1.0  0.73168  0.93408  0.88230  1.0000 -0.0822704056
C   C100      1.0  0.64366  0.99666  0.90310  1.0000 -0.0919430213
C   C101      1.0  0.56266  0.99306  0.87640  1.0000 -0.1035020263
C   C102      1.0  0.56786  0.92948  0.82673  1.0000 -0.1479533104
C   C103      1.0  0.67530  0.70038  0.82087  1.0000 0.0279561091
C   C104      1.0  0.75322  0.64116  0.91492  1.0000 -0.1479533104
C   C105      1.0  0.77200  0.55420  0.97660  1.0000 -0.1058328369
C   C106      1.0  0.71389  0.52429  0.94680  1.0000 -0.1035020263
C   C107      1.0  0.63348  0.58488  0.85490  1.0000 -0.1058328369
C   C108      1.0  0.61367  0.67367  0.79090  1.0000 -0.1270973453
O   O1        1.0  0.09892  0.99504  0.13680  1.0000 -0.5358553299
O   O2        1.0  0.94552  0.14892  0.02791  1.0000 -0.5474063525
O   O3        1.0  0.14575  0.44553  0.67504  1.0000 -0.2339509496
O   O4        1.0  0.99504  0.09892  0.86320  1.0000 -0.5358553299
O   O5        1.0  0.14892  0.94552  0.97209  1.0000 -0.5474063525
O   O6        1.0  0.44553  0.14575  0.32496  1.0000 -0.2339509496
O   O7        1.0  0.90108  0.00496  0.86320  1.0000 -0.5358553299
O   O8        1.0  0.05448  0.85108  0.97209  1.0000 -0.5474063525
O   O9        1.0  0.85425  0.55447  0.32496  1.0000 -0.2339509496
O   O10       1.0  0.00496  0.90108  0.13680  1.0000 -0.5358553299
O   O11       1.0  0.85108  0.05448  0.02791  1.0000 -0.5474063525
O   O12       1.0  0.55447  0.85425  0.67504  1.0000 -0.2368231931
