# DDEC6 charges by PACMAN v1.1 (https://github.com/mtap-research/PACMAN-charge/)
data_2018[CuTi][nan]2[ASR]1
_chemical_formula_sum              "Ti16 Cu16 H96 C144 I16 N24 O56"
_cell_length_a       33.1714
_cell_length_b       31.0815
_cell_length_c       19.6798
_cell_angle_alpha    78.064
_cell_angle_beta     66.4537
_cell_angle_gamma    35.4823

_symmetry_space_group_name_H-M    "P 1"
_symmetry_Int_Tables_number       1

loop_
  _symmetry_equiv_pos_as_xyz
  'x, y, z'

loop_
  _atom_site_type_symbol
  _atom_site_label
  _atom_site_symmetry_multiplicity
  _atom_site_fract_x
  _atom_site_fract_y
  _atom_site_fract_z
  _atom_site_occupancy
  _atom_site_charge
Ti  Ti1       1.0  0.91461  0.91769  0.74993  1.0000 1.8527756449
Ti  Ti2       1.0  0.98348  0.82958  0.56376  1.0000 1.9710403022
Ti  Ti3       1.0  0.91769  0.91461  0.41777  1.0000 1.8527756449
Ti  Ti4       1.0  0.82958  0.98348  0.62318  1.0000 1.9710403022
Ti  Ti5       1.0  0.74993  0.41777  0.91461  1.0000 1.8527756449
Ti  Ti6       1.0  0.56376  0.62318  0.98348  1.0000 1.9710403022
Ti  Ti7       1.0  0.41777  0.74993  0.91769  1.0000 1.8527756449
Ti  Ti8       1.0  0.62318  0.56376  0.82958  1.0000 1.9710403022
Ti  Ti9       1.0  0.33539  0.33231  0.50007  1.0000 1.8572103417
Ti  Ti10      1.0  0.26652  0.42042  0.68624  1.0000 1.9710403022
Ti  Ti11      1.0  0.33231  0.33539  0.83223  1.0000 1.8572103417
Ti  Ti12      1.0  0.42042  0.26652  0.62682  1.0000 1.9710403022
Ti  Ti13      1.0  0.50007  0.83223  0.33539  1.0000 1.8527756449
Ti  Ti14      1.0  0.68624  0.62682  0.26652  1.0000 1.9710403022
Ti  Ti15      1.0  0.83223  0.50007  0.33231  1.0000 1.8572103417
Ti  Ti16      1.0  0.62682  0.68624  0.42042  1.0000 1.9710403022
Cu  Cu1       1.0  0.41621  0.55205  0.52655  1.0000 0.1989569269
Cu  Cu2       1.0  0.00607  0.11803  0.49585  1.0000 0.1989569269
Cu  Cu3       1.0  0.55205  0.41621  0.50519  1.0000 0.1989569269
Cu  Cu4       1.0  0.11803  0.00607  0.38005  1.0000 0.1989569269
Cu  Cu5       1.0  0.52655  0.50519  0.41621  1.0000 0.1929643538
Cu  Cu6       1.0  0.49585  0.38005  0.00607  1.0000 0.1989569269
Cu  Cu7       1.0  0.50519  0.52655  0.55205  1.0000 0.1989569269
Cu  Cu8       1.0  0.38005  0.49585  0.11803  1.0000 0.1989569269
Cu  Cu9       1.0  0.83379  0.69795  0.72345  1.0000 0.1989569269
Cu  Cu10      1.0  0.24393  0.13197  0.75415  1.0000 0.1989569269
Cu  Cu11      1.0  0.69795  0.83379  0.74481  1.0000 0.1929643538
Cu  Cu12      1.0  0.13197  0.24393  0.86995  1.0000 0.1989569269
Cu  Cu13      1.0  0.72345  0.74481  0.83379  1.0000 0.1989569269
Cu  Cu14      1.0  0.75415  0.86995  0.24393  1.0000 0.1989569269
Cu  Cu15      1.0  0.74481  0.72345  0.69795  1.0000 0.1929643538
Cu  Cu16      1.0  0.86995  0.75415  0.13197  1.0000 0.1989569269
H   H1        1.0  0.19550  0.67770  0.50390  1.0000 0.127225877
H   H2        1.0  0.32200  0.59280  0.46480  1.0000 0.0924494493
H   H3        1.0  0.26880  0.68120  0.65780  1.0000 0.097411928
H   H4        1.0  0.14230  0.76610  0.69690  1.0000 0.1187761149
H   H5        1.0  0.86370  0.09790  0.52650  1.0000 0.1103730561
H   H6        1.0  0.90880  0.13260  0.47660  1.0000 0.0847172972
H   H7        1.0  0.99620  0.05200  0.63220  1.0000 0.0924494493
H   H8        1.0  0.95110  0.01730  0.68210  1.0000 0.1187761149
H   H9        1.0  0.63110  0.20810  0.00630  1.0000 0.097411928
H   H10       1.0  0.72680  0.09440  0.91940  1.0000 0.1103730561
H   H11       1.0  0.62500  0.20920  0.77440  1.0000 0.1103730561
H   H12       1.0  0.52910  0.32290  0.86130  1.0000 0.097411928
H   H13       1.0  0.67770  0.19550  0.62290  1.0000 0.127225877
H   H14       1.0  0.59280  0.32200  0.62040  1.0000 0.0924494493
H   H15       1.0  0.68120  0.26880  0.39220  1.0000 0.097411928
H   H16       1.0  0.76610  0.14230  0.39470  1.0000 0.1187761149
H   H17       1.0  0.09790  0.86370  0.51190  1.0000 0.1103730561
H   H18       1.0  0.13260  0.90880  0.48200  1.0000 0.0847172972
H   H19       1.0  0.05200  0.99620  0.31960  1.0000 0.0924494493
H   H20       1.0  0.01730  0.95110  0.34950  1.0000 0.1187761149
H   H21       1.0  0.20810  0.63110  0.15450  1.0000 0.097411928
H   H22       1.0  0.09440  0.72680  0.25940  1.0000 0.1103730561
H   H23       1.0  0.20920  0.62500  0.39140  1.0000 0.1103730561
H   H24       1.0  0.32290  0.52910  0.28670  1.0000 0.097411928
H   H25       1.0  0.50390  0.62290  0.19550  1.0000 0.127225877
H   H26       1.0  0.46480  0.62040  0.32200  1.0000 0.0924494493
H   H27       1.0  0.65780  0.39220  0.26880  1.0000 0.097411928
H   H28       1.0  0.69690  0.39470  0.14230  1.0000 0.1187761149
H   H29       1.0  0.52650  0.51190  0.86370  1.0000 0.1103730561
H   H30       1.0  0.47660  0.48200  0.90880  1.0000 0.0847172972
H   H31       1.0  0.63220  0.31960  0.99620  1.0000 0.0924494493
H   H32       1.0  0.68210  0.34950  0.95110  1.0000 0.1187761149
H   H33       1.0  0.00630  0.15450  0.63110  1.0000 0.097411928
H   H34       1.0  0.91940  0.25940  0.72680  1.0000 0.1103730561
H   H35       1.0  0.77440  0.39140  0.62500  1.0000 0.1103730561
H   H36       1.0  0.86130  0.28670  0.52910  1.0000 0.097411928
H   H37       1.0  0.62290  0.50390  0.67770  1.0000 0.127225877
H   H38       1.0  0.62040  0.46480  0.59280  1.0000 0.0924494493
H   H39       1.0  0.39220  0.65780  0.68120  1.0000 0.097411928
H   H40       1.0  0.39470  0.69690  0.76610  1.0000 0.1187761149
H   H41       1.0  0.51190  0.52650  0.09790  1.0000 0.1103730561
H   H42       1.0  0.48200  0.47660  0.13260  1.0000 0.0847172972
H   H43       1.0  0.31960  0.63220  0.05200  1.0000 0.0924494493
H   H44       1.0  0.34950  0.68210  0.01730  1.0000 0.1187761149
H   H45       1.0  0.15450  0.00630  0.20810  1.0000 0.097411928
H   H46       1.0  0.25940  0.91940  0.09440  1.0000 0.1103730561
H   H47       1.0  0.39140  0.77440  0.20920  1.0000 0.1103730561
H   H48       1.0  0.28670  0.86130  0.32290  1.0000 0.097411928
H   H49       1.0  0.05450  0.57230  0.74610  1.0000 0.127225877
H   H50       1.0  0.92800  0.65720  0.78520  1.0000 0.0924494493
H   H51       1.0  0.98120  0.56880  0.59220  1.0000 0.097411928
H   H52       1.0  0.10770  0.48390  0.55310  1.0000 0.1187761149
H   H53       1.0  0.38630  0.15210  0.72350  1.0000 0.1103730561
H   H54       1.0  0.34120  0.11740  0.77340  1.0000 0.0847172972
H   H55       1.0  0.25380  0.19800  0.61780  1.0000 0.0924494493
H   H56       1.0  0.29890  0.23270  0.56790  1.0000 0.1187761149
H   H57       1.0  0.61890  0.04190  0.24370  1.0000 0.097411928
H   H58       1.0  0.52320  0.15560  0.33060  1.0000 0.1103730561
H   H59       1.0  0.62500  0.04080  0.47560  1.0000 0.1103730561
H   H60       1.0  0.72090  0.92710  0.38870  1.0000 0.097411928
H   H61       1.0  0.57230  0.05450  0.62710  1.0000 0.127225877
H   H62       1.0  0.65720  0.92800  0.62960  1.0000 0.0924494493
H   H63       1.0  0.56880  0.98120  0.85780  1.0000 0.097411928
H   H64       1.0  0.48390  0.10770  0.85530  1.0000 0.1187761149
H   H65       1.0  0.15210  0.38630  0.73810  1.0000 0.1103730561
H   H66       1.0  0.11740  0.34120  0.76800  1.0000 0.0924494493
H   H67       1.0  0.19800  0.25380  0.93040  1.0000 0.0924494493
H   H68       1.0  0.23270  0.29890  0.90050  1.0000 0.1187761149
H   H69       1.0  0.04190  0.61890  0.09550  1.0000 0.097411928
H   H70       1.0  0.15560  0.52320  0.99060  1.0000 0.1103730561
H   H71       1.0  0.04080  0.62500  0.85860  1.0000 0.1103730561
H   H72       1.0  0.92710  0.72090  0.96330  1.0000 0.097411928
H   H73       1.0  0.74610  0.62710  0.05450  1.0000 0.127225877
H   H74       1.0  0.78520  0.62960  0.92800  1.0000 0.0924494493
H   H75       1.0  0.59220  0.85780  0.98120  1.0000 0.097411928
H   H76       1.0  0.55310  0.85530  0.10770  1.0000 0.1187761149
H   H77       1.0  0.72350  0.73810  0.38630  1.0000 0.1103730561
H   H78       1.0  0.77340  0.76800  0.34120  1.0000 0.0847172972
H   H79       1.0  0.61780  0.93040  0.25380  1.0000 0.0924494493
H   H80       1.0  0.56790  0.90050  0.29890  1.0000 0.1187761149
H   H81       1.0  0.24370  0.09550  0.61890  1.0000 0.097411928
H   H82       1.0  0.33060  0.99060  0.52320  1.0000 0.1103730561
H   H83       1.0  0.47560  0.85860  0.62500  1.0000 0.1103730561
H   H84       1.0  0.38870  0.96330  0.72090  1.0000 0.097411928
H   H85       1.0  0.62710  0.74610  0.57230  1.0000 0.127225877
H   H86       1.0  0.62960  0.78520  0.65720  1.0000 0.0924494493
H   H87       1.0  0.85780  0.59220  0.56880  1.0000 0.097411928
H   H88       1.0  0.85530  0.55310  0.48390  1.0000 0.1187761149
H   H89       1.0  0.73810  0.72350  0.15210  1.0000 0.1103730561
H   H90       1.0  0.76800  0.77340  0.11740  1.0000 0.0847172972
H   H91       1.0  0.93040  0.61780  0.19800  1.0000 0.0924494493
H   H92       1.0  0.90050  0.56790  0.23270  1.0000 0.1187761149
H   H93       1.0  0.09550  0.24370  0.04190  1.0000 0.097411928
H   H94       1.0  0.99060  0.33060  0.15560  1.0000 0.1103730561
H   H95       1.0  0.85860  0.47560  0.04080  1.0000 0.1103730561
H   H96       1.0  0.96330  0.38870  0.92710  1.0000 0.097411928
C   C1        1.0  0.07504  0.78204  0.62916  1.0000 0.6198063653
C   C2        1.0  0.15638  0.73030  0.60430  1.0000 0.0135158796
C   C3        1.0  0.21019  0.67841  0.53479  1.0000 -0.1573389012
C   C4        1.0  0.28595  0.62755  0.51125  1.0000 0.0500731512
C   C5        1.0  0.25411  0.68047  0.62693  1.0000 0.0500731512
C   C6        1.0  0.17840  0.73128  0.65032  1.0000 -0.1573389012
C   C7        1.0  0.89056  0.01976  0.63364  1.0000 0.5667370197
C   C8        1.0  0.90299  0.05417  0.60929  1.0000 -0.0798474204
C   C9        1.0  0.89032  0.08870  0.54770  1.0000 -0.1394842246
C   C10       1.0  0.91736  0.10948  0.51772  1.0000 0.0395448267
C   C11       1.0  0.96969  0.06123  0.61097  1.0000 0.0395448267
C   C12       1.0  0.94265  0.04045  0.64095  1.0000 -0.1394842246
C   C13       1.0  0.74618  0.07082  0.78962  1.0000 0.5611670848
C   C14       1.0  0.62984  0.20836  0.95982  1.0000 0.0395448267
C   C15       1.0  0.68723  0.14021  0.90777  1.0000 -0.1140807675
C   C16       1.0  0.68545  0.14047  0.83835  1.0000 -0.0885642979
C   C17       1.0  0.62622  0.20892  0.82088  1.0000 -0.1183988498
C   C18       1.0  0.56883  0.27707  0.87293  1.0000 0.0314808993
C   C19       1.0  0.78204  0.07504  0.51376  1.0000 0.6198063653
C   C20       1.0  0.73030  0.15638  0.50902  1.0000 0.0135158796
C   C21       1.0  0.67841  0.21019  0.57661  1.0000 -0.1573389012
C   C22       1.0  0.62755  0.28595  0.57525  1.0000 0.0500731512
C   C23       1.0  0.68047  0.25411  0.43849  1.0000 0.0500731512
C   C24       1.0  0.73128  0.17840  0.44000  1.0000 -0.1573389012
C   C25       1.0  0.01976  0.89056  0.45604  1.0000 0.5667370197
C   C26       1.0  0.05417  0.90299  0.43355  1.0000 -0.0798474204
C   C27       1.0  0.08870  0.89032  0.47328  1.0000 -0.1394842246
C   C28       1.0  0.10948  0.91736  0.45544  1.0000 0.0395448267
C   C29       1.0  0.06123  0.96969  0.35811  1.0000 0.0395448267
C   C30       1.0  0.04045  0.94265  0.37595  1.0000 -0.1394842246
C   C31       1.0  0.07082  0.74618  0.39338  1.0000 0.5611670848
C   C32       1.0  0.20836  0.62984  0.20198  1.0000 0.0395448267
C   C33       1.0  0.14021  0.68723  0.26479  1.0000 -0.1140807675
C   C34       1.0  0.14047  0.68545  0.33573  1.0000 -0.0885642979
C   C35       1.0  0.20892  0.62622  0.34398  1.0000 -0.1183988498
C   C36       1.0  0.27707  0.56883  0.28117  1.0000 0.0314808993
C   C37       1.0  0.62916  0.51376  0.07504  1.0000 0.6198063653
C   C38       1.0  0.60430  0.50902  0.15638  1.0000 0.0135158796
C   C39       1.0  0.53479  0.57661  0.21019  1.0000 -0.1573389012
C   C40       1.0  0.51125  0.57525  0.28595  1.0000 0.0500731512
C   C41       1.0  0.62693  0.43849  0.25411  1.0000 0.0500731512
C   C42       1.0  0.65032  0.44000  0.17840  1.0000 -0.1573389012
C   C43       1.0  0.63364  0.45604  0.89056  1.0000 0.5667370197
C   C44       1.0  0.60929  0.43355  0.90299  1.0000 -0.0798474204
C   C45       1.0  0.54770  0.47328  0.89032  1.0000 -0.1394842246
C   C46       1.0  0.51772  0.45544  0.91736  1.0000 0.0395448267
C   C47       1.0  0.61097  0.35811  0.96969  1.0000 0.0395448267
C   C48       1.0  0.64095  0.37595  0.94265  1.0000 -0.1394842246
C   C49       1.0  0.78962  0.39338  0.74618  1.0000 0.5611670848
C   C50       1.0  0.95982  0.20198  0.62984  1.0000 0.0395448267
C   C51       1.0  0.90777  0.26479  0.68723  1.0000 -0.1140807675
C   C52       1.0  0.83835  0.33573  0.68545  1.0000 -0.0885642979
C   C53       1.0  0.82088  0.34398  0.62622  1.0000 -0.1183988498
C   C54       1.0  0.87293  0.28117  0.56883  1.0000 0.0314808993
C   C55       1.0  0.51376  0.62916  0.78204  1.0000 0.6198063653
C   C56       1.0  0.50902  0.60430  0.73030  1.0000 0.0135158796
C   C57       1.0  0.57661  0.53479  0.67841  1.0000 -0.1573389012
C   C58       1.0  0.57525  0.51125  0.62755  1.0000 0.0500731512
C   C59       1.0  0.43849  0.62693  0.68047  1.0000 0.0500731512
C   C60       1.0  0.44000  0.65032  0.73128  1.0000 -0.1573389012
C   C61       1.0  0.45604  0.63364  0.01976  1.0000 0.5667370197
C   C62       1.0  0.43355  0.60929  0.05417  1.0000 -0.0798474204
C   C63       1.0  0.47328  0.54770  0.08870  1.0000 -0.1394842246
C   C64       1.0  0.45544  0.51772  0.10948  1.0000 0.0395448267
C   C65       1.0  0.35811  0.61097  0.06123  1.0000 0.0395448267
C   C66       1.0  0.37595  0.64095  0.04045  1.0000 -0.1394842246
C   C67       1.0  0.39338  0.78962  0.07082  1.0000 0.5611670848
C   C68       1.0  0.20198  0.95982  0.20836  1.0000 0.0395448267
C   C69       1.0  0.26479  0.90777  0.14021  1.0000 -0.1183988498
C   C70       1.0  0.33573  0.83835  0.14047  1.0000 -0.0885642979
C   C71       1.0  0.34398  0.82088  0.20892  1.0000 -0.1183988498
C   C72       1.0  0.28117  0.87293  0.27707  1.0000 0.0314808993
C   C73       1.0  0.17496  0.46796  0.62084  1.0000 0.6198063653
C   C74       1.0  0.09362  0.51970  0.64570  1.0000 0.0135158796
C   C75       1.0  0.03981  0.57159  0.71521  1.0000 -0.1573389012
C   C76       1.0  0.96405  0.62245  0.73875  1.0000 0.0500731512
C   C77       1.0  0.99589  0.56953  0.62307  1.0000 0.0500731512
C   C78       1.0  0.07160  0.51872  0.59968  1.0000 -0.1573389012
C   C79       1.0  0.35944  0.23024  0.61636  1.0000 0.5667370197
C   C80       1.0  0.34701  0.19583  0.64071  1.0000 -0.0798474204
C   C81       1.0  0.35968  0.16130  0.70230  1.0000 -0.1394842246
C   C82       1.0  0.33264  0.14052  0.73228  1.0000 0.0395448267
C   C83       1.0  0.28031  0.18877  0.63903  1.0000 0.0395448267
C   C84       1.0  0.30735  0.20955  0.60905  1.0000 -0.1394842246
C   C85       1.0  0.50382  0.17918  0.46038  1.0000 0.5611670848
C   C86       1.0  0.62016  0.04164  0.29018  1.0000 0.0395448267
C   C87       1.0  0.56277  0.10979  0.34223  1.0000 -0.1140807675
C   C88       1.0  0.56455  0.10953  0.41165  1.0000 -0.0885642979
C   C89       1.0  0.62378  0.04108  0.42912  1.0000 -0.1183988498
C   C90       1.0  0.68117  0.97293  0.37707  1.0000 0.0314808993
C   C91       1.0  0.46796  0.17496  0.73624  1.0000 0.6198063653
C   C92       1.0  0.51970  0.09362  0.74098  1.0000 0.0135158796
C   C93       1.0  0.57159  0.03981  0.67339  1.0000 -0.1573389012
C   C94       1.0  0.62245  0.96405  0.67475  1.0000 0.0500731512
C   C95       1.0  0.56953  0.99589  0.81151  1.0000 0.0500731512
C   C96       1.0  0.51872  0.07160  0.81000  1.0000 -0.1573389012
C   C97       1.0  0.23024  0.35944  0.79396  1.0000 0.5667370197
C   C98       1.0  0.19583  0.34701  0.81645  1.0000 -0.0798474204
C   C99       1.0  0.16130  0.35968  0.77672  1.0000 -0.1394842246
C   C100      1.0  0.14052  0.33264  0.79456  1.0000 0.0395448267
C   C101      1.0  0.18877  0.28031  0.89189  1.0000 0.0395448267
C   C102      1.0  0.20955  0.30735  0.87405  1.0000 -0.1394842246
C   C103      1.0  0.17918  0.50382  0.85662  1.0000 0.5611670848
C   C104      1.0  0.04164  0.62016  0.04802  1.0000 0.0395448267
C   C105      1.0  0.10979  0.56277  0.98521  1.0000 -0.1140807675
C   C106      1.0  0.10953  0.56455  0.91427  1.0000 -0.0885642979
C   C107      1.0  0.04108  0.62378  0.90602  1.0000 -0.1183988498
C   C108      1.0  0.97293  0.68117  0.96883  1.0000 0.0314808993
C   C109      1.0  0.62084  0.73624  0.17496  1.0000 0.6198063653
C   C110      1.0  0.64570  0.74098  0.09362  1.0000 0.0135158796
C   C111      1.0  0.71521  0.67339  0.03981  1.0000 -0.1573389012
C   C112      1.0  0.73875  0.67475  0.96405  1.0000 0.0500731512
C   C113      1.0  0.62307  0.81151  0.99589  1.0000 0.0500731512
C   C114      1.0  0.59968  0.81000  0.07160  1.0000 -0.1573389012
C   C115      1.0  0.61636  0.79396  0.35944  1.0000 0.5667370197
C   C116      1.0  0.64071  0.81645  0.34701  1.0000 -0.0798474204
C   C117      1.0  0.70230  0.77672  0.35968  1.0000 -0.1394842246
C   C118      1.0  0.73228  0.79456  0.33264  1.0000 0.0395448267
C   C119      1.0  0.63903  0.89189  0.28031  1.0000 0.0395448267
C   C120      1.0  0.60905  0.87405  0.30735  1.0000 -0.1394842246
C   C121      1.0  0.46038  0.85662  0.50382  1.0000 0.5611670848
C   C122      1.0  0.29018  0.04802  0.62016  1.0000 0.0395448267
C   C123      1.0  0.34223  0.98521  0.56277  1.0000 -0.1140807675
C   C124      1.0  0.41165  0.91427  0.56455  1.0000 -0.0885642979
C   C125      1.0  0.42912  0.90602  0.62378  1.0000 -0.1183988498
C   C126      1.0  0.37707  0.96883  0.68117  1.0000 0.0314808993
C   C127      1.0  0.73624  0.62084  0.46796  1.0000 0.6198063653
C   C128      1.0  0.74098  0.64570  0.51970  1.0000 0.0135158796
C   C129      1.0  0.67339  0.71521  0.57159  1.0000 -0.1573389012
C   C130      1.0  0.67475  0.73875  0.62245  1.0000 0.0500731512
C   C131      1.0  0.81151  0.62307  0.56953  1.0000 0.0500731512
C   C132      1.0  0.81000  0.59968  0.51872  1.0000 -0.1573389012
C   C133      1.0  0.79396  0.61636  0.23024  1.0000 0.5667370197
C   C134      1.0  0.81645  0.64071  0.19583  1.0000 -0.0798474204
C   C135      1.0  0.77672  0.70230  0.16130  1.0000 -0.1394842246
C   C136      1.0  0.79456  0.73228  0.14052  1.0000 0.0395448267
C   C137      1.0  0.89189  0.63903  0.18877  1.0000 0.0395448267
C   C138      1.0  0.87405  0.60905  0.20955  1.0000 -0.1394842246
C   C139      1.0  0.85662  0.46038  0.17918  1.0000 0.5611670848
C   C140      1.0  0.04802  0.29018  0.04164  1.0000 0.0395448267
C   C141      1.0  0.98521  0.34223  0.10979  1.0000 -0.1140807675
C   C142      1.0  0.91427  0.41165  0.10953  1.0000 -0.0885642979
C   C143      1.0  0.90602  0.42912  0.04108  1.0000 -0.1183988498
C   C144      1.0  0.96883  0.37707  0.97293  1.0000 0.0314808993
I   I1        1.0  0.44790  0.49534  0.64674  1.0000 -0.3733801011
I   I2        1.0  0.99866  0.14564  0.36410  1.0000 -0.4995682079
I   I3        1.0  0.49534  0.44790  0.41002  1.0000 -0.3733801011
I   I4        1.0  0.14564  0.99866  0.49160  1.0000 -0.4995682079
I   I5        1.0  0.64674  0.41002  0.44790  1.0000 -0.3733801011
I   I6        1.0  0.36410  0.49160  0.99866  1.0000 -0.4995682079
I   I7        1.0  0.41002  0.64674  0.49534  1.0000 -0.3733801011
I   I8        1.0  0.49160  0.36410  0.14564  1.0000 -0.4995682079
I   I9        1.0  0.80210  0.75466  0.60326  1.0000 -0.3733801011
I   I10       1.0  0.25134  0.10436  0.88590  1.0000 -0.4995682079
I   I11       1.0  0.75466  0.80210  0.83998  1.0000 -0.3733801011
I   I12       1.0  0.10436  0.25134  0.75840  1.0000 -0.4995682079
I   I13       1.0  0.60326  0.83998  0.80210  1.0000 -0.3733801011
I   I14       1.0  0.88590  0.75840  0.25134  1.0000 -0.4995682079
I   I15       1.0  0.83998  0.60326  0.75466  1.0000 -0.3733801011
I   I16       1.0  0.75840  0.88590  0.10436  1.0000 -0.4995682079
N   N1        1.0  0.30794  0.62854  0.55746  1.0000 -0.176281818
N   N2        1.0  0.95699  0.09579  0.54941  1.0000 -0.21027002
N   N3        1.0  0.57062  0.27680  0.94242  1.0000 -0.192896229
N   N4        1.0  0.62854  0.30794  0.50606  1.0000 -0.176281818
N   N5        1.0  0.09579  0.95699  0.39781  1.0000 -0.21027002
N   N6        1.0  0.27680  0.57062  0.21016  1.0000 -0.192896229
N   N7        1.0  0.55746  0.50606  0.30794  1.0000 -0.176281818
N   N8        1.0  0.54941  0.39781  0.95699  1.0000 -0.21027002
N   N9        1.0  0.94242  0.21016  0.57062  1.0000 -0.192896229
N   N10       1.0  0.50606  0.55746  0.62854  1.0000 -0.176281818
N   N11       1.0  0.39781  0.54941  0.09579  1.0000 -0.21027002
N   N12       1.0  0.21016  0.94242  0.27680  1.0000 -0.192896229
N   N13       1.0  0.94206  0.62146  0.69254  1.0000 -0.176281818
N   N14       1.0  0.29301  0.15421  0.70059  1.0000 -0.21027002
N   N15       1.0  0.67938  0.97320  0.30758  1.0000 -0.192896229
N   N16       1.0  0.62146  0.94206  0.74394  1.0000 -0.176281818
N   N17       1.0  0.15421  0.29301  0.85219  1.0000 -0.21027002
N   N18       1.0  0.97320  0.67938  0.03984  1.0000 -0.192896229
N   N19       1.0  0.69254  0.74394  0.94206  1.0000 -0.176281818
N   N20       1.0  0.70059  0.85219  0.29301  1.0000 -0.21027002
N   N21       1.0  0.30758  0.03984  0.67938  1.0000 -0.192896229
N   N22       1.0  0.74394  0.69254  0.62146  1.0000 -0.176281818
N   N23       1.0  0.85219  0.70059  0.15421  1.0000 -0.21027002
N   N24       1.0  0.03984  0.30758  0.97320  1.0000 -0.192896229
O   O1        1.0  0.86316  0.02184  0.59596  1.0000 -0.621816038
O   O2        1.0  0.89091  0.00131  0.69649  1.0000 -0.5995234016
O   O3        1.0  0.02660  0.84130  0.68310  1.0000 -0.7043513222
O   O4        1.0  0.06210  0.76610  0.60130  1.0000 -0.5259640727
O   O5        1.0  0.79990  0.00770  0.80370  1.0000 -0.6697964657
O   O6        1.0  0.74986  0.07166  0.72074  1.0000 -0.6527787659
O   O7        1.0  0.91023  0.90359  0.65441  1.0000 -1.2708820466
O   O8        1.0  0.02184  0.86316  0.51904  1.0000 -0.621816038
O   O9        1.0  0.00131  0.89091  0.41129  1.0000 -0.5995234016
O   O10       1.0  0.84130  0.02660  0.44900  1.0000 -0.7043513222
O   O11       1.0  0.76610  0.06210  0.57050  1.0000 -0.5259640727
O   O12       1.0  0.00770  0.79990  0.38870  1.0000 -0.6697964657
O   O13       1.0  0.07166  0.74986  0.45774  1.0000 -0.6527787659
O   O14       1.0  0.90359  0.91023  0.53177  1.0000 -1.2708820466
O   O15       1.0  0.59596  0.51904  0.86316  1.0000 -0.621816038
O   O16       1.0  0.69649  0.41129  0.89091  1.0000 -0.5995234016
O   O17       1.0  0.68310  0.44900  0.02660  1.0000 -0.7043513222
O   O18       1.0  0.60130  0.57050  0.06210  1.0000 -0.5259640727
O   O19       1.0  0.80370  0.38870  0.79990  1.0000 -0.6697964657
O   O20       1.0  0.72074  0.45774  0.74986  1.0000 -0.6527787659
O   O21       1.0  0.65441  0.53177  0.91023  1.0000 -1.2708820466
O   O22       1.0  0.51904  0.59596  0.02184  1.0000 -0.621816038
O   O23       1.0  0.41129  0.69649  0.00131  1.0000 -0.5995234016
O   O24       1.0  0.44900  0.68310  0.84130  1.0000 -0.7055616144
O   O25       1.0  0.57050  0.60130  0.76610  1.0000 -0.5259640727
O   O26       1.0  0.38870  0.80370  0.00770  1.0000 -0.6697964657
O   O27       1.0  0.45774  0.72074  0.07166  1.0000 -0.6527787659
O   O28       1.0  0.53177  0.65441  0.90359  1.0000 -1.2647260193
O   O29       1.0  0.38684  0.22816  0.65404  1.0000 -0.621816038
O   O30       1.0  0.35909  0.24869  0.55351  1.0000 -0.5995234016
O   O31       1.0  0.22340  0.40870  0.56690  1.0000 -0.7043513222
O   O32       1.0  0.18790  0.48390  0.64870  1.0000 -0.5259640727
O   O33       1.0  0.45010  0.24230  0.44630  1.0000 -0.6697964657
O   O34       1.0  0.50014  0.17834  0.52926  1.0000 -0.6527787659
O   O35       1.0  0.33977  0.34641  0.59559  1.0000 -1.2708820466
O   O36       1.0  0.22816  0.38684  0.73096  1.0000 -0.621816038
O   O37       1.0  0.24869  0.35909  0.83871  1.0000 -0.5995234016
O   O38       1.0  0.40870  0.22340  0.80100  1.0000 -0.7055616144
O   O39       1.0  0.48390  0.18790  0.67950  1.0000 -0.5259640727
O   O40       1.0  0.24230  0.45010  0.86130  1.0000 -0.6697964657
O   O41       1.0  0.17834  0.50014  0.79226  1.0000 -0.6527787659
O   O42       1.0  0.34641  0.33977  0.71823  1.0000 -1.2708820466
O   O43       1.0  0.65404  0.73096  0.38684  1.0000 -0.621816038
O   O44       1.0  0.55351  0.83871  0.35909  1.0000 -0.5995234016
O   O45       1.0  0.56690  0.80100  0.22340  1.0000 -0.7043513222
O   O46       1.0  0.64870  0.67950  0.18790  1.0000 -0.5259640727
O   O47       1.0  0.44630  0.86130  0.45010  1.0000 -0.6697964657
O   O48       1.0  0.52926  0.79226  0.50014  1.0000 -0.6527787659
O   O49       1.0  0.59559  0.71823  0.33977  1.0000 -1.2647260193
O   O50       1.0  0.73096  0.65404  0.22816  1.0000 -0.621816038
O   O51       1.0  0.83871  0.55351  0.24869  1.0000 -0.5995234016
O   O52       1.0  0.80100  0.56690  0.40870  1.0000 -0.7043513222
O   O53       1.0  0.67950  0.64870  0.48390  1.0000 -0.5259640727
O   O54       1.0  0.86130  0.44630  0.24230  1.0000 -0.6697964657
O   O55       1.0  0.79226  0.52926  0.17834  1.0000 -0.6527787659
O   O56       1.0  0.71823  0.59559  0.34641  1.0000 -1.2708820466
