# DDEC6 charges by PACMAN v1.1 (https://github.com/mtap-research/PACMAN-charge/)
data_2018[Cd][hcb]2[ASR]1
_chemical_formula_sum              "Cd6 H36 C60 N24 O24"
_cell_length_a       11.6301
_cell_length_b       14.5642
_cell_length_c       16.3284
_cell_angle_alpha    92.4533
_cell_angle_beta     109.446
_cell_angle_gamma    112.602

_symmetry_space_group_name_H-M    "P 1"
_symmetry_Int_Tables_number       1

loop_
  _symmetry_equiv_pos_as_xyz
  'x, y, z'

loop_
  _atom_site_type_symbol
  _atom_site_label
  _atom_site_symmetry_multiplicity
  _atom_site_fract_x
  _atom_site_fract_y
  _atom_site_fract_z
  _atom_site_occupancy
  _atom_site_charge
Cd  Cd1       1.0  0.58150  0.35992  0.76031  1.0000 0.7892523134
Cd  Cd2       1.0  0.10119  0.84742  0.75210  1.0000 0.7965389216
Cd  Cd3       1.0  0.32932  0.62666  0.75850  1.0000 0.9365443909
Cd  Cd4       1.0  0.41850  0.64008  0.23969  1.0000 0.7892523134
Cd  Cd5       1.0  0.89881  0.15258  0.24790  1.0000 0.7965389216
Cd  Cd6       1.0  0.67068  0.37334  0.24150  1.0000 0.9365443909
H   H1        1.0  0.86895  0.84091  0.41097  1.0000 0.121277652
H   H2        1.0  0.15720  0.07844  0.79836  1.0000 0.1296684484
H   H3        1.0  0.91868  0.43589  0.09468  1.0000 0.1093479493
H   H4        1.0  0.68311  0.60905  0.80687  1.0000 0.1296684484
H   H5        1.0  0.83281  0.45114  0.70653  1.0000 0.1296684484
H   H6        1.0  0.84965  0.28183  0.82227  1.0000 0.121277652
H   H7        1.0  0.99861  0.59998  0.69974  1.0000 0.1296684484
H   H8        1.0  0.36362  0.97033  0.70678  1.0000 0.1296684484
H   H9        1.0  0.26548  0.44975  0.49193  1.0000 0.121277652
H   H10       1.0  0.43534  0.30843  0.39633  1.0000 0.121277652
H   H11       1.0  0.86435  0.95507  0.67366  1.0000 0.1296684484
H   H12       1.0  0.32992  0.02495  0.10713  1.0000 0.1296684484
H   H13       1.0  0.02010  0.28457  0.94904  1.0000 0.121277652
H   H14       1.0  0.45849  0.82904  0.04510  1.0000 0.121277652
H   H15       1.0  0.73753  0.98207  0.54251  1.0000 0.1371165538
H   H16       1.0  0.53864  0.28547  0.53504  1.0000 0.1296684484
H   H17       1.0  0.30288  0.24242  0.80243  1.0000 0.1491017962
H   H18       1.0  0.18333  0.99176  0.96202  1.0000 0.1296684484
H   H19       1.0  0.13105  0.15909  0.58903  1.0000 0.121277652
H   H20       1.0  0.84280  0.92156  0.20164  1.0000 0.1296684484
H   H21       1.0  0.08132  0.56411  0.90532  1.0000 0.1093479493
H   H22       1.0  0.31689  0.39095  0.19313  1.0000 0.1296684484
H   H23       1.0  0.16719  0.54886  0.29347  1.0000 0.1296684484
H   H24       1.0  0.15035  0.71817  0.17773  1.0000 0.121277652
H   H25       1.0  0.00139  0.40002  0.30026  1.0000 0.1296684484
H   H26       1.0  0.63638  0.02967  0.29322  1.0000 0.1296684484
H   H27       1.0  0.73452  0.55025  0.50807  1.0000 0.121277652
H   H28       1.0  0.56466  0.69157  0.60367  1.0000 0.121277652
H   H29       1.0  0.13565  0.04493  0.32634  1.0000 0.1296684484
H   H30       1.0  0.67008  0.97505  0.89287  1.0000 0.1296684484
H   H31       1.0  0.97990  0.71543  0.05096  1.0000 0.121277652
H   H32       1.0  0.54151  0.17096  0.95490  1.0000 0.121277652
H   H33       1.0  0.26247  0.01793  0.45749  1.0000 0.1371165538
H   H34       1.0  0.46136  0.71453  0.46496  1.0000 0.1296684484
H   H35       1.0  0.69712  0.75758  0.19757  1.0000 0.1491017962
H   H36       1.0  0.81667  0.00824  0.03798  1.0000 0.1296684484
C   C1        1.0  0.86990  0.86650  0.46650  1.0000 -0.008963605
C   C2        1.0  0.23070  0.08910  0.77980  1.0000 0.0022496541
C   C3        1.0  0.84700  0.69430  0.78160  1.0000 0.0710336329
C   C4        1.0  0.38940  0.40580  0.58380  1.0000 0.0598808377
C   C5        1.0  0.79900  0.39940  0.96370  1.0000 0.0598808377
C   C6        1.0  0.85680  0.79780  0.81330  1.0000 0.5317017832
C   C7        1.0  0.90360  0.40150  0.03800  1.0000 0.0022496541
C   C8        1.0  0.74840  0.60580  0.78460  1.0000 0.0295442817
C   C9        1.0  0.83440  0.51460  0.72690  1.0000 0.0295442817
C   C10       1.0  0.85980  0.31300  0.87880  1.0000 0.0522864468
C   C11       1.0  0.93380  0.60300  0.72260  1.0000 0.0390709911
C   C12       1.0  0.55210  0.14510  0.69480  1.0000 0.5224265182
C   C13       1.0  0.34890  0.02630  0.72660  1.0000 0.0522864468
C   C14       1.0  0.70560  0.44640  0.96890  1.0000 0.5317017832
C   C15       1.0  0.37540  0.45000  0.66500  1.0000 0.5559516573
C   C16       1.0  0.32400  0.41610  0.50020  1.0000 -0.008963605
C   C17       1.0  0.41910  0.33380  0.44460  1.0000 0.0118941779
C   C18       1.0  0.86810  0.93090  0.61940  1.0000 0.0522864468
C   C19       1.0  0.03520  0.79740  0.54430  1.0000 0.5317017832
C   C20       1.0  0.32970  0.97670  0.06510  1.0000 0.0390709911
C   C21       1.0  0.32090  0.84710  0.94130  1.0000 0.0598808377
C   C22       1.0  0.96190  0.31490  0.95380  1.0000 0.0118941779
C   C23       1.0  0.40330  0.86530  0.02810  1.0000 -0.008963605
C   C24       1.0  0.94680  0.85090  0.54320  1.0000 0.0522864468
C   C25       1.0  0.43670  0.12450  0.72680  1.0000 0.0867033774
C   C26       1.0  0.79260  0.94730  0.54180  1.0000 0.0295442817
C   C27       1.0  0.48310  0.32150  0.52800  1.0000 0.0295442817
C   C28       1.0  0.31680  0.18620  0.78220  1.0000 0.0295442817
C   C29       1.0  0.31420  0.77360  0.87070  1.0000 0.5317017832
C   C30       1.0  0.24260  0.95870  0.97770  1.0000 0.0522864468
C   C31       1.0  0.13010  0.13350  0.53350  1.0000 -0.008963605
C   C32       1.0  0.76930  0.91090  0.22020  1.0000 -0.0016364906
C   C33       1.0  0.15300  0.30570  0.21840  1.0000 0.0710336329
C   C34       1.0  0.61060  0.59420  0.41620  1.0000 0.0598808377
C   C35       1.0  0.20100  0.60060  0.03630  1.0000 0.0598808377
C   C36       1.0  0.14320  0.20220  0.18670  1.0000 0.5317017832
C   C37       1.0  0.09640  0.59850  0.96200  1.0000 0.0022496541
C   C38       1.0  0.25160  0.39420  0.21540  1.0000 0.0295442817
C   C39       1.0  0.16560  0.48540  0.27310  1.0000 0.0295442817
C   C40       1.0  0.14020  0.68700  0.12120  1.0000 0.0522864468
C   C41       1.0  0.06620  0.39700  0.27740  1.0000 0.0390709911
C   C42       1.0  0.44790  0.85490  0.30520  1.0000 0.5224265182
C   C43       1.0  0.65110  0.97370  0.27340  1.0000 0.0522864468
C   C44       1.0  0.29440  0.55360  0.03110  1.0000 0.5317017832
C   C45       1.0  0.62460  0.55000  0.33500  1.0000 0.5559516573
C   C46       1.0  0.67600  0.58390  0.49980  1.0000 -0.008963605
C   C47       1.0  0.58090  0.66620  0.55540  1.0000 0.0118941779
C   C48       1.0  0.13190  0.06910  0.38060  1.0000 0.0522864468
C   C49       1.0  0.96480  0.20260  0.45570  1.0000 0.5317017832
C   C50       1.0  0.67030  0.02330  0.93490  1.0000 0.0522864468
C   C51       1.0  0.67910  0.15290  0.05870  1.0000 0.0598808377
C   C52       1.0  0.03810  0.68510  0.04620  1.0000 0.0118941779
C   C53       1.0  0.59670  0.13470  0.97190  1.0000 -0.008963605
C   C54       1.0  0.05320  0.14910  0.45680  1.0000 0.0522864468
C   C55       1.0  0.56330  0.87550  0.27320  1.0000 0.0867033774
C   C56       1.0  0.20740  0.05270  0.45820  1.0000 0.0295442817
C   C57       1.0  0.51690  0.67850  0.47200  1.0000 0.0295442817
C   C58       1.0  0.68320  0.81380  0.21780  1.0000 0.0295442817
C   C59       1.0  0.68580  0.22640  0.12930  1.0000 0.5317017832
C   C60       1.0  0.75740  0.04130  0.02230  1.0000 0.0522864468
N   N1        1.0  0.42120  0.20320  0.75600  1.0000 -0.1909014236
N   N2        1.0  0.94080  0.69340  0.75090  1.0000 -0.1909014236
N   N3        1.0  0.74320  0.51580  0.75720  1.0000 -0.1757115996
N   N4        1.0  0.77820  0.35490  0.88310  1.0000 -0.2215139023
N   N5        1.0  0.24000  0.89490  0.91540  1.0000 -0.210939022
N   N6        1.0  0.46980  0.35860  0.59940  1.0000 -0.210939022
N   N7        1.0  0.94470  0.88270  0.62110  1.0000 -0.210939022
N   N8        1.0  0.24840  0.00940  0.75240  1.0000 -0.1909014236
N   N9        1.0  0.33560  0.37810  0.42870  1.0000 -0.2016970417
N   N10       1.0  0.98230  0.35700  0.03470  1.0000 -0.210939022
N   N11       1.0  0.41090  0.93160  0.09120  1.0000 -0.210939022
N   N12       1.0  0.79130  0.91540  0.46420  1.0000 -0.2016970417
N   N13       1.0  0.57880  0.79680  0.24400  1.0000 -0.1909014236
N   N14       1.0  0.05920  0.30660  0.24910  1.0000 -0.1909014236
N   N15       1.0  0.25680  0.48420  0.24280  1.0000 -0.1757115996
N   N16       1.0  0.22180  0.64510  0.11690  1.0000 -0.2215139023
N   N17       1.0  0.76000  0.10510  0.08460  1.0000 -0.210939022
N   N18       1.0  0.53020  0.64140  0.40060  1.0000 -0.210939022
N   N19       1.0  0.05530  0.11730  0.37890  1.0000 -0.210939022
N   N20       1.0  0.75160  0.99060  0.24760  1.0000 -0.1909014236
N   N21       1.0  0.66440  0.62190  0.57130  1.0000 -0.2016970417
N   N22       1.0  0.01770  0.64300  0.96530  1.0000 -0.210939022
N   N23       1.0  0.58910  0.06840  0.90880  1.0000 -0.210939022
N   N24       1.0  0.20870  0.08460  0.53580  1.0000 -0.2016970417
O   O1        1.0  0.42280  0.42580  0.73680  1.0000 -0.5072583532
O   O2        1.0  0.95510  0.87400  0.81210  1.0000 -0.5717058158
O   O3        1.0  0.60000  0.42430  0.90100  1.0000 -0.517531333
O   O4        1.0  0.10370  0.78700  0.61860  1.0000 -0.5321481701
O   O5        1.0  0.73860  0.50370  0.03970  1.0000 -0.535132823
O   O6        1.0  0.57130  0.07190  0.67180  1.0000 -0.5321481701
O   O7        1.0  0.76790  0.79950  0.83860  1.0000 -0.5573981976
O   O8        1.0  0.24710  0.76800  0.79090  1.0000 -0.5321481701
O   O9        1.0  0.62190  0.23570  0.69460  1.0000 -0.5573981976
O   O10       1.0  0.32050  0.50900  0.65240  1.0000 -0.5573981976
O   O11       1.0  0.03560  0.76770  0.47240  1.0000 -0.517531333
O   O12       1.0  0.37500  0.72020  0.89570  1.0000 -0.5026881075
O   O13       1.0  0.57720  0.57420  0.26320  1.0000 -0.5072583532
O   O14       1.0  0.04490  0.12600  0.18790  1.0000 -0.5717058158
O   O15       1.0  0.40000  0.57570  0.09900  1.0000 -0.517531333
O   O16       1.0  0.89630  0.21300  0.38140  1.0000 -0.5321481701
O   O17       1.0  0.26140  0.49630  0.96030  1.0000 -0.535132823
O   O18       1.0  0.42870  0.92810  0.32820  1.0000 -0.5321481701
O   O19       1.0  0.23210  0.20050  0.16140  1.0000 -0.5573981976
O   O20       1.0  0.75290  0.23200  0.20910  1.0000 -0.5321481701
O   O21       1.0  0.37810  0.76430  0.30540  1.0000 -0.5573981976
O   O22       1.0  0.67950  0.49100  0.34760  1.0000 -0.5573981976
O   O23       1.0  0.96440  0.23230  0.52760  1.0000 -0.517531333
O   O24       1.0  0.62500  0.27980  0.10430  1.0000 -0.5026881075
