# DDEC6 charges by PACMAN v1.1 (https://github.com/mtap-research/PACMAN-charge/)
data_2018[Eu][bnn]3[ASR]1
_chemical_formula_sum              "Eu4 H36 C84 N4 O32"
_cell_length_a       9.7329
_cell_length_b       15.7974
_cell_length_c       17.7693
_cell_angle_alpha    114.295
_cell_angle_beta     91.08
_cell_angle_gamma    95.362

_symmetry_space_group_name_H-M    "P 1"
_symmetry_Int_Tables_number       1

loop_
  _symmetry_equiv_pos_as_xyz
  'x, y, z'

loop_
  _atom_site_type_symbol
  _atom_site_label
  _atom_site_symmetry_multiplicity
  _atom_site_fract_x
  _atom_site_fract_y
  _atom_site_fract_z
  _atom_site_occupancy
  _atom_site_charge
Eu  Eu1       1.0  0.40843  0.76896  0.12501  1.0000 2.0337635832
Eu  Eu2       1.0  0.10933  0.72379  0.37186  1.0000 2.0377937314
Eu  Eu3       1.0  0.59157  0.23104  0.87499  1.0000 2.0377937314
Eu  Eu4       1.0  0.89067  0.27621  0.62814  1.0000 2.0377937314
H   H1        1.0  0.31060  0.25850  0.10930  1.0000 0.1279020606
H   H2        1.0  0.40190  0.49800  0.08250  1.0000 0.1491415067
H   H3        1.0  0.09460  0.47650  0.22320  1.0000 0.1362651246
H   H4        1.0  0.88560  0.18490  0.31030  1.0000 0.1207439758
H   H5        1.0  0.11550  0.17260  0.12330  1.0000 0.1279020606
H   H6        1.0  0.05750  0.41520  0.30800  1.0000 0.1279020606
H   H7        1.0  0.92400  0.79740  0.09340  1.0000 0.1491415067
H   H8        1.0  0.77080  0.04450  0.19860  1.0000 0.1279020606
H   H9        1.0  0.16960  0.03620  0.14480  1.0000 0.1207439758
H   H10       1.0  0.61940  0.68090  0.35910  1.0000 0.1491415067
H   H11       1.0  0.76070  0.43150  0.29430  1.0000 0.1279020606
H   H12       1.0  0.36070  0.45800  0.33690  1.0000 0.1279020606
H   H13       1.0  0.65300  0.29250  0.18770  1.0000 0.1207439758
H   H14       1.0  0.46780  0.07040  0.20070  1.0000 0.1279020606
H   H15       1.0  0.39460  0.32160  0.36630  1.0000 0.1279020606
H   H16       1.0  0.09100  0.00930  0.42240  1.0000 0.1491415067
H   H17       1.0  0.37190  0.00890  0.26050  1.0000 0.1362651246
H   H18       1.0  0.23070  0.24870  0.40710  1.0000 0.1279020606
H   H19       1.0  0.68940  0.74150  0.89070  1.0000 0.1279020606
H   H20       1.0  0.59810  0.50200  0.91750  1.0000 0.1491415067
H   H21       1.0  0.90540  0.52350  0.77680  1.0000 0.1362651246
H   H22       1.0  0.11440  0.81510  0.68970  1.0000 0.1207439758
H   H23       1.0  0.88450  0.82740  0.87670  1.0000 0.1279020606
H   H24       1.0  0.94250  0.58480  0.69200  1.0000 0.1279020606
H   H25       1.0  0.07600  0.20260  0.90660  1.0000 0.1491415067
H   H26       1.0  0.22920  0.95550  0.80140  1.0000 0.1279020606
H   H27       1.0  0.83040  0.96380  0.85520  1.0000 0.1207439758
H   H28       1.0  0.38060  0.31910  0.64090  1.0000 0.1491415067
H   H29       1.0  0.23930  0.56850  0.70570  1.0000 0.1279020606
H   H30       1.0  0.63930  0.54200  0.66310  1.0000 0.1279020606
H   H31       1.0  0.34700  0.70750  0.81230  1.0000 0.1207439758
H   H32       1.0  0.53220  0.92960  0.79930  1.0000 0.1279020606
H   H33       1.0  0.60540  0.67840  0.63370  1.0000 0.1279020606
H   H34       1.0  0.90900  0.99070  0.57760  1.0000 0.1491415067
H   H35       1.0  0.62810  0.99110  0.73950  1.0000 0.1362651246
H   H36       1.0  0.76930  0.75130  0.59290  1.0000 0.1279020606
C   C1        1.0  0.29300  0.31930  0.12070  1.0000 -0.140119894
C   C2        1.0  0.37270  0.37130  0.08640  1.0000 0.0014240802
C   C3        1.0  0.34850  0.46300  0.10470  1.0000 -0.0811929773
C   C4        1.0  0.24470  0.50230  0.15610  1.0000 -0.0204387247
C   C5        1.0  0.16450  0.45000  0.18920  1.0000 -0.1322461141
C   C6        1.0  0.18760  0.35770  0.17180  1.0000 0.0694943755
C   C7        1.0  0.94080  0.21510  0.28470  1.0000 0.0329848821
C   C8        1.0  0.99610  0.16080  0.21080  1.0000 0.0495995986
C   C9        1.0  0.07690  0.20670  0.17280  1.0000 -0.140119894
C   C10       1.0  0.10070  0.30410  0.20850  1.0000 0.0495995986
C   C11       1.0  0.04120  0.35040  0.28290  1.0000 0.037390326
C   C12       1.0  0.06610  0.90770  0.11390  1.0000 0.0014240802
C   C13       1.0  0.93640  0.86230  0.11420  1.0000 -0.0811929773
C   C14       1.0  0.82510  0.91280  0.14500  1.0000 0.0078290892
C   C15       1.0  0.84450  0.01050  0.17670  1.0000 -0.1322461141
C   C16       1.0  0.97230  0.05720  0.17600  1.0000 0.0694943755
C   C17       1.0  0.08340  0.00540  0.14490  1.0000 -0.140119894
C   C18       1.0  0.21590  0.60120  0.17490  1.0000 0.6614144402
C   C19       1.0  0.47880  0.32680  0.02730  1.0000 0.5679759937
C   C20       1.0  0.18930  0.85410  0.09010  1.0000 0.5609098929
C   C21       1.0  0.68740  0.86210  0.14580  1.0000 0.5679759937
C   C22       1.0  0.47160  0.57800  0.35010  1.0000 0.0014240802
C   C23       1.0  0.60370  0.61770  0.34760  1.0000 -0.0811929773
C   C24       1.0  0.71290  0.56270  0.32780  1.0000 0.0078290892
C   C25       1.0  0.68790  0.46820  0.30850  1.0000 -0.1322461141
C   C26       1.0  0.55570  0.42700  0.30980  1.0000 0.0694943755
C   C27       1.0  0.44870  0.48380  0.33290  1.0000 -0.1322461141
C   C28       1.0  0.59230  0.26580  0.21370  1.0000 0.037390326
C   C29       1.0  0.48290  0.13520  0.22170  1.0000 0.037390326
C   C30       1.0  0.41410  0.18620  0.29020  1.0000 0.0495995986
C   C31       1.0  0.43890  0.28400  0.32040  1.0000 -0.1458352549
C   C32       1.0  0.52930  0.32460  0.28200  1.0000 0.0495995986
C   C33       1.0  0.14650  0.04120  0.39820  1.0000 -0.0811929773
C   C34       1.0  0.22770  0.99290  0.33420  1.0000 -0.0204387247
C   C35       1.0  0.31470  0.04150  0.30140  1.0000 -0.1322461141
C   C36       1.0  0.31900  0.13810  0.32810  1.0000 0.0694943755
C   C37       1.0  0.23230  0.18470  0.38980  1.0000 -0.140119894
C   C38       1.0  0.14890  0.13810  0.42590  1.0000 0.0078290892
C   C39       1.0  0.85480  0.60650  0.32660  1.0000 0.5609098929
C   C40       1.0  0.35360  0.63580  0.36670  1.0000 0.5609098929
C   C41       1.0  0.06410  0.19020  0.49680  1.0000 0.5609098929
C   C42       1.0  0.22470  0.88820  0.30190  1.0000 0.6699932175
C   C43       1.0  0.70700  0.68070  0.87930  1.0000 -0.140119894
C   C44       1.0  0.62730  0.62870  0.91360  1.0000 0.0014240802
C   C45       1.0  0.65150  0.53700  0.89530  1.0000 -0.0811929773
C   C46       1.0  0.75530  0.49770  0.84390  1.0000 -0.0204387247
C   C47       1.0  0.83550  0.55000  0.81080  1.0000 -0.1322461141
C   C48       1.0  0.81240  0.64230  0.82820  1.0000 0.0694943755
C   C49       1.0  0.05920  0.78490  0.71530  1.0000 0.0329848821
C   C50       1.0  0.00390  0.83920  0.78920  1.0000 0.0495995986
C   C51       1.0  0.92310  0.79330  0.82720  1.0000 -0.140119894
C   C52       1.0  0.89930  0.69590  0.79150  1.0000 0.0495995986
C   C53       1.0  0.95880  0.64960  0.71710  1.0000 0.037390326
C   C54       1.0  0.93390  0.09230  0.88610  1.0000 0.0014240802
C   C55       1.0  0.06360  0.13770  0.88580  1.0000 -0.0811929773
C   C56       1.0  0.17490  0.08720  0.85500  1.0000 0.0078290892
C   C57       1.0  0.15550  0.98950  0.82330  1.0000 -0.1322461141
C   C58       1.0  0.02770  0.94280  0.82400  1.0000 0.0694943755
C   C59       1.0  0.91660  0.99460  0.85510  1.0000 -0.140119894
C   C60       1.0  0.78410  0.39880  0.82510  1.0000 0.6614144402
C   C61       1.0  0.52120  0.67320  0.97270  1.0000 0.5679759937
C   C62       1.0  0.81070  0.14590  0.90990  1.0000 0.5609098929
C   C63       1.0  0.31260  0.13790  0.85420  1.0000 0.5679759937
C   C64       1.0  0.52840  0.42200  0.64990  1.0000 -0.0002919267
C   C65       1.0  0.39630  0.38230  0.65240  1.0000 -0.0811929773
C   C66       1.0  0.28710  0.43730  0.67220  1.0000 0.0078290892
C   C67       1.0  0.31210  0.53180  0.69150  1.0000 -0.1322461141
C   C68       1.0  0.44430  0.57300  0.69020  1.0000 0.0694943755
C   C69       1.0  0.55130  0.51620  0.66710  1.0000 -0.1322461141
C   C70       1.0  0.40770  0.73420  0.78630  1.0000 0.037390326
C   C71       1.0  0.51710  0.86480  0.77830  1.0000 0.037390326
C   C72       1.0  0.58590  0.81380  0.70980  1.0000 0.0495995986
C   C73       1.0  0.56110  0.71600  0.67960  1.0000 -0.1458352549
C   C74       1.0  0.47070  0.67540  0.71800  1.0000 0.0495995986
C   C75       1.0  0.85350  0.95880  0.60180  1.0000 -0.0811929773
C   C76       1.0  0.77230  0.00710  0.66580  1.0000 -0.0204387247
C   C77       1.0  0.68530  0.95850  0.69860  1.0000 -0.1322461141
C   C78       1.0  0.68100  0.86190  0.67190  1.0000 0.0694943755
C   C79       1.0  0.76770  0.81530  0.61020  1.0000 -0.140119894
C   C80       1.0  0.85110  0.86190  0.57410  1.0000 0.0078290892
C   C81       1.0  0.14520  0.39350  0.67340  1.0000 0.5609098929
C   C82       1.0  0.64640  0.36420  0.63330  1.0000 0.5609098929
C   C83       1.0  0.93590  0.80980  0.50320  1.0000 0.5609098929
C   C84       1.0  0.77530  0.11180  0.69810  1.0000 0.6699932175
N   N1        1.0  0.96270  0.30820  0.32060  1.0000 -0.2028025133
N   N2        1.0  0.56990  0.17260  0.18350  1.0000 -0.2083354485
N   N3        1.0  0.03730  0.69180  0.67940  1.0000 -0.2028025133
N   N4        1.0  0.43010  0.82740  0.81650  1.0000 -0.2083354485
O   O1        1.0  0.12920  0.63650  0.22790  1.0000 -0.6463971031
O   O2        1.0  0.27770  0.64050  0.13530  1.0000 -0.6099208685
O   O3        1.0  0.53400  0.37150  0.98820  1.0000 -0.6000413043
O   O4        1.0  0.50720  0.24640  0.01390  1.0000 -0.578180377
O   O5        1.0  0.17440  0.76690  0.06620  1.0000 -0.5897724671
O   O6        1.0  0.30770  0.89900  0.10200  1.0000 -0.5897724671
O   O7        1.0  0.67720  0.77500  0.12270  1.0000 -0.6000413043
O   O8        1.0  0.58500  0.90790  0.16920  1.0000 -0.6099208685
O   O9        1.0  0.86790  0.67950  0.31380  1.0000 -0.5711777849
O   O10       1.0  0.95760  0.57040  0.33850  1.0000 -0.5897724671
O   O11       1.0  0.24560  0.61190  0.39410  1.0000 -0.6099208685
O   O12       1.0  0.36360  0.70630  0.34960  1.0000 -0.6099208685
O   O13       1.0  0.02850  0.26820  0.50580  1.0000 -0.6099208685
O   O14       1.0  0.03070  0.15260  0.54540  1.0000 -0.6000413043
O   O15       1.0  0.14720  0.84710  0.33370  1.0000 -0.6099208685
O   O16       1.0  0.30300  0.85000  0.24620  1.0000 -0.6463971031
O   O17       1.0  0.87080  0.36350  0.77210  1.0000 -0.6463971031
O   O18       1.0  0.72230  0.35950  0.86470  1.0000 -0.6099208685
O   O19       1.0  0.46600  0.62850  0.01180  1.0000 -0.6000413043
O   O20       1.0  0.49280  0.75360  0.98610  1.0000 -0.578180377
O   O21       1.0  0.82560  0.23310  0.93380  1.0000 -0.5897724671
O   O22       1.0  0.69230  0.10100  0.89800  1.0000 -0.5897724671
O   O23       1.0  0.32280  0.22500  0.87730  1.0000 -0.6000413043
O   O24       1.0  0.41500  0.09210  0.83080  1.0000 -0.6099208685
O   O25       1.0  0.13210  0.32050  0.68620  1.0000 -0.5711777849
O   O26       1.0  0.04240  0.42960  0.66150  1.0000 -0.5897724671
O   O27       1.0  0.75440  0.38810  0.60590  1.0000 -0.6099208685
O   O28       1.0  0.63640  0.29370  0.65040  1.0000 -0.6099208685
O   O29       1.0  0.97150  0.73180  0.49420  1.0000 -0.6099208685
O   O30       1.0  0.96930  0.84740  0.45460  1.0000 -0.6000413043
O   O31       1.0  0.85280  0.15290  0.66630  1.0000 -0.6099208685
O   O32       1.0  0.69700  0.15000  0.75380  1.0000 -0.6463971031
