# DDEC6 charges by PACMAN v1.1 (https://github.com/mtap-research/PACMAN-charge/)
data_2018[Cu][dia]3[ASR]1
_chemical_formula_sum              "Cu4 H80 C88 S4 N8 O16"
_cell_length_a       5.7261
_cell_length_b       20.1113
_cell_length_c       20.6628
_cell_angle_alpha    90
_cell_angle_beta     90
_cell_angle_gamma    90

_symmetry_space_group_name_H-M    "P 1"
_symmetry_Int_Tables_number       1

loop_
  _symmetry_equiv_pos_as_xyz
  'x, y, z'

loop_
  _atom_site_type_symbol
  _atom_site_label
  _atom_site_symmetry_multiplicity
  _atom_site_fract_x
  _atom_site_fract_y
  _atom_site_fract_z
  _atom_site_occupancy
  _atom_site_charge
Cu  Cu1       1.0  0.46807  0.75000  0.50000  1.0000 0.7273402382
Cu  Cu2       1.0  0.53193  0.75000  0.00000  1.0000 0.7273402382
Cu  Cu3       1.0  0.53193  0.25000  0.50000  1.0000 0.7273402382
Cu  Cu4       1.0  0.46807  0.25000  0.00000  1.0000 0.7273402382
H   H1        1.0  0.71340  0.73620  0.62270  1.0000 0.1271922085
H   H2        1.0  0.21090  0.62980  0.55060  1.0000 0.1098310619
H   H3        1.0  0.74000  0.66810  0.71070  1.0000 0.1376856857
H   H4        1.0  0.21740  0.56060  0.63880  1.0000 0.1376856857
H   H5        1.0  0.77300  0.58590  0.46270  1.0000 0.1376856857
H   H6        1.0  0.43570  0.57210  0.38040  1.0000 0.1164692039
H   H7        1.0  0.32630  0.60960  0.32110  1.0000 0.1271922085
H   H8        1.0  0.29120  0.45670  0.43680  1.0000 0.1164692039
H   H9        1.0  0.94870  0.57950  0.35720  1.0000 0.1164692039
H   H10       1.0  0.09960  0.51670  0.34080  1.0000 0.0939895268
H   H11       1.0  0.28660  0.73620  0.87730  1.0000 0.1271922085
H   H12       1.0  0.78910  0.62980  0.94940  1.0000 0.1098310619
H   H13       1.0  0.26000  0.66810  0.78930  1.0000 0.1376856857
H   H14       1.0  0.78260  0.56060  0.86120  1.0000 0.1376856857
H   H15       1.0  0.22700  0.58590  0.03730  1.0000 0.1376856857
H   H16       1.0  0.56430  0.57210  0.11960  1.0000 0.1164692039
H   H17       1.0  0.67370  0.60960  0.17890  1.0000 0.1271922085
H   H18       1.0  0.70880  0.45670  0.06320  1.0000 0.1164692039
H   H19       1.0  0.05130  0.57950  0.14280  1.0000 0.1164692039
H   H20       1.0  0.90040  0.51670  0.15920  1.0000 0.0939895268
H   H21       1.0  0.71340  0.76380  0.37730  1.0000 0.1271922085
H   H22       1.0  0.21090  0.87020  0.44940  1.0000 0.1098310619
H   H23       1.0  0.74000  0.83190  0.28930  1.0000 0.1376856857
H   H24       1.0  0.21740  0.93940  0.36120  1.0000 0.1376856857
H   H25       1.0  0.77300  0.91410  0.53730  1.0000 0.1376856857
H   H26       1.0  0.43570  0.92790  0.61960  1.0000 0.1164692039
H   H27       1.0  0.32630  0.89040  0.67890  1.0000 0.1271922085
H   H28       1.0  0.29120  0.04330  0.56320  1.0000 0.1164692039
H   H29       1.0  0.94870  0.92050  0.64280  1.0000 0.1164692039
H   H30       1.0  0.09960  0.98330  0.65920  1.0000 0.0939895268
H   H31       1.0  0.28660  0.76380  0.12270  1.0000 0.1271922085
H   H32       1.0  0.78910  0.87020  0.05060  1.0000 0.1098310619
H   H33       1.0  0.26000  0.83190  0.21070  1.0000 0.1376856857
H   H34       1.0  0.78260  0.93940  0.13880  1.0000 0.1376856857
H   H35       1.0  0.22700  0.91410  0.96270  1.0000 0.1376856857
H   H36       1.0  0.56430  0.92790  0.88040  1.0000 0.1164692039
H   H37       1.0  0.67370  0.89040  0.82110  1.0000 0.1271922085
H   H38       1.0  0.70880  0.04330  0.93680  1.0000 0.1164692039
H   H39       1.0  0.05130  0.92050  0.85720  1.0000 0.1164692039
H   H40       1.0  0.90040  0.98330  0.84080  1.0000 0.0939895268
H   H41       1.0  0.28660  0.26380  0.37730  1.0000 0.1271922085
H   H42       1.0  0.78910  0.37020  0.44940  1.0000 0.1098310619
H   H43       1.0  0.26000  0.33190  0.28930  1.0000 0.1376856857
H   H44       1.0  0.78260  0.43940  0.36120  1.0000 0.1376856857
H   H45       1.0  0.22700  0.41410  0.53730  1.0000 0.1376856857
H   H46       1.0  0.56430  0.42790  0.61960  1.0000 0.1164692039
H   H47       1.0  0.67370  0.39040  0.67890  1.0000 0.1271922085
H   H48       1.0  0.70880  0.54330  0.56320  1.0000 0.1164692039
H   H49       1.0  0.05130  0.42050  0.64280  1.0000 0.1164692039
H   H50       1.0  0.90040  0.48330  0.65920  1.0000 0.0939895268
H   H51       1.0  0.71340  0.26380  0.12270  1.0000 0.1271922085
H   H52       1.0  0.21090  0.37020  0.05060  1.0000 0.1098310619
H   H53       1.0  0.74000  0.33190  0.21070  1.0000 0.1376856857
H   H54       1.0  0.21740  0.43940  0.13880  1.0000 0.1376856857
H   H55       1.0  0.77300  0.41410  0.96270  1.0000 0.1376856857
H   H56       1.0  0.43570  0.42790  0.88040  1.0000 0.1164692039
H   H57       1.0  0.32630  0.39040  0.82110  1.0000 0.1271922085
H   H58       1.0  0.29120  0.54330  0.93680  1.0000 0.1164692039
H   H59       1.0  0.94870  0.42050  0.85720  1.0000 0.1164692039
H   H60       1.0  0.09960  0.48330  0.84080  1.0000 0.0939895268
H   H61       1.0  0.28660  0.23620  0.62270  1.0000 0.1271922085
H   H62       1.0  0.78910  0.12980  0.55060  1.0000 0.1098310619
H   H63       1.0  0.26000  0.16810  0.71070  1.0000 0.1376856857
H   H64       1.0  0.78260  0.06060  0.63880  1.0000 0.1376856857
H   H65       1.0  0.22700  0.08590  0.46270  1.0000 0.1376856857
H   H66       1.0  0.56430  0.07210  0.38040  1.0000 0.1164692039
H   H67       1.0  0.67370  0.10960  0.32110  1.0000 0.1271922085
H   H68       1.0  0.70880  0.95670  0.43680  1.0000 0.1164692039
H   H69       1.0  0.05130  0.07950  0.35720  1.0000 0.1164692039
H   H70       1.0  0.90040  0.01670  0.34080  1.0000 0.0939895268
H   H71       1.0  0.71340  0.23620  0.87730  1.0000 0.1271922085
H   H72       1.0  0.21090  0.12980  0.94940  1.0000 0.1098310619
H   H73       1.0  0.74000  0.16810  0.78930  1.0000 0.1376856857
H   H74       1.0  0.21740  0.06060  0.86120  1.0000 0.1376856857
H   H75       1.0  0.77300  0.08590  0.03730  1.0000 0.1376856857
H   H76       1.0  0.43570  0.07210  0.11960  1.0000 0.1164692039
H   H77       1.0  0.32630  0.10960  0.17890  1.0000 0.1271922085
H   H78       1.0  0.29120  0.95670  0.06320  1.0000 0.1164692039
H   H79       1.0  0.94870  0.07950  0.14280  1.0000 0.1164692039
H   H80       1.0  0.09960  0.01670  0.15920  1.0000 0.0939895268
C   C1        1.0  0.28010  0.66007  0.40653  1.0000 0.6074384619
C   C2        1.0  0.61360  0.69979  0.62557  1.0000 0.0814539139
C   C3        1.0  0.31840  0.63787  0.58345  1.0000 0.0939895268
C   C4        1.0  0.48060  0.60650  0.68445  1.0000 0.1098310619
C   C5        1.0  0.62960  0.65959  0.67877  1.0000 -0.1853470634
C   C6        1.0  0.03930  0.52659  0.43742  1.0000 0.1098310619
C   C7        1.0  0.32200  0.59583  0.63615  1.0000 -0.201360574
C   C8        1.0  0.86610  0.55109  0.47731  1.0000 -0.1510632913
C   C9        1.0  0.30100  0.59738  0.36598  1.0000 -0.3104033898
C   C10       1.0  0.17240  0.47462  0.46210  1.0000 -0.1567675844
C   C11       1.0  0.08340  0.55366  0.37063  1.0000 -0.2210205942
C   C12       1.0  0.71990  0.66007  0.09347  1.0000 0.6074384619
C   C13       1.0  0.38640  0.69979  0.87443  1.0000 0.0814539139
C   C14       1.0  0.68160  0.63787  0.91655  1.0000 0.0939895268
C   C15       1.0  0.51940  0.60650  0.81555  1.0000 0.1098310619
C   C16       1.0  0.37040  0.65959  0.82123  1.0000 -0.1853470634
C   C17       1.0  0.96070  0.52659  0.06258  1.0000 0.1098310619
C   C18       1.0  0.67800  0.59583  0.86385  1.0000 -0.201360574
C   C19       1.0  0.13390  0.55109  0.02269  1.0000 -0.1510632913
C   C20       1.0  0.69900  0.59738  0.13402  1.0000 -0.3104033898
C   C21       1.0  0.82760  0.47462  0.03790  1.0000 -0.1567675844
C   C22       1.0  0.91660  0.55366  0.12937  1.0000 -0.2210205942
C   C23       1.0  0.28010  0.83993  0.59347  1.0000 0.6074384619
C   C24       1.0  0.61360  0.80021  0.37443  1.0000 0.0814539139
C   C25       1.0  0.31840  0.86213  0.41655  1.0000 0.0939895268
C   C26       1.0  0.48060  0.89350  0.31555  1.0000 0.1098310619
C   C27       1.0  0.62960  0.84041  0.32123  1.0000 -0.1853470634
C   C28       1.0  0.03930  0.97341  0.56258  1.0000 0.1098310619
C   C29       1.0  0.32200  0.90417  0.36385  1.0000 -0.201360574
C   C30       1.0  0.86610  0.94891  0.52269  1.0000 -0.1510632913
C   C31       1.0  0.30100  0.90262  0.63402  1.0000 -0.3104033898
C   C32       1.0  0.17240  0.02538  0.53790  1.0000 -0.1567675844
C   C33       1.0  0.08340  0.94634  0.62937  1.0000 -0.2210205942
C   C34       1.0  0.71990  0.83993  0.90653  1.0000 0.6074384619
C   C35       1.0  0.38640  0.80021  0.12557  1.0000 0.0814539139
C   C36       1.0  0.68160  0.86213  0.08345  1.0000 0.0939895268
C   C37       1.0  0.51940  0.89350  0.18445  1.0000 0.1098310619
C   C38       1.0  0.37040  0.84041  0.17877  1.0000 -0.1853470634
C   C39       1.0  0.96070  0.97341  0.93742  1.0000 0.1098310619
C   C40       1.0  0.67800  0.90417  0.13615  1.0000 -0.201360574
C   C41       1.0  0.13390  0.94891  0.97731  1.0000 -0.1510632913
C   C42       1.0  0.69900  0.90262  0.86598  1.0000 -0.3104033898
C   C43       1.0  0.82760  0.02538  0.96210  1.0000 -0.1567675844
C   C44       1.0  0.91660  0.94634  0.87063  1.0000 -0.2210205942
C   C45       1.0  0.71990  0.33993  0.59347  1.0000 0.6074384619
C   C46       1.0  0.38640  0.30021  0.37443  1.0000 0.0814539139
C   C47       1.0  0.68160  0.36213  0.41655  1.0000 0.0939895268
C   C48       1.0  0.51940  0.39350  0.31555  1.0000 0.1098310619
C   C49       1.0  0.37040  0.34041  0.32123  1.0000 -0.1853470634
C   C50       1.0  0.96070  0.47341  0.56258  1.0000 0.1098310619
C   C51       1.0  0.67800  0.40417  0.36385  1.0000 -0.201360574
C   C52       1.0  0.13390  0.44891  0.52269  1.0000 -0.1510632913
C   C53       1.0  0.69900  0.40262  0.63402  1.0000 -0.3104033898
C   C54       1.0  0.82760  0.52538  0.53790  1.0000 -0.1567675844
C   C55       1.0  0.91660  0.44634  0.62937  1.0000 -0.2210205942
C   C56       1.0  0.28010  0.33993  0.90653  1.0000 0.6074384619
C   C57       1.0  0.61360  0.30021  0.12557  1.0000 0.0814539139
C   C58       1.0  0.31840  0.36213  0.08345  1.0000 0.0939895268
C   C59       1.0  0.48060  0.39350  0.18445  1.0000 0.1098310619
C   C60       1.0  0.62960  0.34041  0.17877  1.0000 -0.1853470634
C   C61       1.0  0.03930  0.47341  0.93742  1.0000 0.1098310619
C   C62       1.0  0.32200  0.40417  0.13615  1.0000 -0.201360574
C   C63       1.0  0.86610  0.44891  0.97731  1.0000 -0.1510632913
C   C64       1.0  0.30100  0.40262  0.86598  1.0000 -0.3104033898
C   C65       1.0  0.17240  0.52538  0.96210  1.0000 -0.1567675844
C   C66       1.0  0.08340  0.44634  0.87063  1.0000 -0.2210205942
C   C67       1.0  0.71990  0.16007  0.40653  1.0000 0.6074384619
C   C68       1.0  0.38640  0.19979  0.62557  1.0000 0.0814539139
C   C69       1.0  0.68160  0.13787  0.58345  1.0000 0.0939895268
C   C70       1.0  0.51940  0.10650  0.68445  1.0000 0.1098310619
C   C71       1.0  0.37040  0.15959  0.67877  1.0000 -0.1853470634
C   C72       1.0  0.96070  0.02659  0.43742  1.0000 0.1098310619
C   C73       1.0  0.67800  0.09583  0.63615  1.0000 -0.201360574
C   C74       1.0  0.13390  0.05109  0.47731  1.0000 -0.1510632913
C   C75       1.0  0.69900  0.09738  0.36598  1.0000 -0.3104033898
C   C76       1.0  0.82760  0.97462  0.46210  1.0000 -0.1567675844
C   C77       1.0  0.91660  0.05366  0.37063  1.0000 -0.2210205942
C   C78       1.0  0.28010  0.16007  0.09347  1.0000 0.6074384619
C   C79       1.0  0.61360  0.19979  0.87443  1.0000 0.0814539139
C   C80       1.0  0.31840  0.13787  0.91655  1.0000 0.0939895268
C   C81       1.0  0.48060  0.10650  0.81555  1.0000 0.1098310619
C   C82       1.0  0.62960  0.15959  0.82123  1.0000 -0.1853470634
C   C83       1.0  0.03930  0.02659  0.06258  1.0000 0.1098310619
C   C84       1.0  0.32200  0.09583  0.86385  1.0000 -0.201360574
C   C85       1.0  0.86610  0.05109  0.02269  1.0000 -0.1510632913
C   C86       1.0  0.30100  0.09738  0.13402  1.0000 -0.3104033898
C   C87       1.0  0.17240  0.97462  0.03790  1.0000 -0.1567675844
C   C88       1.0  0.08340  0.05366  0.12937  1.0000 -0.2210205942
S   S1        1.0  0.50000  0.54985  0.75000  1.0000 -0.0444416161
S   S2        1.0  0.50000  0.95015  0.25000  1.0000 -0.0450060833
S   S3        1.0  0.50000  0.45015  0.25000  1.0000 -0.0450060833
S   S4        1.0  0.50000  0.04985  0.75000  1.0000 -0.0444416161
N   N1        1.0  0.46230  0.68940  0.57763  1.0000 -0.201360574
N   N2        1.0  0.53770  0.68940  0.92237  1.0000 -0.201360574
N   N3        1.0  0.46230  0.81060  0.42237  1.0000 -0.201360574
N   N4        1.0  0.53770  0.81060  0.07763  1.0000 -0.201360574
N   N5        1.0  0.53770  0.31060  0.42237  1.0000 -0.201360574
N   N6        1.0  0.46230  0.31060  0.07763  1.0000 -0.201360574
N   N7        1.0  0.53770  0.18940  0.57763  1.0000 -0.201360574
N   N8        1.0  0.46230  0.18940  0.92237  1.0000 -0.201360574
O   O1        1.0  0.44820  0.67176  0.44453  1.0000 -0.558427317
O   O2        1.0  0.10510  0.69512  0.39987  1.0000 -0.5787715074
O   O3        1.0  0.55180  0.67176  0.05547  1.0000 -0.558427317
O   O4        1.0  0.89490  0.69512  0.10013  1.0000 -0.5787715074
O   O5        1.0  0.44820  0.82824  0.55547  1.0000 -0.558427317
O   O6        1.0  0.10510  0.80488  0.60013  1.0000 -0.5787715074
O   O7        1.0  0.55180  0.82824  0.94453  1.0000 -0.558427317
O   O8        1.0  0.89490  0.80488  0.89987  1.0000 -0.5787715074
O   O9        1.0  0.55180  0.32824  0.55547  1.0000 -0.558427317
O   O10       1.0  0.89490  0.30488  0.60013  1.0000 -0.5787715074
O   O11       1.0  0.44820  0.32824  0.94453  1.0000 -0.558427317
O   O12       1.0  0.10510  0.30488  0.89987  1.0000 -0.5787715074
O   O13       1.0  0.55180  0.17176  0.44453  1.0000 -0.558427317
O   O14       1.0  0.89490  0.19512  0.39987  1.0000 -0.5787715074
O   O15       1.0  0.44820  0.17176  0.05547  1.0000 -0.558427317
O   O16       1.0  0.10510  0.19512  0.10013  1.0000 -0.5787715074
