# DDEC6 charges by PACMAN v1.1 (https://github.com/mtap-research/PACMAN-charge/)
data_2018[Cd][nuc]3[ASR]1
_chemical_formula_sum              "Cd4 H144 C192 N48"
_cell_length_a       15.8774
_cell_length_b       15.8774
_cell_length_c       21.4281
_cell_angle_alpha    90
_cell_angle_beta     90
_cell_angle_gamma    90

_symmetry_space_group_name_H-M    "P 1"
_symmetry_Int_Tables_number       1

loop_
  _symmetry_equiv_pos_as_xyz
  'x, y, z'

loop_
  _atom_site_type_symbol
  _atom_site_label
  _atom_site_symmetry_multiplicity
  _atom_site_fract_x
  _atom_site_fract_y
  _atom_site_fract_z
  _atom_site_occupancy
  _atom_site_charge
Cd  Cd1       1.0  0.44011  0.44011  0.50000  1.0000 0.6466782601
Cd  Cd2       1.0  0.55989  0.55989  0.00000  1.0000 0.6466782601
Cd  Cd3       1.0  0.05989  0.94011  0.25000  1.0000 0.6466782601
Cd  Cd4       1.0  0.94011  0.05989  0.75000  1.0000 0.6466782601
H   H1        1.0  0.75960  0.99420  0.82430  1.0000 0.0934539721
H   H2        1.0  0.65110  0.90030  0.81470  1.0000 0.12816888
H   H3        1.0  0.73520  0.84580  0.64310  1.0000 0.12816888
H   H4        1.0  0.84040  0.94050  0.65770  1.0000 0.0994198154
H   H5        1.0  0.53270  0.83930  0.78650  1.0000 0.1103733309
H   H6        1.0  0.43220  0.73640  0.77630  1.0000 0.1103733309
H   H7        1.0  0.45170  0.62500  0.70920  1.0000 0.1103733309
H   H8        1.0  0.67430  0.72300  0.65710  1.0000 0.0994198154
H   H9        1.0  0.70240  0.50950  0.45840  1.0000 0.1103733309
H   H10       1.0  0.80300  0.42050  0.41500  1.0000 0.1103733309
H   H11       1.0  0.84850  0.30240  0.46800  1.0000 0.0994198154
H   H12       1.0  0.69300  0.35980  0.60970  1.0000 0.1103733309
H   H13       1.0  0.91100  0.21550  0.53220  1.0000 0.12816888
H   H14       1.0  0.95980  0.11220  0.59730  1.0000 0.0994198154
H   H15       1.0  0.76810  0.14080  0.70800  1.0000 0.0994198154
H   H16       1.0  0.71270  0.24230  0.64570  1.0000 0.12816888
H   H17       1.0  0.75860  0.53350  0.63920  1.0000 0.236563331
H   H18       1.0  0.75490  0.60500  0.60000  1.0000 0.2276601554
H   H19       1.0  0.24040  0.00580  0.32430  1.0000 0.0934539721
H   H20       1.0  0.34890  0.09970  0.31470  1.0000 0.12816888
H   H21       1.0  0.26480  0.15420  0.14310  1.0000 0.12816888
H   H22       1.0  0.15960  0.05950  0.15770  1.0000 0.0994198154
H   H23       1.0  0.46730  0.16070  0.28650  1.0000 0.1103733309
H   H24       1.0  0.56780  0.26360  0.27630  1.0000 0.1103733309
H   H25       1.0  0.54830  0.37500  0.20920  1.0000 0.1103733309
H   H26       1.0  0.32570  0.27700  0.15710  1.0000 0.0994198154
H   H27       1.0  0.29760  0.49050  0.95840  1.0000 0.1103733309
H   H28       1.0  0.19700  0.57950  0.91500  1.0000 0.1103733309
H   H29       1.0  0.15150  0.69760  0.96800  1.0000 0.0994198154
H   H30       1.0  0.30700  0.64020  0.10970  1.0000 0.1103733309
H   H31       1.0  0.08900  0.78450  0.03220  1.0000 0.12816888
H   H32       1.0  0.04020  0.88780  0.09730  1.0000 0.0994198154
H   H33       1.0  0.23190  0.85920  0.20800  1.0000 0.0994198154
H   H34       1.0  0.28730  0.75770  0.14570  1.0000 0.12816888
H   H35       1.0  0.24140  0.46650  0.13920  1.0000 0.236563331
H   H36       1.0  0.24510  0.39500  0.10000  1.0000 0.2276601554
H   H37       1.0  0.50580  0.25960  0.57430  1.0000 0.0934539721
H   H38       1.0  0.59970  0.15110  0.56470  1.0000 0.12816888
H   H39       1.0  0.65420  0.23520  0.39310  1.0000 0.12816888
H   H40       1.0  0.55950  0.34040  0.40770  1.0000 0.0994198154
H   H41       1.0  0.66070  0.03270  0.53650  1.0000 0.1103733309
H   H42       1.0  0.76360  0.93220  0.52630  1.0000 0.1103733309
H   H43       1.0  0.87500  0.95170  0.45920  1.0000 0.1103733309
H   H44       1.0  0.77700  0.17430  0.40710  1.0000 0.0994198154
H   H45       1.0  0.99050  0.20240  0.20840  1.0000 0.1103733309
H   H46       1.0  0.07950  0.30300  0.16500  1.0000 0.1103733309
H   H47       1.0  0.19760  0.34850  0.21800  1.0000 0.0994198154
H   H48       1.0  0.14020  0.19300  0.35970  1.0000 0.1103733309
H   H49       1.0  0.28450  0.41100  0.28220  1.0000 0.12816888
H   H50       1.0  0.38780  0.45980  0.34730  1.0000 0.0994198154
H   H51       1.0  0.35920  0.26810  0.45800  1.0000 0.0994198154
H   H52       1.0  0.25770  0.21270  0.39570  1.0000 0.12816888
H   H53       1.0  0.96650  0.25860  0.38920  1.0000 0.236563331
H   H54       1.0  0.89500  0.25490  0.35000  1.0000 0.2276601554
H   H55       1.0  0.49420  0.74040  0.07430  1.0000 0.0934539721
H   H56       1.0  0.40030  0.84890  0.06470  1.0000 0.12816888
H   H57       1.0  0.34580  0.76480  0.89310  1.0000 0.12816888
H   H58       1.0  0.44050  0.65960  0.90770  1.0000 0.0994198154
H   H59       1.0  0.33930  0.96730  0.03650  1.0000 0.1103733309
H   H60       1.0  0.23640  0.06780  0.02630  1.0000 0.1103733309
H   H61       1.0  0.12500  0.04830  0.95920  1.0000 0.1103733309
H   H62       1.0  0.22300  0.82570  0.90710  1.0000 0.0994198154
H   H63       1.0  0.00950  0.79760  0.70840  1.0000 0.1103733309
H   H64       1.0  0.92050  0.69700  0.66500  1.0000 0.1103733309
H   H65       1.0  0.80240  0.65150  0.71800  1.0000 0.0994198154
H   H66       1.0  0.85980  0.80700  0.85970  1.0000 0.1103733309
H   H67       1.0  0.71550  0.58900  0.78220  1.0000 0.12816888
H   H68       1.0  0.61220  0.54020  0.84730  1.0000 0.0994198154
H   H69       1.0  0.64080  0.73190  0.95800  1.0000 0.0994198154
H   H70       1.0  0.74230  0.78730  0.89570  1.0000 0.12816888
H   H71       1.0  0.03350  0.74140  0.88920  1.0000 0.236563331
H   H72       1.0  0.10500  0.74510  0.85000  1.0000 0.2276601554
H   H73       1.0  0.74040  0.49420  0.92570  1.0000 0.0934539721
H   H74       1.0  0.84890  0.40030  0.93530  1.0000 0.12816888
H   H75       1.0  0.76480  0.34580  0.10690  1.0000 0.12816888
H   H76       1.0  0.65960  0.44050  0.09230  1.0000 0.0994198154
H   H77       1.0  0.96730  0.33930  0.96350  1.0000 0.1103733309
H   H78       1.0  0.06780  0.23640  0.97370  1.0000 0.1103733309
H   H79       1.0  0.04830  0.12500  0.04080  1.0000 0.1103733309
H   H80       1.0  0.82570  0.22300  0.09290  1.0000 0.0994198154
H   H81       1.0  0.79760  0.00950  0.29160  1.0000 0.1103733309
H   H82       1.0  0.69700  0.92050  0.33500  1.0000 0.1103733309
H   H83       1.0  0.65150  0.80240  0.28200  1.0000 0.0994198154
H   H84       1.0  0.80700  0.85980  0.14030  1.0000 0.1103733309
H   H85       1.0  0.58900  0.71550  0.21780  1.0000 0.12816888
H   H86       1.0  0.54020  0.61220  0.15270  1.0000 0.0994198154
H   H87       1.0  0.73190  0.64080  0.04200  1.0000 0.0994198154
H   H88       1.0  0.78730  0.74230  0.10430  1.0000 0.12816888
H   H89       1.0  0.74140  0.03350  0.11080  1.0000 0.236563331
H   H90       1.0  0.74510  0.10500  0.15000  1.0000 0.2276601554
H   H91       1.0  0.25960  0.50580  0.42570  1.0000 0.0934539721
H   H92       1.0  0.15110  0.59970  0.43530  1.0000 0.12816888
H   H93       1.0  0.23520  0.65420  0.60690  1.0000 0.12816888
H   H94       1.0  0.34040  0.55950  0.59230  1.0000 0.0994198154
H   H95       1.0  0.03270  0.66070  0.46350  1.0000 0.1103733309
H   H96       1.0  0.93220  0.76360  0.47370  1.0000 0.1103733309
H   H97       1.0  0.95170  0.87500  0.54080  1.0000 0.1103733309
H   H98       1.0  0.17430  0.77700  0.59290  1.0000 0.0994198154
H   H99       1.0  0.20240  0.99050  0.79160  1.0000 0.1103733309
H   H100      1.0  0.30300  0.07950  0.83500  1.0000 0.1103733309
H   H101      1.0  0.34850  0.19760  0.78200  1.0000 0.0994198154
H   H102      1.0  0.19300  0.14020  0.64030  1.0000 0.1103733309
H   H103      1.0  0.41100  0.28450  0.71780  1.0000 0.12816888
H   H104      1.0  0.45980  0.38780  0.65270  1.0000 0.0994198154
H   H105      1.0  0.26810  0.35920  0.54200  1.0000 0.0994198154
H   H106      1.0  0.21270  0.25770  0.60430  1.0000 0.12816888
H   H107      1.0  0.25860  0.96650  0.61080  1.0000 0.236563331
H   H108      1.0  0.25490  0.89500  0.65000  1.0000 0.2276601554
H   H109      1.0  0.99420  0.75960  0.17570  1.0000 0.0934539721
H   H110      1.0  0.90030  0.65110  0.18530  1.0000 0.12816888
H   H111      1.0  0.84580  0.73520  0.35690  1.0000 0.12816888
H   H112      1.0  0.94050  0.84040  0.34230  1.0000 0.0994198154
H   H113      1.0  0.83930  0.53270  0.21350  1.0000 0.1103733309
H   H114      1.0  0.73640  0.43220  0.22370  1.0000 0.1103733309
H   H115      1.0  0.62500  0.45170  0.29080  1.0000 0.1103733309
H   H116      1.0  0.72300  0.67430  0.34290  1.0000 0.0994198154
H   H117      1.0  0.50950  0.70240  0.54160  1.0000 0.1103733309
H   H118      1.0  0.42050  0.80300  0.58500  1.0000 0.1103733309
H   H119      1.0  0.30240  0.84850  0.53200  1.0000 0.0994198154
H   H120      1.0  0.35980  0.69300  0.39030  1.0000 0.1103733309
H   H121      1.0  0.21550  0.91100  0.46780  1.0000 0.12816888
H   H122      1.0  0.11220  0.95980  0.40270  1.0000 0.0994198154
H   H123      1.0  0.14080  0.76810  0.29200  1.0000 0.0994198154
H   H124      1.0  0.24230  0.71270  0.35430  1.0000 0.12816888
H   H125      1.0  0.53350  0.75860  0.36080  1.0000 0.236563331
H   H126      1.0  0.60500  0.75490  0.40000  1.0000 0.2276601554
H   H127      1.0  0.00580  0.24040  0.67570  1.0000 0.0934539721
H   H128      1.0  0.09970  0.34890  0.68530  1.0000 0.12816888
H   H129      1.0  0.15420  0.26480  0.85690  1.0000 0.12816888
H   H130      1.0  0.05950  0.15960  0.84230  1.0000 0.0994198154
H   H131      1.0  0.16070  0.46730  0.71350  1.0000 0.1103733309
H   H132      1.0  0.26360  0.56780  0.72370  1.0000 0.1103733309
H   H133      1.0  0.37500  0.54830  0.79080  1.0000 0.1103733309
H   H134      1.0  0.27700  0.32570  0.84290  1.0000 0.0994198154
H   H135      1.0  0.49050  0.29760  0.04160  1.0000 0.1103733309
H   H136      1.0  0.57950  0.19700  0.08500  1.0000 0.1103733309
H   H137      1.0  0.69760  0.15150  0.03200  1.0000 0.0994198154
H   H138      1.0  0.64020  0.30700  0.89030  1.0000 0.1103733309
H   H139      1.0  0.78450  0.08900  0.96780  1.0000 0.12816888
H   H140      1.0  0.88780  0.04020  0.90270  1.0000 0.0994198154
H   H141      1.0  0.85920  0.23190  0.79200  1.0000 0.0994198154
H   H142      1.0  0.75770  0.28730  0.85430  1.0000 0.12816888
H   H143      1.0  0.46650  0.24140  0.86080  1.0000 0.236563331
H   H144      1.0  0.39500  0.24510  0.90000  1.0000 0.2276601554
C   C1        1.0  0.75540  0.96320  0.78760  1.0000 0.0683369208
C   C2        1.0  0.68930  0.90660  0.78210  1.0000 -0.2091551582
C   C3        1.0  0.68000  0.85910  0.72810  1.0000 0.1103733309
C   C4        1.0  0.73910  0.87440  0.68090  1.0000 -0.2013400127
C   C5        1.0  0.80250  0.93160  0.69008  1.0000 0.0602318368
C   C6        1.0  0.61420  0.79420  0.72190  1.0000 0.0683369208
C   C7        1.0  0.54100  0.79570  0.75810  1.0000 -0.1601889446
C   C8        1.0  0.48110  0.73340  0.75250  1.0000 -0.1098490628
C   C9        1.0  0.49240  0.66690  0.71230  1.0000 -0.1601889446
C   C10       1.0  0.56520  0.66270  0.67637  1.0000 0.0348866214
C   C11       1.0  0.62570  0.72600  0.68117  1.0000 -0.2013400127
C   C12       1.0  0.57450  0.59230  0.63263  1.0000 0.1788745183
C   C13       1.0  0.62510  0.49650  0.56937  1.0000 0.1788745183
C   C14       1.0  0.68800  0.44240  0.53847  1.0000 0.0239447648
C   C15       1.0  0.72050  0.46200  0.47990  1.0000 -0.1737327292
C   C16       1.0  0.78090  0.40850  0.45420  1.0000 -0.1047942503
C   C17       1.0  0.80870  0.33770  0.48625  1.0000 -0.1774250283
C   C18       1.0  0.77730  0.31890  0.54570  1.0000 0.0683369208
C   C19       1.0  0.71580  0.37200  0.57073  1.0000 -0.2091551582
C   C20       1.0  0.80690  0.24570  0.58280  1.0000 0.1151687861
C   C21       1.0  0.88150  0.20260  0.56840  1.0000 -0.2091551582
C   C22       1.0  0.91090  0.14080  0.60830  1.0000 0.0602318368
C   C23       1.0  0.79840  0.15740  0.67300  1.0000 0.0412479029
C   C24       1.0  0.76450  0.21870  0.63559  1.0000 -0.2091551582
C   C25       1.0  0.24460  0.03680  0.28760  1.0000 0.0683369208
C   C26       1.0  0.31070  0.09340  0.28210  1.0000 -0.2091551582
C   C27       1.0  0.32000  0.14090  0.22810  1.0000 0.1103733309
C   C28       1.0  0.26090  0.12560  0.18090  1.0000 -0.2013400127
C   C29       1.0  0.19750  0.06840  0.19008  1.0000 0.0602318368
C   C30       1.0  0.38580  0.20580  0.22190  1.0000 0.0683369208
C   C31       1.0  0.45900  0.20430  0.25810  1.0000 -0.1601889446
C   C32       1.0  0.51890  0.26660  0.25250  1.0000 -0.1098490628
C   C33       1.0  0.50760  0.33310  0.21230  1.0000 -0.1601889446
C   C34       1.0  0.43480  0.33730  0.17637  1.0000 0.0348866214
C   C35       1.0  0.37430  0.27400  0.18117  1.0000 -0.2013400127
C   C36       1.0  0.42550  0.40770  0.13263  1.0000 0.1788745183
C   C37       1.0  0.37490  0.50350  0.06937  1.0000 0.1788745183
C   C38       1.0  0.31200  0.55760  0.03847  1.0000 0.0239447648
C   C39       1.0  0.27950  0.53800  0.97990  1.0000 -0.1737327292
C   C40       1.0  0.21910  0.59150  0.95420  1.0000 -0.1047942503
C   C41       1.0  0.19130  0.66230  0.98625  1.0000 -0.1774250283
C   C42       1.0  0.22270  0.68110  0.04570  1.0000 0.0683369208
C   C43       1.0  0.28420  0.62800  0.07073  1.0000 -0.2091551582
C   C44       1.0  0.19310  0.75430  0.08280  1.0000 0.1151687861
C   C45       1.0  0.11850  0.79740  0.06840  1.0000 -0.2091551582
C   C46       1.0  0.08910  0.85920  0.10830  1.0000 0.0602318368
C   C47       1.0  0.20160  0.84260  0.17300  1.0000 0.0412479029
C   C48       1.0  0.23550  0.78130  0.13559  1.0000 -0.2091551582
C   C49       1.0  0.53680  0.25540  0.53760  1.0000 0.0683369208
C   C50       1.0  0.59340  0.18930  0.53210  1.0000 -0.2091551582
C   C51       1.0  0.64090  0.18000  0.47810  1.0000 0.1103733309
C   C52       1.0  0.62560  0.23910  0.43090  1.0000 -0.2013400127
C   C53       1.0  0.56840  0.30250  0.44008  1.0000 0.0602318368
C   C54       1.0  0.70580  0.11420  0.47190  1.0000 0.0683369208
C   C55       1.0  0.70430  0.04100  0.50810  1.0000 -0.1601889446
C   C56       1.0  0.76660  0.98110  0.50250  1.0000 -0.1098490628
C   C57       1.0  0.83310  0.99240  0.46230  1.0000 -0.1601889446
C   C58       1.0  0.83730  0.06520  0.42637  1.0000 0.0348866214
C   C59       1.0  0.77400  0.12570  0.43117  1.0000 -0.2013400127
C   C60       1.0  0.90770  0.07450  0.38263  1.0000 0.1788745183
C   C61       1.0  0.00350  0.12510  0.31937  1.0000 0.1788745183
C   C62       1.0  0.05760  0.18800  0.28847  1.0000 0.0239447648
C   C63       1.0  0.03800  0.22050  0.22990  1.0000 -0.1737327292
C   C64       1.0  0.09150  0.28090  0.20420  1.0000 -0.1098490628
C   C65       1.0  0.16230  0.30870  0.23625  1.0000 -0.1774250283
C   C66       1.0  0.18110  0.27730  0.29570  1.0000 0.0683369208
C   C67       1.0  0.12800  0.21580  0.32073  1.0000 -0.2091551582
C   C68       1.0  0.25430  0.30690  0.33280  1.0000 0.1151687861
C   C69       1.0  0.29740  0.38150  0.31840  1.0000 -0.2091551582
C   C70       1.0  0.35920  0.41090  0.35830  1.0000 0.0602318368
C   C71       1.0  0.34260  0.29840  0.42300  1.0000 0.0412479029
C   C72       1.0  0.28130  0.26450  0.38559  1.0000 -0.2091551582
C   C73       1.0  0.46320  0.74460  0.03760  1.0000 0.0602318368
C   C74       1.0  0.40660  0.81070  0.03210  1.0000 -0.2091551582
C   C75       1.0  0.35910  0.82000  0.97810  1.0000 0.1103733309
C   C76       1.0  0.37440  0.76090  0.93090  1.0000 -0.2013400127
C   C77       1.0  0.43160  0.69750  0.94008  1.0000 0.0602318368
C   C78       1.0  0.29420  0.88580  0.97190  1.0000 0.0683369208
C   C79       1.0  0.29570  0.95900  0.00810  1.0000 -0.1601889446
C   C80       1.0  0.23340  0.01890  0.00250  1.0000 -0.1098490628
C   C81       1.0  0.16690  0.00760  0.96230  1.0000 -0.1601889446
C   C82       1.0  0.16270  0.93480  0.92637  1.0000 0.0348866214
C   C83       1.0  0.22600  0.87430  0.93117  1.0000 -0.2013400127
C   C84       1.0  0.09230  0.92550  0.88263  1.0000 0.1788745183
C   C85       1.0  0.99650  0.87490  0.81937  1.0000 0.1788745183
C   C86       1.0  0.94240  0.81200  0.78847  1.0000 0.0239447648
C   C87       1.0  0.96200  0.77950  0.72990  1.0000 -0.1737327292
C   C88       1.0  0.90850  0.71910  0.70420  1.0000 -0.1047942503
C   C89       1.0  0.83770  0.69130  0.73625  1.0000 -0.1774250283
C   C90       1.0  0.81890  0.72270  0.79570  1.0000 0.0683369208
C   C91       1.0  0.87200  0.78420  0.82073  1.0000 -0.2091551582
C   C92       1.0  0.74570  0.69310  0.83280  1.0000 0.1151687861
C   C93       1.0  0.70260  0.61850  0.81840  1.0000 -0.2091551582
C   C94       1.0  0.64080  0.58910  0.85830  1.0000 0.0602318368
C   C95       1.0  0.65740  0.70160  0.92300  1.0000 0.0412479029
C   C96       1.0  0.71870  0.73550  0.88559  1.0000 -0.2091551582
C   C97       1.0  0.74460  0.46320  0.96240  1.0000 0.0683369208
C   C98       1.0  0.81070  0.40660  0.96790  1.0000 -0.2091551582
C   C99       1.0  0.82000  0.35910  0.02190  1.0000 0.1103733309
C   C100      1.0  0.76090  0.37440  0.06910  1.0000 -0.2013400127
C   C101      1.0  0.69750  0.43160  0.05992  1.0000 0.0602318368
C   C102      1.0  0.88580  0.29420  0.02810  1.0000 0.0683369208
C   C103      1.0  0.95900  0.29570  0.99190  1.0000 -0.1601889446
C   C104      1.0  0.01890  0.23340  0.99750  1.0000 -0.1098490628
C   C105      1.0  0.00760  0.16690  0.03770  1.0000 -0.1601889446
C   C106      1.0  0.93480  0.16270  0.07363  1.0000 0.0348866214
C   C107      1.0  0.87430  0.22600  0.06883  1.0000 -0.2013400127
C   C108      1.0  0.92550  0.09230  0.11737  1.0000 0.1788745183
C   C109      1.0  0.87490  0.99650  0.18063  1.0000 0.1788745183
C   C110      1.0  0.81200  0.94240  0.21153  1.0000 0.0239447648
C   C111      1.0  0.77950  0.96200  0.27010  1.0000 -0.1737327292
C   C112      1.0  0.71910  0.90850  0.29580  1.0000 -0.1047942503
C   C113      1.0  0.69130  0.83770  0.26375  1.0000 -0.1774250283
C   C114      1.0  0.72270  0.81890  0.20430  1.0000 0.0683369208
C   C115      1.0  0.78420  0.87200  0.17927  1.0000 -0.2091551582
C   C116      1.0  0.69310  0.74570  0.16720  1.0000 0.1151687861
C   C117      1.0  0.61850  0.70260  0.18160  1.0000 -0.2091551582
C   C118      1.0  0.58910  0.64080  0.14170  1.0000 0.0602318368
C   C119      1.0  0.70160  0.65740  0.07700  1.0000 0.0412479029
C   C120      1.0  0.73550  0.71870  0.11441  1.0000 -0.2091551582
C   C121      1.0  0.25540  0.53680  0.46240  1.0000 0.0683369208
C   C122      1.0  0.18930  0.59340  0.46790  1.0000 -0.2091551582
C   C123      1.0  0.18000  0.64090  0.52190  1.0000 0.1103733309
C   C124      1.0  0.23910  0.62560  0.56910  1.0000 -0.2013400127
C   C125      1.0  0.30250  0.56840  0.55992  1.0000 0.0602318368
C   C126      1.0  0.11420  0.70580  0.52810  1.0000 0.0683369208
C   C127      1.0  0.04100  0.70430  0.49190  1.0000 -0.1601889446
C   C128      1.0  0.98110  0.76660  0.49750  1.0000 -0.1098490628
C   C129      1.0  0.99240  0.83310  0.53770  1.0000 -0.1601889446
C   C130      1.0  0.06520  0.83730  0.57363  1.0000 0.0348866214
C   C131      1.0  0.12570  0.77400  0.56883  1.0000 -0.2013400127
C   C132      1.0  0.07450  0.90770  0.61737  1.0000 0.1788745183
C   C133      1.0  0.12510  0.00350  0.68063  1.0000 0.1788745183
C   C134      1.0  0.18800  0.05760  0.71153  1.0000 0.0239447648
C   C135      1.0  0.22050  0.03800  0.77010  1.0000 -0.1737327292
C   C136      1.0  0.28090  0.09150  0.79580  1.0000 -0.1047942503
C   C137      1.0  0.30870  0.16230  0.76375  1.0000 -0.1774250283
C   C138      1.0  0.27730  0.18110  0.70430  1.0000 0.0683369208
C   C139      1.0  0.21580  0.12800  0.67927  1.0000 -0.2091551582
C   C140      1.0  0.30690  0.25430  0.66720  1.0000 0.1151687861
C   C141      1.0  0.38150  0.29740  0.68160  1.0000 -0.2091551582
C   C142      1.0  0.41090  0.35920  0.64170  1.0000 0.0602318368
C   C143      1.0  0.29840  0.34260  0.57700  1.0000 0.0412479029
C   C144      1.0  0.26450  0.28130  0.61441  1.0000 -0.2091551582
C   C145      1.0  0.96320  0.75540  0.21240  1.0000 0.0683369208
C   C146      1.0  0.90660  0.68930  0.21790  1.0000 -0.2091551582
C   C147      1.0  0.85910  0.68000  0.27190  1.0000 0.1103733309
C   C148      1.0  0.87440  0.73910  0.31910  1.0000 -0.2013400127
C   C149      1.0  0.93160  0.80250  0.30992  1.0000 0.0602318368
C   C150      1.0  0.79420  0.61420  0.27810  1.0000 0.0683369208
C   C151      1.0  0.79570  0.54100  0.24190  1.0000 -0.1601889446
C   C152      1.0  0.73340  0.48110  0.24750  1.0000 -0.1098490628
C   C153      1.0  0.66690  0.49240  0.28770  1.0000 -0.1601889446
C   C154      1.0  0.66270  0.56520  0.32363  1.0000 0.0348866214
C   C155      1.0  0.72600  0.62570  0.31883  1.0000 -0.2013400127
C   C156      1.0  0.59230  0.57450  0.36737  1.0000 0.1788745183
C   C157      1.0  0.49650  0.62510  0.43063  1.0000 0.1788745183
C   C158      1.0  0.44240  0.68800  0.46153  1.0000 0.0239447648
C   C159      1.0  0.46200  0.72050  0.52010  1.0000 -0.1737327292
C   C160      1.0  0.40850  0.78090  0.54580  1.0000 -0.1047942503
C   C161      1.0  0.33770  0.80870  0.51375  1.0000 -0.1774250283
C   C162      1.0  0.31890  0.77730  0.45430  1.0000 0.0683369208
C   C163      1.0  0.37200  0.71580  0.42927  1.0000 -0.2091551582
C   C164      1.0  0.24570  0.80690  0.41720  1.0000 0.1151687861
C   C165      1.0  0.20260  0.88150  0.43160  1.0000 -0.2091551582
C   C166      1.0  0.14080  0.91090  0.39170  1.0000 0.0602318368
C   C167      1.0  0.15740  0.79840  0.32700  1.0000 0.0412479029
C   C168      1.0  0.21870  0.76450  0.36441  1.0000 -0.2091551582
C   C169      1.0  0.03680  0.24460  0.71240  1.0000 0.0683369208
C   C170      1.0  0.09340  0.31070  0.71790  1.0000 -0.2091551582
C   C171      1.0  0.14090  0.32000  0.77190  1.0000 0.1103733309
C   C172      1.0  0.12560  0.26090  0.81910  1.0000 -0.2013400127
C   C173      1.0  0.06840  0.19750  0.80992  1.0000 0.0602318368
C   C174      1.0  0.20580  0.38580  0.77810  1.0000 0.0683369208
C   C175      1.0  0.20430  0.45900  0.74190  1.0000 -0.1601889446
C   C176      1.0  0.26660  0.51890  0.74750  1.0000 -0.1098490628
C   C177      1.0  0.33310  0.50760  0.78770  1.0000 -0.1601889446
C   C178      1.0  0.33730  0.43480  0.82363  1.0000 0.0348866214
C   C179      1.0  0.27400  0.37430  0.81883  1.0000 -0.2013400127
C   C180      1.0  0.40770  0.42550  0.86737  1.0000 0.1788745183
C   C181      1.0  0.50350  0.37490  0.93063  1.0000 0.1788745183
C   C182      1.0  0.55760  0.31200  0.96153  1.0000 0.0239447648
C   C183      1.0  0.53800  0.27950  0.02010  1.0000 -0.1737327292
C   C184      1.0  0.59150  0.21910  0.04580  1.0000 -0.1047942503
C   C185      1.0  0.66230  0.19130  0.01375  1.0000 -0.1774250283
C   C186      1.0  0.68110  0.22270  0.95430  1.0000 0.0683369208
C   C187      1.0  0.62800  0.28420  0.92927  1.0000 -0.2091551582
C   C188      1.0  0.75430  0.19310  0.91720  1.0000 0.1151687861
C   C189      1.0  0.79740  0.11850  0.93160  1.0000 -0.2091551582
C   C190      1.0  0.85920  0.08910  0.89170  1.0000 0.0602318368
C   C191      1.0  0.84260  0.20160  0.82700  1.0000 0.0412479029
C   C192      1.0  0.78130  0.23550  0.86441  1.0000 -0.2091551582
N   N1        1.0  0.81330  0.97580  0.74328  1.0000 -0.2467015921
N   N2        1.0  0.51000  0.55450  0.60631  1.0000 -0.2820898383
N   N3        1.0  0.54250  0.49300  0.56675  1.0000 -0.2345142453
N   N4        1.0  0.64730  0.55780  0.61040  1.0000 0.0602318368
N   N5        1.0  0.72920  0.57810  0.62980  1.0000 -0.4943195409
N   N6        1.0  0.87270  0.12000  0.66209  1.0000 -0.236789301
N   N7        1.0  0.18670  0.02420  0.24328  1.0000 -0.2467015921
N   N8        1.0  0.49000  0.44550  0.10631  1.0000 -0.2820898383
N   N9        1.0  0.45750  0.50700  0.06675  1.0000 -0.2345142453
N   N10       1.0  0.35270  0.44220  0.11040  1.0000 0.0602318368
N   N11       1.0  0.27080  0.42190  0.12980  1.0000 -0.4943195409
N   N12       1.0  0.12730  0.88000  0.16209  1.0000 -0.236789301
N   N13       1.0  0.52420  0.31330  0.49328  1.0000 -0.2467015921
N   N14       1.0  0.94550  0.01000  0.35631  1.0000 -0.2820898383
N   N15       1.0  0.00700  0.04250  0.31675  1.0000 -0.2345142453
N   N16       1.0  0.94220  0.14730  0.36040  1.0000 0.0602318368
N   N17       1.0  0.92190  0.22920  0.37980  1.0000 -0.4943195409
N   N18       1.0  0.38000  0.37270  0.41209  1.0000 -0.236789301
N   N19       1.0  0.47580  0.68670  0.99328  1.0000 -0.2467015921
N   N20       1.0  0.05450  0.99000  0.85631  1.0000 -0.2820898383
N   N21       1.0  0.99300  0.95750  0.81675  1.0000 -0.236789301
N   N22       1.0  0.05780  0.85270  0.86040  1.0000 0.0602318368
N   N23       1.0  0.07810  0.77080  0.87980  1.0000 -0.4943195409
N   N24       1.0  0.62000  0.62730  0.91209  1.0000 -0.236789301
N   N25       1.0  0.68670  0.47580  0.00672  1.0000 -0.2467015921
N   N26       1.0  0.99000  0.05450  0.14369  1.0000 -0.2820898383
N   N27       1.0  0.95750  0.99300  0.18325  1.0000 -0.236789301
N   N28       1.0  0.85270  0.05780  0.13960  1.0000 0.0602318368
N   N29       1.0  0.77080  0.07810  0.12020  1.0000 -0.4943195409
N   N30       1.0  0.62730  0.62000  0.08791  1.0000 -0.236789301
N   N31       1.0  0.31330  0.52420  0.50672  1.0000 -0.2467015921
N   N32       1.0  0.01000  0.94550  0.64369  1.0000 -0.2820898383
N   N33       1.0  0.04250  0.00700  0.68325  1.0000 -0.2345142453
N   N34       1.0  0.14730  0.94220  0.63960  1.0000 0.0602318368
N   N35       1.0  0.22920  0.92190  0.62020  1.0000 -0.4943195409
N   N36       1.0  0.37270  0.38000  0.58791  1.0000 -0.236789301
N   N37       1.0  0.97580  0.81330  0.25672  1.0000 -0.2467015921
N   N38       1.0  0.55450  0.51000  0.39369  1.0000 -0.2820898383
N   N39       1.0  0.49300  0.54250  0.43325  1.0000 -0.2345142453
N   N40       1.0  0.55780  0.64730  0.38960  1.0000 0.0602318368
N   N41       1.0  0.57810  0.72920  0.37020  1.0000 -0.4943195409
N   N42       1.0  0.12000  0.87270  0.33791  1.0000 -0.236789301
N   N43       1.0  0.02420  0.18670  0.75672  1.0000 -0.2467015921
N   N44       1.0  0.44550  0.49000  0.89369  1.0000 -0.2820898383
N   N45       1.0  0.50700  0.45750  0.93325  1.0000 -0.2345142453
N   N46       1.0  0.44220  0.35270  0.88960  1.0000 0.0602318368
N   N47       1.0  0.42190  0.27080  0.87020  1.0000 -0.4943195409
N   N48       1.0  0.88000  0.12730  0.83791  1.0000 -0.236789301
