# DDEC6 charges by PACMAN v1.1 (https://github.com/mtap-research/PACMAN-charge/)
data_2018[Tb][sql]2[ASR]1
_chemical_formula_sum              "Tb8 H80 C120 N16 O44"
_cell_length_a       18.7578
_cell_length_b       18.7578
_cell_length_c       24.916
_cell_angle_alpha    64.6066
_cell_angle_beta     115.393
_cell_angle_gamma    105.902

_symmetry_space_group_name_H-M    "P 1"
_symmetry_Int_Tables_number       1

loop_
  _symmetry_equiv_pos_as_xyz
  'x, y, z'

loop_
  _atom_site_type_symbol
  _atom_site_label
  _atom_site_symmetry_multiplicity
  _atom_site_fract_x
  _atom_site_fract_y
  _atom_site_fract_z
  _atom_site_occupancy
  _atom_site_charge
Tb  Tb1       1.0  0.35975  0.29373  0.39600  1.0000 2.0130567836
Tb  Tb2       1.0  0.29373  0.35975  0.10400  1.0000 2.0130567836
Tb  Tb3       1.0  0.41305  0.41305  0.25000  1.0000 2.0806492853
Tb  Tb4       1.0  0.23628  0.23628  0.25000  1.0000 2.0806492853
Tb  Tb5       1.0  0.64025  0.70627  0.60400  1.0000 2.0130567836
Tb  Tb6       1.0  0.70627  0.64025  0.89600  1.0000 2.0130567836
Tb  Tb7       1.0  0.58695  0.58695  0.75000  1.0000 2.0806492853
Tb  Tb8       1.0  0.76372  0.76372  0.75000  1.0000 2.0806492853
H   H1        1.0  0.65440  0.29280  0.49820  1.0000 0.1009751521
H   H2        1.0  0.57100  0.28280  0.32300  1.0000 0.1304954343
H   H3        1.0  0.77750  0.26790  0.51520  1.0000 0.1209672466
H   H4        1.0  0.69840  0.27240  0.33570  1.0000 0.1209672466
H   H5        1.0  0.36230  0.09010  0.31060  1.0000 0.1209672466
H   H6        1.0  0.40280  0.01100  0.49850  1.0000 0.1094344713
H   H7        1.0  0.40160  0.97320  0.32580  1.0000 0.1304954343
H   H8        1.0  0.42540  0.88900  0.51050  1.0000 0.1209672466
H   H9        1.0  0.86000  0.25020  0.48060  1.0000 0.2574678274
H   H10       1.0  0.46420  0.82020  0.46950  1.0000 0.2800363439
H   H11       1.0  0.95570  0.23590  0.47320  1.0000 0.2800363439
H   H12       1.0  0.45970  0.71970  0.46150  1.0000 0.2671990084
H   H13       1.0  0.07750  0.21310  0.49420  1.0000 0.1209672466
H   H14       1.0  0.92150  0.27650  0.30960  1.0000 0.1304954343
H   H15       1.0  0.17500  0.21560  0.45770  1.0000 0.1094344713
H   H16       1.0  0.01910  0.27430  0.27700  1.0000 0.1094344713
H   H17       1.0  0.45840  0.59580  0.48070  1.0000 0.1209672466
H   H18       1.0  0.38520  0.74420  0.29900  1.0000 0.1304954343
H   H19       1.0  0.43700  0.49020  0.44860  1.0000 0.1009751521
H   H20       1.0  0.37970  0.64190  0.26730  1.0000 0.1094344713
H   H21       1.0  0.29280  0.65440  0.00180  1.0000 0.1009751521
H   H22       1.0  0.28280  0.57100  0.17700  1.0000 0.1304954343
H   H23       1.0  0.26790  0.77750  0.98480  1.0000 0.1209672466
H   H24       1.0  0.27240  0.69840  0.16430  1.0000 0.1209672466
H   H25       1.0  0.09010  0.36230  0.18940  1.0000 0.1209672466
H   H26       1.0  0.01100  0.40280  0.00150  1.0000 0.1094344713
H   H27       1.0  0.97320  0.40160  0.17420  1.0000 0.1304954343
H   H28       1.0  0.88900  0.42540  0.98950  1.0000 0.1209672466
H   H29       1.0  0.25020  0.86000  0.01940  1.0000 0.2574678274
H   H30       1.0  0.82020  0.46420  0.03050  1.0000 0.2800363439
H   H31       1.0  0.23590  0.95570  0.02680  1.0000 0.2800363439
H   H32       1.0  0.71970  0.45970  0.03850  1.0000 0.2671990084
H   H33       1.0  0.21310  0.07750  0.00580  1.0000 0.1209672466
H   H34       1.0  0.27650  0.92150  0.19040  1.0000 0.1304954343
H   H35       1.0  0.21560  0.17500  0.04230  1.0000 0.1094344713
H   H36       1.0  0.27430  0.01910  0.22300  1.0000 0.1094344713
H   H37       1.0  0.59580  0.45840  0.01930  1.0000 0.1209672466
H   H38       1.0  0.74420  0.38520  0.20100  1.0000 0.1304954343
H   H39       1.0  0.49020  0.43700  0.05140  1.0000 0.1009751521
H   H40       1.0  0.64190  0.37970  0.23270  1.0000 0.1094344713
H   H41       1.0  0.34560  0.70720  0.50180  1.0000 0.1009751521
H   H42       1.0  0.42900  0.71720  0.67700  1.0000 0.1304954343
H   H43       1.0  0.22250  0.73210  0.48480  1.0000 0.1209672466
H   H44       1.0  0.30160  0.72760  0.66430  1.0000 0.1209672466
H   H45       1.0  0.63770  0.90990  0.68940  1.0000 0.1209672466
H   H46       1.0  0.59720  0.98900  0.50150  1.0000 0.1094344713
H   H47       1.0  0.59840  0.02680  0.67420  1.0000 0.1304954343
H   H48       1.0  0.57460  0.11100  0.48950  1.0000 0.1209672466
H   H49       1.0  0.14000  0.74980  0.51940  1.0000 0.2574678274
H   H50       1.0  0.53580  0.17980  0.53050  1.0000 0.2800363439
H   H51       1.0  0.04430  0.76410  0.52680  1.0000 0.2800363439
H   H52       1.0  0.54030  0.28030  0.53850  1.0000 0.2671990084
H   H53       1.0  0.92250  0.78690  0.50580  1.0000 0.1209672466
H   H54       1.0  0.07850  0.72350  0.69040  1.0000 0.1304954343
H   H55       1.0  0.82500  0.78440  0.54230  1.0000 0.1009751521
H   H56       1.0  0.98090  0.72570  0.72300  1.0000 0.1094344713
H   H57       1.0  0.54160  0.40420  0.51930  1.0000 0.1209672466
H   H58       1.0  0.61480  0.25580  0.70100  1.0000 0.1304954343
H   H59       1.0  0.56300  0.50980  0.55140  1.0000 0.1009751521
H   H60       1.0  0.62030  0.35810  0.73270  1.0000 0.1094344713
H   H61       1.0  0.70720  0.34560  0.99820  1.0000 0.1009751521
H   H62       1.0  0.71720  0.42900  0.82300  1.0000 0.1304954343
H   H63       1.0  0.73210  0.22250  0.01520  1.0000 0.1209672466
H   H64       1.0  0.72760  0.30160  0.83570  1.0000 0.1209672466
H   H65       1.0  0.90990  0.63770  0.81060  1.0000 0.1209672466
H   H66       1.0  0.98900  0.59720  0.99850  1.0000 0.1094344713
H   H67       1.0  0.02680  0.59840  0.82580  1.0000 0.1304954343
H   H68       1.0  0.11100  0.57460  0.01050  1.0000 0.1209672466
H   H69       1.0  0.74980  0.14000  0.98060  1.0000 0.2574678274
H   H70       1.0  0.17980  0.53580  0.96950  1.0000 0.2800363439
H   H71       1.0  0.76410  0.04430  0.97320  1.0000 0.2800363439
H   H72       1.0  0.28030  0.54030  0.96150  1.0000 0.2671990084
H   H73       1.0  0.78690  0.92250  0.99420  1.0000 0.1209672466
H   H74       1.0  0.72350  0.07850  0.80960  1.0000 0.1304954343
H   H75       1.0  0.78440  0.82500  0.95770  1.0000 0.1094344713
H   H76       1.0  0.72570  0.98090  0.77700  1.0000 0.1094344713
H   H77       1.0  0.40420  0.54160  0.98070  1.0000 0.1209672466
H   H78       1.0  0.25580  0.61480  0.79900  1.0000 0.1304954343
H   H79       1.0  0.50980  0.56300  0.94860  1.0000 0.1009751521
H   H80       1.0  0.35810  0.62030  0.76730  1.0000 0.1094344713
C   C1        1.0  0.51730  0.29250  0.40330  1.0000 0.580581932
C   C2        1.0  0.59750  0.28590  0.40930  1.0000 -0.0625301063
C   C3        1.0  0.36850  0.13930  0.39960  1.0000 0.6049123096
C   C4        1.0  0.66220  0.28500  0.46590  1.0000 -0.1114954029
C   C5        1.0  0.61310  0.28110  0.36210  1.0000 -0.0806615469
C   C6        1.0  0.38140  0.05960  0.40630  1.0000 -0.0407148006
C   C7        1.0  0.73620  0.27320  0.47510  1.0000 -0.2295331036
C   C8        1.0  0.68900  0.27380  0.36970  1.0000 -0.2006921483
C   C9        1.0  0.37820  0.04980  0.35150  1.0000 -0.0806615469
C   C10       1.0  0.40000  0.00240  0.46280  1.0000 -0.0924595607
C   C11       1.0  0.75190  0.26870  0.42790  1.0000 0.2502325537
C   C12       1.0  0.39870  0.97990  0.36040  1.0000 -0.186911367
C   C13       1.0  0.41510  0.93090  0.47020  1.0000 -0.2186319133
C   C14       1.0  0.41530  0.91910  0.41890  1.0000 0.2303350388
C   C15       1.0  0.85680  0.25660  0.39950  1.0000 0.5887678551
C   C16       1.0  0.41270  0.81130  0.38800  1.0000 0.5887678551
C   C17       1.0  0.98890  0.24610  0.40300  1.0000 0.2303350388
C   C18       1.0  0.06620  0.22600  0.45030  1.0000 -0.2186319133
C   C19       1.0  0.97270  0.26350  0.34000  1.0000 -0.2006921483
C   C20       1.0  0.42340  0.67840  0.39310  1.0000 0.2373505967
C   C21       1.0  0.12260  0.22640  0.42870  1.0000 -0.0715407136
C   C22       1.0  0.03060  0.26180  0.32080  1.0000 -0.0806615469
C   C23       1.0  0.43990  0.60450  0.43670  1.0000 -0.2295331036
C   C24       1.0  0.39880  0.69320  0.32960  1.0000 -0.186911367
C   C25       1.0  0.10250  0.24310  0.36260  1.0000 -0.0625301063
C   C26       1.0  0.43010  0.54250  0.41790  1.0000 -0.0806615469
C   C27       1.0  0.39430  0.63170  0.31120  1.0000 -0.0806615469
C   C28       1.0  0.16730  0.24310  0.34380  1.0000 0.6177870321
C   C29       1.0  0.41030  0.55630  0.35440  1.0000 -0.0625301063
C   C30       1.0  0.40340  0.49100  0.33390  1.0000 0.6069837856
C   C31       1.0  0.29250  0.51730  0.09670  1.0000 0.580581932
C   C32       1.0  0.28590  0.59750  0.09070  1.0000 -0.0625301063
C   C33       1.0  0.13930  0.36850  0.10040  1.0000 0.6049123096
C   C34       1.0  0.28500  0.66220  0.03410  1.0000 -0.1114954029
C   C35       1.0  0.28110  0.61310  0.13790  1.0000 -0.0806615469
C   C36       1.0  0.05960  0.38140  0.09370  1.0000 -0.0407148006
C   C37       1.0  0.27320  0.73620  0.02490  1.0000 -0.2295331036
C   C38       1.0  0.27380  0.68900  0.13030  1.0000 -0.2006921483
C   C39       1.0  0.04980  0.37820  0.14850  1.0000 -0.0806615469
C   C40       1.0  0.00240  0.40000  0.03720  1.0000 -0.0924595607
C   C41       1.0  0.26870  0.75190  0.07210  1.0000 0.2502325537
C   C42       1.0  0.97990  0.39870  0.13960  1.0000 -0.1844636661
C   C43       1.0  0.93090  0.41510  0.02980  1.0000 -0.2186319133
C   C44       1.0  0.91910  0.41530  0.08110  1.0000 0.2303350388
C   C45       1.0  0.25660  0.85680  0.10050  1.0000 0.580581932
C   C46       1.0  0.81130  0.41270  0.11200  1.0000 0.5887678551
C   C47       1.0  0.24610  0.98890  0.09700  1.0000 0.2303350388
C   C48       1.0  0.22600  0.06620  0.04970  1.0000 -0.2186319133
C   C49       1.0  0.26350  0.97270  0.16000  1.0000 -0.2006921483
C   C50       1.0  0.67840  0.42340  0.10690  1.0000 0.2373505967
C   C51       1.0  0.22640  0.12260  0.07130  1.0000 -0.0715407136
C   C52       1.0  0.26180  0.03060  0.17920  1.0000 -0.0806615469
C   C53       1.0  0.60450  0.43990  0.06330  1.0000 -0.2295331036
C   C54       1.0  0.69320  0.39880  0.17040  1.0000 -0.186911367
C   C55       1.0  0.24310  0.10250  0.13740  1.0000 -0.0625301063
C   C56       1.0  0.54250  0.43010  0.08210  1.0000 -0.0806615469
C   C57       1.0  0.63170  0.39430  0.18880  1.0000 -0.0806615469
C   C58       1.0  0.24310  0.16730  0.15620  1.0000 0.6177870321
C   C59       1.0  0.55630  0.41030  0.14560  1.0000 -0.0625301063
C   C60       1.0  0.49100  0.40340  0.16610  1.0000 0.6069837856
C   C61       1.0  0.48270  0.70750  0.59670  1.0000 0.580581932
C   C62       1.0  0.40250  0.71410  0.59070  1.0000 -0.0625301063
C   C63       1.0  0.63150  0.86070  0.60040  1.0000 0.6069837856
C   C64       1.0  0.33780  0.71500  0.53410  1.0000 -0.1114954029
C   C65       1.0  0.38690  0.71890  0.63790  1.0000 -0.0806615469
C   C66       1.0  0.61860  0.94040  0.59370  1.0000 -0.0407148006
C   C67       1.0  0.26380  0.72680  0.52490  1.0000 -0.2295331036
C   C68       1.0  0.31100  0.72620  0.63030  1.0000 -0.2006921483
C   C69       1.0  0.62180  0.95020  0.64850  1.0000 -0.0806615469
C   C70       1.0  0.60000  0.99760  0.53720  1.0000 -0.0924595607
C   C71       1.0  0.24810  0.73130  0.57210  1.0000 0.2502325537
C   C72       1.0  0.60130  0.02010  0.63960  1.0000 -0.186911367
C   C73       1.0  0.58490  0.06910  0.52980  1.0000 -0.2186319133
C   C74       1.0  0.58470  0.08090  0.58110  1.0000 0.2303350388
C   C75       1.0  0.14320  0.74340  0.60050  1.0000 0.5887678551
C   C76       1.0  0.58730  0.18870  0.61200  1.0000 0.5887678551
C   C77       1.0  0.01110  0.75390  0.59700  1.0000 0.2303350388
C   C78       1.0  0.93380  0.77400  0.54970  1.0000 -0.2186319133
C   C79       1.0  0.02730  0.73650  0.66000  1.0000 -0.2006921483
C   C80       1.0  0.57660  0.32160  0.60690  1.0000 0.2373505967
C   C81       1.0  0.87740  0.77360  0.57130  1.0000 -0.0715407136
C   C82       1.0  0.96940  0.73820  0.67920  1.0000 -0.0806615469
C   C83       1.0  0.56010  0.39550  0.56330  1.0000 -0.2295331036
C   C84       1.0  0.60120  0.30680  0.67040  1.0000 -0.186911367
C   C85       1.0  0.89750  0.75690  0.63740  1.0000 -0.0625301063
C   C86       1.0  0.56990  0.45750  0.58210  1.0000 -0.0806615469
C   C87       1.0  0.60570  0.36830  0.68880  1.0000 -0.0806615469
C   C88       1.0  0.83270  0.75690  0.65620  1.0000 0.6177870321
C   C89       1.0  0.58970  0.44370  0.64560  1.0000 -0.0625301063
C   C90       1.0  0.59660  0.50900  0.66610  1.0000 0.6069837856
C   C91       1.0  0.70750  0.48270  0.90330  1.0000 0.580581932
C   C92       1.0  0.71410  0.40250  0.90930  1.0000 -0.0625301063
C   C93       1.0  0.86070  0.63150  0.89960  1.0000 0.6049123096
C   C94       1.0  0.71500  0.33780  0.96590  1.0000 -0.1114954029
C   C95       1.0  0.71890  0.38690  0.86210  1.0000 -0.0806615469
C   C96       1.0  0.94040  0.61860  0.90630  1.0000 -0.0407148006
C   C97       1.0  0.72680  0.26380  0.97510  1.0000 -0.2295331036
C   C98       1.0  0.72620  0.31100  0.86970  1.0000 -0.2006921483
C   C99       1.0  0.95020  0.62180  0.85150  1.0000 -0.0806615469
C   C100      1.0  0.99760  0.60000  0.96280  1.0000 -0.0924595607
C   C101      1.0  0.73130  0.24810  0.92790  1.0000 0.2502325537
C   C102      1.0  0.02010  0.60130  0.86040  1.0000 -0.186911367
C   C103      1.0  0.06910  0.58490  0.97020  1.0000 -0.2186319133
C   C104      1.0  0.08090  0.58470  0.91890  1.0000 0.2303350388
C   C105      1.0  0.74340  0.14320  0.89950  1.0000 0.5887678551
C   C106      1.0  0.18870  0.58730  0.88800  1.0000 0.5887678551
C   C107      1.0  0.75390  0.01110  0.90300  1.0000 0.2303350388
C   C108      1.0  0.77400  0.93380  0.95030  1.0000 -0.2186319133
C   C109      1.0  0.73650  0.02730  0.84000  1.0000 -0.2006921483
C   C110      1.0  0.32160  0.57660  0.89310  1.0000 0.2373505967
C   C111      1.0  0.77360  0.87740  0.92870  1.0000 -0.0715407136
C   C112      1.0  0.73820  0.96940  0.82080  1.0000 -0.0806615469
C   C113      1.0  0.39550  0.56010  0.93670  1.0000 -0.2295331036
C   C114      1.0  0.30680  0.60120  0.82960  1.0000 -0.186911367
C   C115      1.0  0.75690  0.89750  0.86260  1.0000 -0.0625301063
C   C116      1.0  0.45750  0.56990  0.91790  1.0000 -0.0806615469
C   C117      1.0  0.36830  0.60570  0.81120  1.0000 -0.0806615469
C   C118      1.0  0.75690  0.83270  0.84380  1.0000 0.6177870321
C   C119      1.0  0.44370  0.58970  0.85440  1.0000 -0.0625301063
C   C120      1.0  0.50900  0.59660  0.83390  1.0000 0.6069837856
N   N1        1.0  0.82680  0.25760  0.44130  1.0000 -0.4251378787
N   N2        1.0  0.43450  0.84610  0.43030  1.0000 -0.4082347763
N   N3        1.0  0.93610  0.24470  0.43210  1.0000 -0.4602348668
N   N4        1.0  0.43540  0.73440  0.41990  1.0000 -0.4431083289
N   N5        1.0  0.25760  0.82680  0.05870  1.0000 -0.4235499961
N   N6        1.0  0.84610  0.43450  0.06970  1.0000 -0.4082347763
N   N7        1.0  0.24470  0.93610  0.06790  1.0000 -0.4602348668
N   N8        1.0  0.73440  0.43540  0.08010  1.0000 -0.4431083289
N   N9        1.0  0.17320  0.74240  0.55870  1.0000 -0.4251378787
N   N10       1.0  0.56550  0.15390  0.56970  1.0000 -0.4082347763
N   N11       1.0  0.06390  0.75530  0.56790  1.0000 -0.4602348668
N   N12       1.0  0.56460  0.26560  0.58010  1.0000 -0.4431083289
N   N13       1.0  0.74240  0.17320  0.94130  1.0000 -0.4235499961
N   N14       1.0  0.15390  0.56550  0.93030  1.0000 -0.4082347763
N   N15       1.0  0.75530  0.06390  0.93210  1.0000 -0.4602348668
N   N16       1.0  0.26560  0.56460  0.91990  1.0000 -0.4431083289
O   O1        1.0  0.46490  0.31150  0.34720  1.0000 -0.6632983101
O   O2        1.0  0.34750  0.30410  0.21480  1.0000 -1.1300124439
O   O3        1.0  0.38390  0.50430  0.27610  1.0000 -0.6125245107
O   O4        1.0  0.50460  0.28700  0.44830  1.0000 -0.5766063345
O   O5        1.0  0.34140  0.19120  0.34310  1.0000 -0.700133921
O   O6        1.0  0.38730  0.15690  0.44720  1.0000 -0.6150227499
O   O7        1.0  0.41740  0.42300  0.37600  1.0000 -0.700133921
O   O8        1.0  0.23480  0.22820  0.38460  1.0000 -0.6898818624
O   O9        1.0  0.14930  0.25910  0.28490  1.0000 -0.6473816646
O   O10       1.0  0.81800  0.26540  0.34370  1.0000 -0.487682006
O   O11       1.0  0.37910  0.83970  0.33270  1.0000 -0.4602348668
O   O12       1.0  0.31150  0.46490  0.15280  1.0000 -0.6632983101
O   O13       1.0  0.30410  0.34750  0.28520  1.0000 -1.1300124439
O   O14       1.0  0.50430  0.38390  0.22390  1.0000 -0.6125245107
O   O15       1.0  0.28700  0.50460  0.05170  1.0000 -0.5766063345
O   O16       1.0  0.19120  0.34140  0.15690  1.0000 -0.700133921
O   O17       1.0  0.15690  0.38730  0.05280  1.0000 -0.6150227499
O   O18       1.0  0.42300  0.41740  0.12400  1.0000 -0.700133921
O   O19       1.0  0.22820  0.23480  0.11540  1.0000 -0.6898818624
O   O20       1.0  0.25910  0.14930  0.21510  1.0000 -0.6473816646
O   O21       1.0  0.26540  0.81800  0.15630  1.0000 -0.4842323971
O   O22       1.0  0.83970  0.37910  0.16730  1.0000 -0.4602348668
O   O23       1.0  0.53510  0.68850  0.65280  1.0000 -0.6632983101
O   O24       1.0  0.65250  0.69590  0.78520  1.0000 -1.1393075896
O   O25       1.0  0.61610  0.49570  0.72390  1.0000 -0.6125245107
O   O26       1.0  0.49540  0.71300  0.55170  1.0000 -0.5766063345
O   O27       1.0  0.65860  0.80880  0.65690  1.0000 -0.700133921
O   O28       1.0  0.61270  0.84310  0.55280  1.0000 -0.6150227499
O   O29       1.0  0.58260  0.57700  0.62400  1.0000 -0.700133921
O   O30       1.0  0.76520  0.77180  0.61540  1.0000 -0.6898818624
O   O31       1.0  0.85070  0.74090  0.71510  1.0000 -0.6473816646
O   O32       1.0  0.18200  0.73460  0.65630  1.0000 -0.487682006
O   O33       1.0  0.62090  0.16030  0.66730  1.0000 -0.4602348668
O   O34       1.0  0.68850  0.53510  0.84720  1.0000 -0.6632983101
O   O35       1.0  0.69590  0.65250  0.71480  1.0000 -1.1300124439
O   O36       1.0  0.49570  0.61610  0.77610  1.0000 -0.6125245107
O   O37       1.0  0.71300  0.49540  0.94830  1.0000 -0.5766063345
O   O38       1.0  0.80880  0.65860  0.84310  1.0000 -0.700133921
O   O39       1.0  0.84310  0.61270  0.94720  1.0000 -0.6150227499
O   O40       1.0  0.57700  0.58260  0.87600  1.0000 -0.700133921
O   O41       1.0  0.77180  0.76520  0.88460  1.0000 -0.6898818624
O   O42       1.0  0.74090  0.85070  0.78490  1.0000 -0.6473816646
O   O43       1.0  0.73460  0.18200  0.84370  1.0000 -0.487682006
O   O44       1.0  0.16030  0.62090  0.83270  1.0000 -0.4602348668
