# DDEC6 charges by PACMAN v1.1 (https://github.com/mtap-research/PACMAN-charge/)
data_2018[Cu][sql]2[ASR]5
_chemical_formula_sum              "Cu16 H48 C88 N32 O32"
_cell_length_a       11.5113
_cell_length_b       19.3307
_cell_length_c       30.193
_cell_angle_alpha    90
_cell_angle_beta     90
_cell_angle_gamma    90

_symmetry_space_group_name_H-M    "P 1"
_symmetry_Int_Tables_number       1

loop_
  _symmetry_equiv_pos_as_xyz
  'x, y, z'

loop_
  _atom_site_type_symbol
  _atom_site_label
  _atom_site_symmetry_multiplicity
  _atom_site_fract_x
  _atom_site_fract_y
  _atom_site_fract_z
  _atom_site_occupancy
  _atom_site_charge
Cu  Cu1       1.0  0.76776  0.91066  0.98780  1.0000 0.6170067475
Cu  Cu2       1.0  0.06132  0.93429  0.01211  1.0000 0.7978544519
Cu  Cu3       1.0  0.73224  0.41066  0.01220  1.0000 0.6170067475
Cu  Cu4       1.0  0.43868  0.43429  0.98789  1.0000 0.7978544519
Cu  Cu5       1.0  0.23224  0.08934  0.01220  1.0000 0.6170067475
Cu  Cu6       1.0  0.93868  0.06571  0.98789  1.0000 0.7978544519
Cu  Cu7       1.0  0.26776  0.58934  0.98780  1.0000 0.6170067475
Cu  Cu8       1.0  0.56132  0.56571  0.01211  1.0000 0.7978544519
Cu  Cu9       1.0  0.23224  0.08934  0.48780  1.0000 0.6170067475
Cu  Cu10      1.0  0.93868  0.06571  0.51211  1.0000 0.7978544519
Cu  Cu11      1.0  0.26776  0.58934  0.51220  1.0000 0.6170067475
Cu  Cu12      1.0  0.56132  0.56571  0.48789  1.0000 0.7978544519
Cu  Cu13      1.0  0.76776  0.91066  0.51220  1.0000 0.6170067475
Cu  Cu14      1.0  0.06132  0.93429  0.48789  1.0000 0.7978544519
Cu  Cu15      1.0  0.73224  0.41066  0.48780  1.0000 0.6170067475
Cu  Cu16      1.0  0.43868  0.43429  0.51211  1.0000 0.7978544519
H   H1        1.0  0.31890  0.77780  0.09750  1.0000 0.1087306333
H   H2        1.0  0.15240  0.81350  0.06740  1.0000 0.1087306333
H   H3        1.0  0.64180  0.08850  0.05880  1.0000 0.1392232687
H   H4        1.0  0.68750  0.20160  0.04150  1.0000 0.1200875924
H   H5        1.0  0.36500  0.22930  0.99760  1.0000 0.104702881
H   H6        1.0  0.93170  0.94840  0.94770  1.0000 0.3647192404
H   H7        1.0  0.18110  0.27780  0.90250  1.0000 0.1087306333
H   H8        1.0  0.34760  0.31350  0.93260  1.0000 0.1087306333
H   H9        1.0  0.85820  0.58850  0.94120  1.0000 0.1392232687
H   H10       1.0  0.81250  0.70160  0.95850  1.0000 0.1200875924
H   H11       1.0  0.13500  0.72930  0.00240  1.0000 0.104702881
H   H12       1.0  0.56830  0.44840  0.05230  1.0000 0.365209876
H   H13       1.0  0.68110  0.22220  0.90250  1.0000 0.1087306333
H   H14       1.0  0.84760  0.18650  0.93260  1.0000 0.1087306333
H   H15       1.0  0.35820  0.91150  0.94120  1.0000 0.1392232687
H   H16       1.0  0.31250  0.79840  0.95850  1.0000 0.1200875924
H   H17       1.0  0.63500  0.77070  0.00240  1.0000 0.104702881
H   H18       1.0  0.06830  0.05160  0.05230  1.0000 0.365209876
H   H19       1.0  0.81890  0.72220  0.09750  1.0000 0.1087306333
H   H20       1.0  0.65240  0.68650  0.06740  1.0000 0.1087306333
H   H21       1.0  0.14180  0.41150  0.05880  1.0000 0.1392232687
H   H22       1.0  0.18750  0.29840  0.04150  1.0000 0.1200875924
H   H23       1.0  0.86500  0.27070  0.99760  1.0000 0.1087306333
H   H24       1.0  0.43170  0.55160  0.94770  1.0000 0.3647192404
H   H25       1.0  0.68110  0.22220  0.59750  1.0000 0.1087306333
H   H26       1.0  0.84760  0.18650  0.56740  1.0000 0.1087306333
H   H27       1.0  0.35820  0.91150  0.55880  1.0000 0.1392232687
H   H28       1.0  0.31250  0.79840  0.54150  1.0000 0.1200875924
H   H29       1.0  0.63500  0.77070  0.49760  1.0000 0.104702881
H   H30       1.0  0.06830  0.05160  0.44770  1.0000 0.3647192404
H   H31       1.0  0.81890  0.72220  0.40250  1.0000 0.1087306333
H   H32       1.0  0.65240  0.68650  0.43260  1.0000 0.1087306333
H   H33       1.0  0.14180  0.41150  0.44120  1.0000 0.1392232687
H   H34       1.0  0.18750  0.29840  0.45850  1.0000 0.1200875924
H   H35       1.0  0.86500  0.27070  0.50240  1.0000 0.104702881
H   H36       1.0  0.43170  0.55160  0.55230  1.0000 0.3647192404
H   H37       1.0  0.31890  0.77780  0.40250  1.0000 0.1087306333
H   H38       1.0  0.15240  0.81350  0.43260  1.0000 0.1087306333
H   H39       1.0  0.64180  0.08850  0.44120  1.0000 0.1392232687
H   H40       1.0  0.68750  0.20160  0.45850  1.0000 0.1200875924
H   H41       1.0  0.36500  0.22930  0.50240  1.0000 0.104702881
H   H42       1.0  0.93170  0.94840  0.55230  1.0000 0.3647192404
H   H43       1.0  0.18110  0.27780  0.59750  1.0000 0.1087306333
H   H44       1.0  0.34760  0.31350  0.56740  1.0000 0.1087306333
H   H45       1.0  0.85820  0.58850  0.55880  1.0000 0.1392232687
H   H46       1.0  0.81250  0.70160  0.54150  1.0000 0.1200875924
H   H47       1.0  0.13500  0.72930  0.49760  1.0000 0.104702881
H   H48       1.0  0.56830  0.44840  0.44770  1.0000 0.3647192404
C   C1        1.0  0.31870  0.82190  0.08510  1.0000 -0.0213883142
C   C2        1.0  0.21600  0.84310  0.06650  1.0000 -0.0398885176
C   C3        1.0  0.30240  0.94540  0.04940  1.0000 0.2307085492
C   C4        1.0  0.40580  0.92180  0.06960  1.0000 0.2156395748
C   C5        1.0  0.43020  0.02480  0.04650  1.0000 0.2684540734
C   C6        1.0  0.47430  0.09370  0.03770  1.0000 0.104702881
C   C7        1.0  0.58650  0.11760  0.04630  1.0000 -0.1814973294
C   C8        1.0  0.61350  0.18450  0.03580  1.0000 -0.0652184129
C   C9        1.0  0.53180  0.22570  0.01700  1.0000 -0.0755919158
C   C10       1.0  0.42070  0.20000  0.00960  1.0000 0.0872782566
C   C11       1.0  0.55680  0.30150  0.00700  1.0000 0.5575577602
C   C12       1.0  0.18130  0.32190  0.91490  1.0000 -0.0213883142
C   C13       1.0  0.28400  0.34310  0.93350  1.0000 -0.0398885176
C   C14       1.0  0.19760  0.44540  0.95060  1.0000 0.2307085492
C   C15       1.0  0.09420  0.42180  0.93040  1.0000 0.2156395748
C   C16       1.0  0.06980  0.52480  0.95350  1.0000 0.2684540734
C   C17       1.0  0.02570  0.59370  0.96230  1.0000 0.104702881
C   C18       1.0  0.91350  0.61760  0.95370  1.0000 -0.1814973294
C   C19       1.0  0.88650  0.68450  0.96420  1.0000 -0.0652184129
C   C20       1.0  0.96820  0.72570  0.98300  1.0000 -0.0755919158
C   C21       1.0  0.07930  0.70000  0.99040  1.0000 0.0872782566
C   C22       1.0  0.94320  0.80150  0.99300  1.0000 0.5575577602
C   C23       1.0  0.68130  0.17810  0.91490  1.0000 -0.0213883142
C   C24       1.0  0.78400  0.15690  0.93350  1.0000 -0.0398885176
C   C25       1.0  0.69760  0.05460  0.95060  1.0000 0.2307085492
C   C26       1.0  0.59420  0.07820  0.93040  1.0000 0.2156395748
C   C27       1.0  0.56980  0.97520  0.95350  1.0000 0.2684540734
C   C28       1.0  0.52570  0.90630  0.96230  1.0000 0.104702881
C   C29       1.0  0.41350  0.88240  0.95370  1.0000 -0.1814973294
C   C30       1.0  0.38650  0.81550  0.96420  1.0000 -0.0648298465
C   C31       1.0  0.46820  0.77430  0.98300  1.0000 -0.0755919158
C   C32       1.0  0.57930  0.80000  0.99040  1.0000 0.0872782566
C   C33       1.0  0.44320  0.69850  0.99300  1.0000 0.5575577602
C   C34       1.0  0.81870  0.67810  0.08510  1.0000 -0.0213883142
C   C35       1.0  0.71600  0.65690  0.06650  1.0000 -0.0398885176
C   C36       1.0  0.80240  0.55460  0.04940  1.0000 0.2307085492
C   C37       1.0  0.90580  0.57820  0.06960  1.0000 0.2156395748
C   C38       1.0  0.93020  0.47520  0.04650  1.0000 0.2684540734
C   C39       1.0  0.97430  0.40630  0.03770  1.0000 0.104702881
C   C40       1.0  0.08650  0.38240  0.04630  1.0000 -0.1814973294
C   C41       1.0  0.11350  0.31550  0.03580  1.0000 -0.0652184129
C   C42       1.0  0.03180  0.27430  0.01700  1.0000 -0.0755919158
C   C43       1.0  0.92070  0.30000  0.00960  1.0000 0.0872782566
C   C44       1.0  0.05680  0.19850  0.00700  1.0000 0.5575577602
C   C45       1.0  0.68130  0.17810  0.58510  1.0000 -0.0213883142
C   C46       1.0  0.78400  0.15690  0.56650  1.0000 -0.0398885176
C   C47       1.0  0.69760  0.05460  0.54940  1.0000 0.2307085492
C   C48       1.0  0.59420  0.07820  0.56960  1.0000 0.2156395748
C   C49       1.0  0.56980  0.97520  0.54650  1.0000 0.2684540734
C   C50       1.0  0.52570  0.90630  0.53770  1.0000 0.104702881
C   C51       1.0  0.41350  0.88240  0.54630  1.0000 -0.1814973294
C   C52       1.0  0.38650  0.81550  0.53580  1.0000 -0.0652184129
C   C53       1.0  0.46820  0.77430  0.51700  1.0000 -0.0755919158
C   C54       1.0  0.57930  0.80000  0.50960  1.0000 0.0872782566
C   C55       1.0  0.44320  0.69850  0.50700  1.0000 0.5575577602
C   C56       1.0  0.81870  0.67810  0.41490  1.0000 -0.0213883142
C   C57       1.0  0.71600  0.65690  0.43350  1.0000 -0.0398885176
C   C58       1.0  0.80240  0.55460  0.45060  1.0000 0.2307085492
C   C59       1.0  0.90580  0.57820  0.43040  1.0000 0.2146738604
C   C60       1.0  0.93020  0.47520  0.45350  1.0000 0.2684540734
C   C61       1.0  0.97430  0.40630  0.46230  1.0000 0.104702881
C   C62       1.0  0.08650  0.38240  0.45370  1.0000 -0.1814973294
C   C63       1.0  0.11350  0.31550  0.46420  1.0000 -0.0652184129
C   C64       1.0  0.03180  0.27430  0.48300  1.0000 -0.0755919158
C   C65       1.0  0.92070  0.30000  0.49040  1.0000 0.0872782566
C   C66       1.0  0.05680  0.19850  0.49300  1.0000 0.5575577602
C   C67       1.0  0.31870  0.82190  0.41490  1.0000 -0.0213883142
C   C68       1.0  0.21600  0.84310  0.43350  1.0000 -0.0398885176
C   C69       1.0  0.30240  0.94540  0.45060  1.0000 0.2307085492
C   C70       1.0  0.40580  0.92180  0.43040  1.0000 0.2146738604
C   C71       1.0  0.43020  0.02480  0.45350  1.0000 0.2684540734
C   C72       1.0  0.47430  0.09370  0.46230  1.0000 0.104702881
C   C73       1.0  0.58650  0.11760  0.45370  1.0000 -0.1814973294
C   C74       1.0  0.61350  0.18450  0.46420  1.0000 -0.0652184129
C   C75       1.0  0.53180  0.22570  0.48300  1.0000 -0.0755919158
C   C76       1.0  0.42070  0.20000  0.49040  1.0000 0.0872782566
C   C77       1.0  0.55680  0.30150  0.49300  1.0000 0.5575577602
C   C78       1.0  0.18130  0.32190  0.58510  1.0000 -0.0213883142
C   C79       1.0  0.28400  0.34310  0.56650  1.0000 -0.0398885176
C   C80       1.0  0.19760  0.44540  0.54940  1.0000 0.2307085492
C   C81       1.0  0.09420  0.42180  0.56960  1.0000 0.2156395748
C   C82       1.0  0.06980  0.52480  0.54650  1.0000 0.2684540734
C   C83       1.0  0.02570  0.59370  0.53770  1.0000 0.104702881
C   C84       1.0  0.91350  0.61760  0.54630  1.0000 -0.1814973294
C   C85       1.0  0.88650  0.68450  0.53580  1.0000 -0.0652184129
C   C86       1.0  0.96820  0.72570  0.51700  1.0000 -0.0755919158
C   C87       1.0  0.07930  0.70000  0.50960  1.0000 0.0872782566
C   C88       1.0  0.94320  0.80150  0.50700  1.0000 0.5575577602
N   N1        1.0  0.42080  0.85800  0.08770  1.0000 -0.3123379066
N   N2        1.0  0.20340  0.90680  0.04630  1.0000 -0.358199583
N   N3        1.0  0.31920  0.01100  0.03500  1.0000 -0.4569879822
N   N4        1.0  0.39100  0.13520  0.01910  1.0000 -0.2886072523
N   N5        1.0  0.07920  0.35800  0.91230  1.0000 -0.3123379066
N   N6        1.0  0.29660  0.40680  0.95370  1.0000 -0.358199583
N   N7        1.0  0.18080  0.51100  0.96500  1.0000 -0.4569879822
N   N8        1.0  0.10900  0.63520  0.98090  1.0000 -0.2886072523
N   N9        1.0  0.57920  0.14200  0.91230  1.0000 -0.3123379066
N   N10       1.0  0.79660  0.09320  0.95370  1.0000 -0.358199583
N   N11       1.0  0.68080  0.98900  0.96500  1.0000 -0.4569879822
N   N12       1.0  0.60900  0.86480  0.98090  1.0000 -0.2886072523
N   N13       1.0  0.92080  0.64200  0.08770  1.0000 -0.3123379066
N   N14       1.0  0.70340  0.59320  0.04630  1.0000 -0.358199583
N   N15       1.0  0.81920  0.48900  0.03500  1.0000 -0.4569879822
N   N16       1.0  0.89100  0.36480  0.01910  1.0000 -0.2886072523
N   N17       1.0  0.57920  0.14200  0.58770  1.0000 -0.3123379066
N   N18       1.0  0.79660  0.09320  0.54630  1.0000 -0.358199583
N   N19       1.0  0.68080  0.98900  0.53500  1.0000 -0.4569879822
N   N20       1.0  0.60900  0.86480  0.51910  1.0000 -0.2886072523
N   N21       1.0  0.92080  0.64200  0.41230  1.0000 -0.3123379066
N   N22       1.0  0.70340  0.59320  0.45370  1.0000 -0.358199583
N   N23       1.0  0.81920  0.48900  0.46500  1.0000 -0.4569879822
N   N24       1.0  0.89100  0.36480  0.48090  1.0000 -0.2886072523
N   N25       1.0  0.42080  0.85800  0.41230  1.0000 -0.3123379066
N   N26       1.0  0.20340  0.90680  0.45370  1.0000 -0.358199583
N   N27       1.0  0.31920  0.01100  0.46500  1.0000 -0.4569879822
N   N28       1.0  0.39100  0.13520  0.48090  1.0000 -0.2886072523
N   N29       1.0  0.07920  0.35800  0.58770  1.0000 -0.3123379066
N   N30       1.0  0.29660  0.40680  0.54630  1.0000 -0.358199583
N   N31       1.0  0.18080  0.51100  0.53500  1.0000 -0.4569879822
N   N32       1.0  0.10900  0.63520  0.51910  1.0000 -0.2886072523
O   O1        1.0  0.47050  0.33680  0.99550  1.0000 -0.5367560327
O   O2        1.0  0.65900  0.32020  0.00830  1.0000 -0.5062849622
O   O3        1.0  0.48970  0.97380  0.06620  1.0000 -0.1678876668
O   O4        1.0  0.91690  0.96400  0.98225  1.0000 -0.8155816411
O   O5        1.0  0.02950  0.83680  0.00450  1.0000 -0.5367560327
O   O6        1.0  0.84100  0.82020  0.99170  1.0000 -0.5062849622
O   O7        1.0  0.01030  0.47380  0.93380  1.0000 -0.1678876668
O   O8        1.0  0.58310  0.46400  0.01775  1.0000 -0.8155816411
O   O9        1.0  0.52950  0.66320  0.00450  1.0000 -0.5367560327
O   O10       1.0  0.34100  0.67980  0.99170  1.0000 -0.5062849622
O   O11       1.0  0.51030  0.02620  0.93380  1.0000 -0.1678876668
O   O12       1.0  0.08310  0.03600  0.01775  1.0000 -0.8155816411
O   O13       1.0  0.97050  0.16320  0.99550  1.0000 -0.5367560327
O   O14       1.0  0.15900  0.17980  0.00830  1.0000 -0.5048546806
O   O15       1.0  0.98970  0.52620  0.06620  1.0000 -0.1678876668
O   O16       1.0  0.41690  0.53600  0.98225  1.0000 -0.8147059694
O   O17       1.0  0.52950  0.66320  0.49550  1.0000 -0.5367560327
O   O18       1.0  0.34100  0.67980  0.50830  1.0000 -0.5062849622
O   O19       1.0  0.51030  0.02620  0.56620  1.0000 -0.1678876668
O   O20       1.0  0.08310  0.03600  0.48225  1.0000 -0.8147059694
O   O21       1.0  0.97050  0.16320  0.50450  1.0000 -0.5367560327
O   O22       1.0  0.15900  0.17980  0.49170  1.0000 -0.5062849622
O   O23       1.0  0.98970  0.52620  0.43380  1.0000 -0.1678876668
O   O24       1.0  0.41690  0.53600  0.51775  1.0000 -0.8155816411
O   O25       1.0  0.47050  0.33680  0.50450  1.0000 -0.5367560327
O   O26       1.0  0.65900  0.32020  0.49170  1.0000 -0.5062849622
O   O27       1.0  0.48970  0.97380  0.43380  1.0000 -0.1678876668
O   O28       1.0  0.91690  0.96400  0.51775  1.0000 -0.8155816411
O   O29       1.0  0.02950  0.83680  0.49550  1.0000 -0.5367560327
O   O30       1.0  0.84100  0.82020  0.50830  1.0000 -0.5062849622
O   O31       1.0  0.01030  0.47380  0.56620  1.0000 -0.1678876668
O   O32       1.0  0.58310  0.46400  0.48225  1.0000 -0.8155816411
