# DDEC6 charges by PACMAN v1.1 (https://github.com/mtap-research/PACMAN-charge/)
data_2018[U][ths]3[ASR]1
_chemical_formula_sum              "U4 H48 C84 N4 O24"
_cell_length_a       29.3059
_cell_length_b       26.079
_cell_length_c       14.6007
_cell_angle_alpha    87.4064
_cell_angle_beta     62.7451
_cell_angle_gamma    29.8485

_symmetry_space_group_name_H-M    "P 1"
_symmetry_Int_Tables_number       1

loop_
  _symmetry_equiv_pos_as_xyz
  'x, y, z'

loop_
  _atom_site_type_symbol
  _atom_site_label
  _atom_site_symmetry_multiplicity
  _atom_site_fract_x
  _atom_site_fract_y
  _atom_site_fract_z
  _atom_site_occupancy
  _atom_site_charge
U   U1        1.0  0.37495  0.37495  0.62505  1.0000 1.753100937
U   U2        1.0  0.62495  0.62495  0.87505  1.0000 1.753100937
U   U3        1.0  0.62505  0.62505  0.37495  1.0000 1.753100937
U   U4        1.0  0.87505  0.87505  0.62495  1.0000 1.7577935709
H   H1        1.0  0.23750  0.54910  0.06750  1.0000 0.1266570685
H   H2        1.0  0.25580  0.58300  0.17880  1.0000 0.1266570685
H   H3        1.0  0.60720  0.33420  0.75780  1.0000 0.1192842597
H   H4        1.0  0.56990  0.32550  0.65630  1.0000 0.1192842597
H   H5        1.0  0.34090  0.64270  0.02490  1.0000 0.1192842597
H   H6        1.0  0.37690  0.69710  0.99150  1.0000 0.1192842597
H   H7        1.0  0.54910  0.23750  0.14590  1.0000 0.1266570685
H   H8        1.0  0.58300  0.25580  0.98240  1.0000 0.1266570685
H   H9        1.0  0.33420  0.60720  0.30080  1.0000 0.1192842597
H   H10       1.0  0.32550  0.56990  0.44830  1.0000 0.1266570685
H   H11       1.0  0.64270  0.34090  0.99150  1.0000 0.1192842597
H   H12       1.0  0.69710  0.37690  0.93450  1.0000 0.1192842597
H   H13       1.0  0.18250  0.10410  0.01250  1.0000 0.1266570685
H   H14       1.0  0.07120  0.26760  0.99420  1.0000 0.1266570685
H   H15       1.0  0.49220  0.94920  0.64280  1.0000 0.1192842597
H   H16       1.0  0.59370  0.80170  0.68010  1.0000 0.1192842597
H   H17       1.0  0.22510  0.25850  0.90910  1.0000 0.1192842597
H   H18       1.0  0.25850  0.31550  0.87310  1.0000 0.1192842597
H   H19       1.0  0.10410  0.18250  0.70090  1.0000 0.1266570685
H   H20       1.0  0.26760  0.07120  0.66700  1.0000 0.1266570685
H   H21       1.0  0.94920  0.49220  0.91580  1.0000 0.1192842597
H   H22       1.0  0.80170  0.59370  0.92450  1.0000 0.1192842597
H   H23       1.0  0.25850  0.22510  0.60730  1.0000 0.1192842597
H   H24       1.0  0.31550  0.25850  0.55290  1.0000 0.1192842597
H   H25       1.0  0.06750  0.14590  0.23750  1.0000 0.1266570685
H   H26       1.0  0.17880  0.98240  0.25580  1.0000 0.1266570685
H   H27       1.0  0.75780  0.30080  0.60720  1.0000 0.1192842597
H   H28       1.0  0.65630  0.44830  0.56990  1.0000 0.1192842597
H   H29       1.0  0.02490  0.99150  0.34090  1.0000 0.1192842597
H   H30       1.0  0.99150  0.93450  0.37690  1.0000 0.1192842597
H   H31       1.0  0.14590  0.06750  0.54910  1.0000 0.1266570685
H   H32       1.0  0.98240  0.17880  0.58300  1.0000 0.1266570685
H   H33       1.0  0.30080  0.75780  0.33420  1.0000 0.1192842597
H   H34       1.0  0.44830  0.65630  0.32550  1.0000 0.1192842597
H   H35       1.0  0.99150  0.02490  0.64270  1.0000 0.1192842597
H   H36       1.0  0.93450  0.99150  0.69710  1.0000 0.1192842597
H   H37       1.0  0.01250  0.70090  0.18250  1.0000 0.1266570685
H   H38       1.0  0.99420  0.66700  0.07120  1.0000 0.1266570685
H   H39       1.0  0.64280  0.91580  0.49220  1.0000 0.1192842597
H   H40       1.0  0.68010  0.92450  0.59370  1.0000 0.1192842597
H   H41       1.0  0.90910  0.60730  0.22510  1.0000 0.1192842597
H   H42       1.0  0.87310  0.55290  0.25850  1.0000 0.1192842597
H   H43       1.0  0.70090  0.01250  0.10410  1.0000 0.1266570685
H   H44       1.0  0.66700  0.99420  0.26760  1.0000 0.1266570685
H   H45       1.0  0.91580  0.64280  0.94920  1.0000 0.1192842597
H   H46       1.0  0.92450  0.68010  0.80170  1.0000 0.1192842597
H   H47       1.0  0.60730  0.90910  0.25850  1.0000 0.1192842597
H   H48       1.0  0.55290  0.87310  0.31550  1.0000 0.1192842597
C   C1        1.0  0.38280  0.42300  0.78100  1.0000 0.5303165569
C   C2        1.0  0.30830  0.51010  0.00630  1.0000 -0.0803743786
C   C3        1.0  0.39676  0.43936  0.85404  1.0000 -0.0344353394
C   C4        1.0  0.32525  0.52365  0.06975  1.0000 -0.1867765755
C   C5        1.0  0.53116  0.37936  0.82104  1.0000 -0.1982624633
C   C6        1.0  0.43978  0.45238  0.97542  1.0000 0.1682473946
C   C7        1.0  0.50955  0.37335  0.75985  1.0000 -0.0856968126
C   C8        1.0  0.40931  0.59251  0.01069  1.0000 -0.1982624633
C   C9        1.0  0.43356  0.62236  0.98744  1.0000 -0.1011123405
C   C10       1.0  0.42300  0.38280  0.41320  1.0000 0.5303165569
C   C11       1.0  0.51010  0.30830  0.17530  1.0000 -0.0803743786
C   C12       1.0  0.43936  0.39676  0.30984  1.0000 -0.0344353394
C   C13       1.0  0.52365  0.32525  0.08135  1.0000 -0.1867765755
C   C14       1.0  0.37936  0.53116  0.26844  1.0000 -0.1982624633
C   C15       1.0  0.45238  0.43978  0.13242  1.0000 0.1682473946
C   C16       1.0  0.37335  0.50955  0.35725  1.0000 -0.0856968126
C   C17       1.0  0.59251  0.40931  0.98749  1.0000 -0.1982624633
C   C18       1.0  0.62236  0.43356  0.95664  1.0000 -0.1011123405
C   C19       1.0  0.46900  0.83680  0.86720  1.0000 0.5303165569
C   C20       1.0  0.24370  0.07470  0.94170  1.0000 -0.0803743786
C   C21       1.0  0.39596  0.94016  0.85324  1.0000 -0.0344353394
C   C22       1.0  0.18025  0.16865  0.92475  1.0000 -0.1867765755
C   C23       1.0  0.42896  0.98156  0.71884  1.0000 -0.1982624633
C   C24       1.0  0.27458  0.11758  0.81022  1.0000 0.1682473946
C   C25       1.0  0.49015  0.89275  0.74045  1.0000 -0.0856968126
C   C26       1.0  0.23931  0.26251  0.84069  1.0000 -0.1982624633
C   C27       1.0  0.26256  0.29336  0.81644  1.0000 -0.1011123405
C   C28       1.0  0.83680  0.46900  0.82700  1.0000 0.5303165569
C   C29       1.0  0.07470  0.24370  0.73990  1.0000 -0.0803743786
C   C30       1.0  0.94016  0.39596  0.81064  1.0000 -0.0344353394
C   C31       1.0  0.16865  0.18025  0.72635  1.0000 -0.1867765755
C   C32       1.0  0.98156  0.42896  0.87064  1.0000 -0.1982624633
C   C33       1.0  0.11758  0.27458  0.79762  1.0000 0.1682473946
C   C34       1.0  0.89275  0.49015  0.87665  1.0000 -0.0856968126
C   C35       1.0  0.26251  0.23931  0.65749  1.0000 -0.1982624633
C   C36       1.0  0.29336  0.26256  0.62764  1.0000 -0.1011123405
C   C37       1.0  0.48780  0.48780  0.01220  1.0000 0.1682473946
C   C38       1.0  0.54140  0.54140  0.95860  1.0000 -0.0462819663
C   C39       1.0  0.57030  0.57030  0.92970  1.0000 0.5081795259
C   C40       1.0  0.23780  0.23780  0.76220  1.0000 0.1682473946
C   C41       1.0  0.29140  0.29140  0.70860  1.0000 -0.0462819663
C   C42       1.0  0.32030  0.32030  0.67970  1.0000 0.5081795259
C   C43       1.0  0.78100  0.41320  0.38280  1.0000 0.5303165569
C   C44       1.0  0.00630  0.17530  0.30830  1.0000 -0.0803743786
C   C45       1.0  0.85404  0.30984  0.39676  1.0000 -0.0344353394
C   C46       1.0  0.06975  0.08135  0.32525  1.0000 -0.1867765755
C   C47       1.0  0.82104  0.26844  0.53116  1.0000 -0.1982624633
C   C48       1.0  0.97542  0.13242  0.43978  1.0000 0.1682473946
C   C49       1.0  0.75985  0.35725  0.50955  1.0000 -0.0856968126
C   C50       1.0  0.01069  0.98749  0.40931  1.0000 -0.1982624633
C   C51       1.0  0.98744  0.95664  0.43356  1.0000 -0.1011123405
C   C52       1.0  0.41320  0.78100  0.42300  1.0000 0.5303165569
C   C53       1.0  0.17530  0.00630  0.51010  1.0000 -0.0803743786
C   C54       1.0  0.30984  0.85404  0.43936  1.0000 -0.0344353394
C   C55       1.0  0.08135  0.06975  0.52365  1.0000 -0.1867765755
C   C56       1.0  0.26844  0.82104  0.37936  1.0000 -0.1982624633
C   C57       1.0  0.13242  0.97542  0.45238  1.0000 0.1682473946
C   C58       1.0  0.35725  0.75985  0.37335  1.0000 -0.0856968126
C   C59       1.0  0.98749  0.01069  0.59251  1.0000 -0.1982624633
C   C60       1.0  0.95664  0.98744  0.62236  1.0000 -0.1011123405
C   C61       1.0  0.86720  0.82700  0.46900  1.0000 0.5303165569
C   C62       1.0  0.94170  0.73990  0.24370  1.0000 -0.0803743786
C   C63       1.0  0.85324  0.81064  0.39596  1.0000 -0.0344353394
C   C64       1.0  0.92475  0.72635  0.18025  1.0000 -0.1867765755
C   C65       1.0  0.71884  0.87064  0.42896  1.0000 -0.1982624633
C   C66       1.0  0.81022  0.79762  0.27458  1.0000 0.1682473946
C   C67       1.0  0.74045  0.87665  0.49015  1.0000 -0.0856968126
C   C68       1.0  0.84069  0.65749  0.23931  1.0000 -0.1982624633
C   C69       1.0  0.81644  0.62764  0.26256  1.0000 -0.1011123405
C   C70       1.0  0.82700  0.86720  0.83680  1.0000 0.5303165569
C   C71       1.0  0.73990  0.94170  0.07470  1.0000 -0.0803743786
C   C72       1.0  0.81064  0.85324  0.94016  1.0000 -0.0344353394
C   C73       1.0  0.72635  0.92475  0.16865  1.0000 -0.1867765755
C   C74       1.0  0.87064  0.71884  0.98156  1.0000 -0.1982624633
C   C75       1.0  0.79762  0.81022  0.11758  1.0000 0.1682473946
C   C76       1.0  0.87665  0.74045  0.89275  1.0000 -0.0856968126
C   C77       1.0  0.65749  0.84069  0.26251  1.0000 -0.1982624633
C   C78       1.0  0.62764  0.81644  0.29336  1.0000 -0.1011123405
C   C79       1.0  0.01220  0.01220  0.48780  1.0000 0.1682473946
C   C80       1.0  0.95860  0.95860  0.54140  1.0000 -0.0462819663
C   C81       1.0  0.92970  0.92970  0.57030  1.0000 0.5081795259
C   C82       1.0  0.76220  0.76220  0.23780  1.0000 0.1682473946
C   C83       1.0  0.70860  0.70860  0.29140  1.0000 -0.0462819663
C   C84       1.0  0.67970  0.67970  0.32030  1.0000 0.5081795259
N   N1        1.0  0.46000  0.46000  0.04000  1.0000 -0.1867765755
N   N2        1.0  0.21000  0.21000  0.79000  1.0000 -0.1867765755
N   N3        1.0  0.04000  0.04000  0.46000  1.0000 -0.1867765755
N   N4        1.0  0.79000  0.79000  0.21000  1.0000 -0.1867765755
O   O1        1.0  0.41486  0.41506  0.67794  1.0000 -0.5578375436
O   O2        1.0  0.33111  0.42811  0.82749  1.0000 -0.5293067442
O   O3        1.0  0.49716  0.66776  0.93084  1.0000 -0.5547862397
O   O4        1.0  0.41506  0.41486  0.49214  1.0000 -0.5578375436
O   O5        1.0  0.42811  0.33111  0.41329  1.0000 -0.5293067442
O   O6        1.0  0.66776  0.49716  0.90424  1.0000 -0.5547862397
O   O7        1.0  0.57206  0.75786  0.83514  1.0000 -0.5578375436
O   O8        1.0  0.42251  0.83671  0.91889  1.0000 -0.5293067442
O   O9        1.0  0.31916  0.34576  0.75284  1.0000 -0.5578375436
O   O10       1.0  0.75786  0.57206  0.83494  1.0000 -0.5578375436
O   O11       1.0  0.83671  0.42251  0.82189  1.0000 -0.5293067442
O   O12       1.0  0.34576  0.31916  0.58224  1.0000 -0.5547862397
O   O13       1.0  0.67794  0.49214  0.41486  1.0000 -0.5578375436
O   O14       1.0  0.82749  0.41329  0.33111  1.0000 -0.5293067442
O   O15       1.0  0.93084  0.90424  0.49716  1.0000 -0.5578375436
O   O16       1.0  0.49214  0.67794  0.41506  1.0000 -0.5578375436
O   O17       1.0  0.41329  0.82749  0.42811  1.0000 -0.5293067442
O   O18       1.0  0.90424  0.93084  0.66776  1.0000 -0.5578375436
O   O19       1.0  0.83514  0.83494  0.57206  1.0000 -0.5578375436
O   O20       1.0  0.91889  0.82189  0.42251  1.0000 -0.5293067442
O   O21       1.0  0.75284  0.58224  0.31916  1.0000 -0.5578375436
O   O22       1.0  0.83494  0.83514  0.75786  1.0000 -0.5578375436
O   O23       1.0  0.82189  0.91889  0.83671  1.0000 -0.5293067442
O   O24       1.0  0.58224  0.75284  0.34576  1.0000 -0.5578375436
