# DDEC6 charges by PACMAN v1.1 (https://github.com/mtap-research/PACMAN-charge/)
data_2018[Cd][nan]3[ASR]15
_chemical_formula_sum              "Cd3 H14 C30 O14"
_cell_length_a       13.1441
_cell_length_b       13.1441
_cell_length_c       11.838
_cell_angle_alpha    70.9076
_cell_angle_beta     109.092
_cell_angle_gamma    150.897

_symmetry_space_group_name_H-M    "P 1"
_symmetry_Int_Tables_number       1

loop_
  _symmetry_equiv_pos_as_xyz
  'x, y, z'

loop_
  _atom_site_type_symbol
  _atom_site_label
  _atom_site_symmetry_multiplicity
  _atom_site_fract_x
  _atom_site_fract_y
  _atom_site_fract_z
  _atom_site_occupancy
  _atom_site_charge
Cd  Cd1       1.0  0.50000  0.50000  0.00000  1.0000 1.0126744331
Cd  Cd2       1.0  0.10884  0.89116  0.19708  1.0000 1.0385562004
Cd  Cd3       1.0  0.89116  0.10884  0.80292  1.0000 1.0385562004
H   H1        1.0  0.71020  0.88640  0.47870  1.0000 0.1437628539
H   H2        1.0  0.73750  0.86330  0.30980  1.0000 0.1209250809
H   H3        1.0  0.88640  0.71020  0.52130  1.0000 0.1437628539
H   H4        1.0  0.86330  0.73750  0.69020  1.0000 0.1209250809
H   H5        1.0  0.28980  0.11360  0.52130  1.0000 0.1437628539
H   H6        1.0  0.26250  0.13670  0.69020  1.0000 0.1209250809
H   H7        1.0  0.11360  0.28980  0.47870  1.0000 0.1437628539
H   H8        1.0  0.13670  0.26250  0.30980  1.0000 0.1209250809
H   H9        1.0  0.28450  0.71550  0.79630  1.0000 0.1209250809
H   H10       1.0  0.20650  0.79350  0.62400  1.0000 0.125230533
H   H11       1.0  0.30430  0.69570  0.42190  1.0000 0.1458454252
H   H12       1.0  0.71550  0.28450  0.20370  1.0000 0.1209250809
H   H13       1.0  0.79350  0.20650  0.37600  1.0000 0.125230533
H   H14       1.0  0.69570  0.30430  0.57810  1.0000 0.1458454252
C   C1        1.0  0.59440  0.75940  0.44470  1.0000 -0.1970915555
C   C2        1.0  0.60980  0.74540  0.34340  1.0000 -0.0878343536
C   C3        1.0  0.75940  0.59440  0.55530  1.0000 -0.1970915555
C   C4        1.0  0.74540  0.60980  0.65660  1.0000 -0.0878343536
C   C5        1.0  0.40560  0.24060  0.55530  1.0000 -0.1970915555
C   C6        1.0  0.39020  0.25460  0.65660  1.0000 -0.0878343536
C   C7        1.0  0.24060  0.40560  0.44470  1.0000 -0.1970915555
C   C8        1.0  0.25460  0.39020  0.34340  1.0000 -0.0878343536
C   C9        1.0  0.39344  0.60656  0.81770  1.0000 0.6054428936
C   C10       1.0  0.34119  0.65881  0.71130  1.0000 -0.1550902753
C   C11       1.0  0.28861  0.71139  0.72120  1.0000 -0.0995257712
C   C12       1.0  0.24199  0.75801  0.61790  1.0000 -0.1122102394
C   C13       1.0  0.24772  0.75228  0.50670  1.0000 0.0033591454
C   C14       1.0  0.19696  0.80304  0.39520  1.0000 0.5292239607
C   C15       1.0  0.30012  0.69988  0.49700  1.0000 -0.207275319
C   C16       1.0  0.34618  0.65382  0.59990  1.0000 0.2141761602
C   C17       1.0  0.41138  0.58862  0.49450  1.0000 0.2197252632
C   C18       1.0  0.43970  0.56030  0.29080  1.0000 -0.027728635
C   C19       1.0  0.45636  0.54364  0.18220  1.0000 0.5461589516
C   C20       1.0  0.60656  0.39344  0.18230  1.0000 0.6054428936
C   C21       1.0  0.65881  0.34119  0.28870  1.0000 -0.1550902753
C   C22       1.0  0.71139  0.28861  0.27880  1.0000 -0.0995257712
C   C23       1.0  0.75801  0.24199  0.38210  1.0000 -0.1122102394
C   C24       1.0  0.75228  0.24772  0.49330  1.0000 0.0033591454
C   C25       1.0  0.80304  0.19696  0.60480  1.0000 0.5292239607
C   C26       1.0  0.69988  0.30012  0.50300  1.0000 -0.207275319
C   C27       1.0  0.65382  0.34618  0.40010  1.0000 0.2141761602
C   C28       1.0  0.58862  0.41138  0.50550  1.0000 0.2197252632
C   C29       1.0  0.56030  0.43970  0.70920  1.0000 -0.027728635
C   C30       1.0  0.54364  0.45636  0.81780  1.0000 0.5461589516
O   O1        1.0  0.25081  0.41939  0.86097  1.0000 -0.542135167
O   O2        1.0  0.29907  0.37153  0.13740  1.0000 -0.542135167
O   O3        1.0  0.41939  0.25081  0.13903  1.0000 -0.542135167
O   O4        1.0  0.37153  0.29907  0.86260  1.0000 -0.542135167
O   O5        1.0  0.74919  0.58061  0.13903  1.0000 -0.542135167
O   O6        1.0  0.70093  0.62847  0.86260  1.0000 -0.542135167
O   O7        1.0  0.58061  0.74919  0.86097  1.0000 -0.542135167
O   O8        1.0  0.62847  0.70093  0.13740  1.0000 -0.542135167
O   O9        1.0  0.40105  0.59895  0.60250  1.0000 -0.1970915555
O   O10       1.0  0.20348  0.79652  0.29340  1.0000 -0.5257656156
O   O11       1.0  0.14992  0.85008  0.40350  1.0000 -0.5224957047
O   O12       1.0  0.59895  0.40105  0.39750  1.0000 -0.1946537523
O   O13       1.0  0.79652  0.20348  0.70660  1.0000 -0.5257656156
O   O14       1.0  0.85008  0.14992  0.59650  1.0000 -0.5224957047
