# DDEC6 charges by PACMAN v1.1 (https://github.com/mtap-research/PACMAN-charge/)
data_2018[Zn][pcu]3[ASR]19
_chemical_formula_sum              "Zn16 H96 C168 O52"
_cell_length_a       22.0643
_cell_length_b       17.1852
_cell_length_c       33.9663
_cell_angle_alpha    90
_cell_angle_beta     129.758
_cell_angle_gamma    90

_symmetry_space_group_name_H-M    "P 1"
_symmetry_Int_Tables_number       1

loop_
  _symmetry_equiv_pos_as_xyz
  'x, y, z'

loop_
  _atom_site_type_symbol
  _atom_site_label
  _atom_site_symmetry_multiplicity
  _atom_site_fract_x
  _atom_site_fract_y
  _atom_site_fract_z
  _atom_site_occupancy
  _atom_site_charge
Zn  Zn1       1.0  0.91160  0.77524  0.48252  1.0000 0.9381766722
Zn  Zn2       1.0  0.76501  0.76438  0.47776  1.0000 0.9381766722
Zn  Zn3       1.0  0.90103  0.63823  0.54001  1.0000 0.9527168676
Zn  Zn4       1.0  0.77650  0.64220  0.41493  1.0000 0.9808266566
Zn  Zn5       1.0  0.91160  0.72476  0.98252  1.0000 0.9381766722
Zn  Zn6       1.0  0.76501  0.73562  0.97776  1.0000 0.9381766722
Zn  Zn7       1.0  0.90103  0.86177  0.04001  1.0000 0.9527168676
Zn  Zn8       1.0  0.77650  0.85780  0.91493  1.0000 0.9808266566
Zn  Zn9       1.0  0.08840  0.27524  0.01748  1.0000 0.9381766722
Zn  Zn10      1.0  0.23499  0.26438  0.02224  1.0000 0.9381766722
Zn  Zn11      1.0  0.09897  0.13823  0.95999  1.0000 0.9527168676
Zn  Zn12      1.0  0.22350  0.14220  0.08507  1.0000 0.9808266566
Zn  Zn13      1.0  0.08840  0.22476  0.51748  1.0000 0.9381766722
Zn  Zn14      1.0  0.23499  0.23562  0.52224  1.0000 0.9381766722
Zn  Zn15      1.0  0.09897  0.36177  0.45999  1.0000 0.9527168676
Zn  Zn16      1.0  0.22350  0.35780  0.58507  1.0000 0.9808266566
H   H1        1.0  0.70670  0.14530  0.44200  1.0000 0.1214278348
H   H2        1.0  0.71050  0.00920  0.44340  1.0000 0.1214278348
H   H3        1.0  0.94360  0.01560  0.51430  1.0000 0.1214278348
H   H4        1.0  0.93980  0.15170  0.51280  1.0000 0.1277097549
H   H5        1.0  0.92660  0.25900  0.55290  1.0000 0.1214278348
H   H6        1.0  0.92860  0.39510  0.55520  1.0000 0.1214278348
H   H7        1.0  0.72120  0.40070  0.40990  1.0000 0.1214278348
H   H8        1.0  0.71910  0.26460  0.40760  1.0000 0.1115963671
H   H9        1.0  0.40300  0.82040  0.71510  1.0000 0.1115963671
H   H10       1.0  0.53850  0.83500  0.78230  1.0000 0.1214278348
H   H11       1.0  0.51310  0.74460  0.88120  1.0000 0.1214278348
H   H12       1.0  0.37760  0.73000  0.81400  1.0000 0.1115963671
H   H13       1.0  0.28040  0.84620  0.66780  1.0000 0.1115963671
H   H14       1.0  0.14790  0.82290  0.59760  1.0000 0.1115963671
H   H15       1.0  0.14380  0.64560  0.67460  1.0000 0.1214278348
H   H16       1.0  0.27630  0.66890  0.74480  1.0000 0.1115963671
H   H17       1.0  0.93890  0.66570  0.80060  1.0000 0.1115963671
H   H18       1.0  0.94770  0.67250  0.87290  1.0000 0.1214278348
H   H19       1.0  0.73550  0.78080  0.78870  1.0000 0.1214278348
H   H20       1.0  0.72680  0.77390  0.71640  1.0000 0.1115963671
H   H21       1.0  0.77040  0.81730  0.67300  1.0000 0.1115963671
H   H22       1.0  0.76560  0.81070  0.60220  1.0000 0.1214278348
H   H23       1.0  0.87500  0.60110  0.65100  1.0000 0.1277097549
H   H24       1.0  0.87980  0.60780  0.72180  1.0000 0.1115963671
H   H25       1.0  0.70670  0.35470  0.94200  1.0000 0.1214278348
H   H26       1.0  0.71050  0.49080  0.94340  1.0000 0.1214278348
H   H27       1.0  0.94360  0.48440  0.01430  1.0000 0.1214278348
H   H28       1.0  0.93980  0.34830  0.01280  1.0000 0.1277097549
H   H29       1.0  0.92660  0.24100  0.05290  1.0000 0.1214278348
H   H30       1.0  0.92860  0.10490  0.05520  1.0000 0.1214278348
H   H31       1.0  0.72120  0.09930  0.90990  1.0000 0.1214278348
H   H32       1.0  0.71910  0.23540  0.90760  1.0000 0.1115963671
H   H33       1.0  0.40300  0.67960  0.21510  1.0000 0.1115963671
H   H34       1.0  0.53850  0.66500  0.28230  1.0000 0.1214278348
H   H35       1.0  0.51310  0.75540  0.38120  1.0000 0.1214278348
H   H36       1.0  0.37760  0.77000  0.31400  1.0000 0.1115963671
H   H37       1.0  0.28040  0.65380  0.16780  1.0000 0.1115963671
H   H38       1.0  0.14790  0.67710  0.09760  1.0000 0.1115963671
H   H39       1.0  0.14380  0.85440  0.17460  1.0000 0.1214278348
H   H40       1.0  0.27630  0.83110  0.24480  1.0000 0.1115963671
H   H41       1.0  0.93890  0.83430  0.30060  1.0000 0.1115963671
H   H42       1.0  0.94770  0.82750  0.37290  1.0000 0.1214278348
H   H43       1.0  0.73550  0.71920  0.28870  1.0000 0.1214278348
H   H44       1.0  0.72680  0.72610  0.21640  1.0000 0.1115963671
H   H45       1.0  0.77040  0.68270  0.17300  1.0000 0.1115963671
H   H46       1.0  0.76560  0.68930  0.10220  1.0000 0.1214278348
H   H47       1.0  0.87500  0.89890  0.15100  1.0000 0.1277097549
H   H48       1.0  0.87980  0.89220  0.22180  1.0000 0.1115963671
H   H49       1.0  0.29330  0.64530  0.05800  1.0000 0.1214278348
H   H50       1.0  0.28950  0.50920  0.05660  1.0000 0.1214278348
H   H51       1.0  0.05640  0.51560  0.98570  1.0000 0.1214278348
H   H52       1.0  0.06020  0.65170  0.98720  1.0000 0.1277097549
H   H53       1.0  0.07340  0.75900  0.94710  1.0000 0.1214278348
H   H54       1.0  0.07140  0.89510  0.94480  1.0000 0.1214278348
H   H55       1.0  0.27880  0.90070  0.09010  1.0000 0.1214278348
H   H56       1.0  0.28090  0.76460  0.09240  1.0000 0.1115963671
H   H57       1.0  0.59700  0.32040  0.78490  1.0000 0.1115963671
H   H58       1.0  0.46150  0.33500  0.71770  1.0000 0.1214278348
H   H59       1.0  0.48690  0.24460  0.61880  1.0000 0.1214278348
H   H60       1.0  0.62240  0.23000  0.68600  1.0000 0.1115963671
H   H61       1.0  0.71960  0.34620  0.83220  1.0000 0.1115963671
H   H62       1.0  0.85210  0.32290  0.90240  1.0000 0.1115963671
H   H63       1.0  0.85620  0.14560  0.82540  1.0000 0.1214278348
H   H64       1.0  0.72370  0.16890  0.75520  1.0000 0.1115963671
H   H65       1.0  0.06110  0.16570  0.69940  1.0000 0.1115963671
H   H66       1.0  0.05230  0.17250  0.62710  1.0000 0.1214278348
H   H67       1.0  0.26450  0.28080  0.71130  1.0000 0.1214278348
H   H68       1.0  0.27320  0.27390  0.78360  1.0000 0.1115963671
H   H69       1.0  0.22960  0.31730  0.82700  1.0000 0.1115963671
H   H70       1.0  0.23440  0.31070  0.89780  1.0000 0.1214278348
H   H71       1.0  0.12500  0.10110  0.84900  1.0000 0.1277097549
H   H72       1.0  0.12020  0.10780  0.77820  1.0000 0.1115963671
H   H73       1.0  0.29330  0.85470  0.55800  1.0000 0.1214278348
H   H74       1.0  0.28950  0.99080  0.55660  1.0000 0.1214278348
H   H75       1.0  0.05640  0.98440  0.48570  1.0000 0.1214278348
H   H76       1.0  0.06020  0.84830  0.48720  1.0000 0.1277097549
H   H77       1.0  0.07340  0.74100  0.44710  1.0000 0.1214278348
H   H78       1.0  0.07140  0.60490  0.44480  1.0000 0.1214278348
H   H79       1.0  0.27880  0.59930  0.59010  1.0000 0.1214278348
H   H80       1.0  0.28090  0.73540  0.59240  1.0000 0.1115963671
H   H81       1.0  0.59700  0.17960  0.28490  1.0000 0.1115963671
H   H82       1.0  0.46150  0.16500  0.21770  1.0000 0.1214278348
H   H83       1.0  0.48690  0.25540  0.11880  1.0000 0.1214278348
H   H84       1.0  0.62240  0.27000  0.18600  1.0000 0.1115963671
H   H85       1.0  0.71960  0.15380  0.33220  1.0000 0.1115963671
H   H86       1.0  0.85210  0.17710  0.40240  1.0000 0.1115963671
H   H87       1.0  0.85620  0.35440  0.32540  1.0000 0.1214278348
H   H88       1.0  0.72370  0.33110  0.25520  1.0000 0.1115963671
H   H89       1.0  0.06110  0.33430  0.19940  1.0000 0.1115963671
H   H90       1.0  0.05230  0.32750  0.12710  1.0000 0.1214278348
H   H91       1.0  0.26450  0.21920  0.21130  1.0000 0.1214278348
H   H92       1.0  0.27320  0.22610  0.28360  1.0000 0.1115963671
H   H93       1.0  0.22960  0.18270  0.32700  1.0000 0.1115963671
H   H94       1.0  0.23440  0.18930  0.39780  1.0000 0.1214278348
H   H95       1.0  0.12500  0.39890  0.34900  1.0000 0.1277097549
H   H96       1.0  0.12020  0.39220  0.27820  1.0000 0.1115963671
C   C1        1.0  0.04970  0.71560  0.58360  1.0000 0.59469762
C   C2        1.0  0.82293  0.16129  0.47730  1.0000 0.0802846121
C   C3        1.0  0.75474  0.11890  0.45660  1.0000 -0.1577107001
C   C4        1.0  0.75705  0.03810  0.45750  1.0000 -0.0910692172
C   C5        1.0  0.82742  0.99959  0.47898  1.0000 -0.0317818427
C   C6        1.0  0.89553  0.04193  0.49960  1.0000 -0.0847009838
C   C7        1.0  0.89326  0.12278  0.49874  1.0000 -0.150499821
C   C8        1.0  0.82260  0.24900  0.48000  1.0000 0.0802846121
C   C9        1.0  0.88489  0.28780  0.52389  1.0000 -0.1434207007
C   C10       1.0  0.88618  0.36860  0.52528  1.0000 -0.0910692172
C   C11       1.0  0.82511  0.41071  0.48281  1.0000 -0.0229723218
C   C12       1.0  0.76286  0.37190  0.43896  1.0000 -0.0910692172
C   C13       1.0  0.76167  0.29110  0.43757  1.0000 -0.1577107001
C   C14       1.0  0.62610  0.79850  0.88050  1.0000 0.598674427
C   C15       1.0  0.83130  0.49970  0.48410  1.0000 0.59469762
C   C16       1.0  0.37765  0.77380  0.75827  1.0000 0.0802846121
C   C17       1.0  0.42544  0.80500  0.74884  1.0000 -0.1577107001
C   C18       1.0  0.50585  0.81370  0.78874  1.0000 -0.0910692172
C   C19       1.0  0.53852  0.79110  0.83807  1.0000 -0.0388283539
C   C20       1.0  0.49076  0.76000  0.84750  1.0000 -0.0910692172
C   C21       1.0  0.41032  0.75130  0.80760  1.0000 -0.1577107001
C   C22       1.0  0.84870  0.73110  0.88410  1.0000 0.5689493671
C   C23       1.0  0.29081  0.75980  0.71291  1.0000 0.0802846121
C   C24       1.0  0.25270  0.80550  0.66920  1.0000 -0.1577107001
C   C25       1.0  0.17400  0.79170  0.62750  1.0000 -0.0910692172
C   C26       1.0  0.13341  0.73210  0.62951  1.0000 -0.0388283539
C   C27       1.0  0.17152  0.68640  0.67322  1.0000 -0.0998423004
C   C28       1.0  0.25022  0.70020  0.71492  1.0000 -0.1577107001
C   C29       1.0  0.82140  0.70610  0.57660  1.0000 0.598674427
C   C30       1.0  0.83050  0.91080  0.48030  1.0000 0.598674427
C   C31       1.0  0.83201  0.71910  0.75171  1.0000 0.0802846121
C   C32       1.0  0.89764  0.68900  0.79818  1.0000 -0.1577107001
C   C33       1.0  0.90284  0.69310  0.84113  1.0000 -0.0998423004
C   C34       1.0  0.84242  0.72730  0.83760  1.0000 -0.0317818427
C   C35       1.0  0.77681  0.75740  0.79113  1.0000 -0.0910692172
C   C36       1.0  0.77159  0.75330  0.74819  1.0000 -0.1577107001
C   C37       1.0  0.82554  0.71320  0.70404  1.0000 0.0802846121
C   C38       1.0  0.79163  0.77340  0.66853  1.0000 -0.1577107001
C   C39       1.0  0.78881  0.76950  0.62651  1.0000 -0.0910692172
C   C40       1.0  0.81990  0.70530  0.62000  1.0000 -0.0388283539
C   C41       1.0  0.85380  0.64500  0.65550  1.0000 -0.0910692172
C   C42       1.0  0.85662  0.64900  0.69752  1.0000 -0.1577107001
C   C43       1.0  0.04970  0.78440  0.08360  1.0000 0.59469762
C   C44       1.0  0.82293  0.33871  0.97730  1.0000 0.0802846121
C   C45       1.0  0.75474  0.38110  0.95660  1.0000 -0.1577107001
C   C46       1.0  0.75705  0.46190  0.95750  1.0000 -0.0910692172
C   C47       1.0  0.82742  0.50041  0.97898  1.0000 -0.0317818427
C   C48       1.0  0.89553  0.45807  0.99960  1.0000 -0.0847009838
C   C49       1.0  0.89326  0.37722  0.99874  1.0000 -0.150499821
C   C50       1.0  0.82260  0.25100  0.98000  1.0000 0.0802846121
C   C51       1.0  0.88489  0.21220  0.02389  1.0000 -0.1434207007
C   C52       1.0  0.88618  0.13140  0.02528  1.0000 -0.0910692172
C   C53       1.0  0.82511  0.08929  0.98281  1.0000 -0.0229723218
C   C54       1.0  0.76286  0.12810  0.93896  1.0000 -0.0910692172
C   C55       1.0  0.76167  0.20890  0.93757  1.0000 -0.1577107001
C   C56       1.0  0.62610  0.70150  0.38050  1.0000 0.598674427
C   C57       1.0  0.83130  0.00030  0.98410  1.0000 0.598674427
C   C58       1.0  0.37765  0.72620  0.25827  1.0000 0.0802846121
C   C59       1.0  0.42544  0.69500  0.24884  1.0000 -0.1577107001
C   C60       1.0  0.50585  0.68630  0.28874  1.0000 -0.0910692172
C   C61       1.0  0.53852  0.70890  0.33807  1.0000 -0.0388283539
C   C62       1.0  0.49076  0.74000  0.34750  1.0000 -0.0910692172
C   C63       1.0  0.41032  0.74870  0.30760  1.0000 -0.1577107001
C   C64       1.0  0.84870  0.76890  0.38410  1.0000 0.5689493671
C   C65       1.0  0.29081  0.74020  0.21291  1.0000 0.0802846121
C   C66       1.0  0.25270  0.69450  0.16920  1.0000 -0.1577107001
C   C67       1.0  0.17400  0.70830  0.12750  1.0000 -0.0910692172
C   C68       1.0  0.13341  0.76790  0.12951  1.0000 -0.0388283539
C   C69       1.0  0.17152  0.81360  0.17322  1.0000 -0.0998423004
C   C70       1.0  0.25022  0.79980  0.21492  1.0000 -0.1577107001
C   C71       1.0  0.82140  0.79390  0.07660  1.0000 0.598674427
C   C72       1.0  0.83050  0.58920  0.98030  1.0000 0.598674427
C   C73       1.0  0.83201  0.78090  0.25171  1.0000 0.0802846121
C   C74       1.0  0.89764  0.81100  0.29818  1.0000 -0.1577107001
C   C75       1.0  0.90284  0.80690  0.34113  1.0000 -0.0998423004
C   C76       1.0  0.84242  0.77270  0.33760  1.0000 -0.0317818427
C   C77       1.0  0.77681  0.74260  0.29113  1.0000 -0.0998423004
C   C78       1.0  0.77159  0.74670  0.24819  1.0000 -0.1577107001
C   C79       1.0  0.82554  0.78680  0.20404  1.0000 0.0802846121
C   C80       1.0  0.79163  0.72660  0.16853  1.0000 -0.150499821
C   C81       1.0  0.78881  0.73050  0.12651  1.0000 -0.0910692172
C   C82       1.0  0.81990  0.79470  0.12000  1.0000 -0.0462364674
C   C83       1.0  0.85380  0.85500  0.15550  1.0000 -0.0910692172
C   C84       1.0  0.85662  0.85100  0.19752  1.0000 -0.1577107001
C   C85       1.0  0.95030  0.21560  0.91640  1.0000 0.59469762
C   C86       1.0  0.17707  0.66129  0.02270  1.0000 0.0802846121
C   C87       1.0  0.24526  0.61890  0.04340  1.0000 -0.1577107001
C   C88       1.0  0.24295  0.53810  0.04250  1.0000 -0.0910692172
C   C89       1.0  0.17258  0.49959  0.02102  1.0000 -0.0317818427
C   C90       1.0  0.10447  0.54193  0.00040  1.0000 -0.0847009838
C   C91       1.0  0.10674  0.62278  0.00126  1.0000 -0.150499821
C   C92       1.0  0.17740  0.74900  0.02000  1.0000 0.0802846121
C   C93       1.0  0.11511  0.78780  0.97611  1.0000 -0.1434207007
C   C94       1.0  0.11382  0.86860  0.97472  1.0000 -0.0910692172
C   C95       1.0  0.17489  0.91071  0.01719  1.0000 -0.0229723218
C   C96       1.0  0.23714  0.87190  0.06104  1.0000 -0.0910692172
C   C97       1.0  0.23833  0.79110  0.06243  1.0000 -0.1577107001
C   C98       1.0  0.37390  0.29850  0.61950  1.0000 0.598674427
C   C99       1.0  0.16870  0.99970  0.01590  1.0000 0.59469762
C   C100      1.0  0.62235  0.27380  0.74173  1.0000 0.0802846121
C   C101      1.0  0.57456  0.30500  0.75116  1.0000 -0.1577107001
C   C102      1.0  0.49415  0.31370  0.71126  1.0000 -0.0910692172
C   C103      1.0  0.46148  0.29110  0.66193  1.0000 -0.0388283539
C   C104      1.0  0.50924  0.26000  0.65250  1.0000 -0.0910692172
C   C105      1.0  0.58968  0.25130  0.69240  1.0000 -0.1577107001
C   C106      1.0  0.15130  0.23110  0.61590  1.0000 0.5689493671
C   C107      1.0  0.70919  0.25980  0.78709  1.0000 0.0802846121
C   C108      1.0  0.74730  0.30550  0.83080  1.0000 -0.1577107001
C   C109      1.0  0.82600  0.29170  0.87250  1.0000 -0.0910692172
C   C110      1.0  0.86659  0.23210  0.87049  1.0000 -0.0388283539
C   C111      1.0  0.82848  0.18640  0.82678  1.0000 -0.0998423004
C   C112      1.0  0.74978  0.20020  0.78508  1.0000 -0.1577107001
C   C113      1.0  0.17860  0.20610  0.92340  1.0000 0.598674427
C   C114      1.0  0.16950  0.41080  0.01970  1.0000 0.598674427
C   C115      1.0  0.16799  0.21910  0.74829  1.0000 0.0802846121
C   C116      1.0  0.10236  0.18900  0.70182  1.0000 -0.1577107001
C   C117      1.0  0.09716  0.19310  0.65887  1.0000 -0.0998423004
C   C118      1.0  0.15758  0.22730  0.66240  1.0000 -0.0317818427
C   C119      1.0  0.22319  0.25740  0.70887  1.0000 -0.0910692172
C   C120      1.0  0.22841  0.25330  0.75181  1.0000 -0.1577107001
C   C121      1.0  0.17446  0.21320  0.79596  1.0000 0.0802846121
C   C122      1.0  0.20837  0.27340  0.83147  1.0000 -0.1577107001
C   C123      1.0  0.21119  0.26950  0.87349  1.0000 -0.0910692172
C   C124      1.0  0.18010  0.20530  0.88000  1.0000 -0.0462364674
C   C125      1.0  0.14620  0.14500  0.84450  1.0000 -0.0910692172
C   C126      1.0  0.14338  0.14900  0.80248  1.0000 -0.150499821
C   C127      1.0  0.95030  0.28440  0.41640  1.0000 0.59469762
C   C128      1.0  0.17707  0.83871  0.52270  1.0000 0.0802846121
C   C129      1.0  0.24526  0.88110  0.54340  1.0000 -0.1577107001
C   C130      1.0  0.24295  0.96190  0.54250  1.0000 -0.0910692172
C   C131      1.0  0.17258  0.00041  0.52102  1.0000 -0.0317818427
C   C132      1.0  0.10447  0.95807  0.50040  1.0000 -0.0847009838
C   C133      1.0  0.10674  0.87722  0.50126  1.0000 -0.150499821
C   C134      1.0  0.17740  0.75100  0.52000  1.0000 0.0802846121
C   C135      1.0  0.11511  0.71220  0.47611  1.0000 -0.1434207007
C   C136      1.0  0.11382  0.63140  0.47472  1.0000 -0.0910692172
C   C137      1.0  0.17489  0.58929  0.51719  1.0000 -0.0229723218
C   C138      1.0  0.23714  0.62810  0.56104  1.0000 -0.0910692172
C   C139      1.0  0.23833  0.70890  0.56243  1.0000 -0.1577107001
C   C140      1.0  0.37390  0.20150  0.11950  1.0000 0.605459477
C   C141      1.0  0.16870  0.50030  0.51590  1.0000 0.598674427
C   C142      1.0  0.62235  0.22620  0.24173  1.0000 0.0802846121
C   C143      1.0  0.57456  0.19500  0.25116  1.0000 -0.1577107001
C   C144      1.0  0.49415  0.18630  0.21126  1.0000 -0.0910692172
C   C145      1.0  0.46148  0.20890  0.16193  1.0000 -0.0388283539
C   C146      1.0  0.50924  0.24000  0.15250  1.0000 -0.0910692172
C   C147      1.0  0.58968  0.24870  0.19240  1.0000 -0.1577107001
C   C148      1.0  0.15130  0.26890  0.11590  1.0000 0.5689493671
C   C149      1.0  0.70919  0.24020  0.28709  1.0000 0.0802846121
C   C150      1.0  0.74730  0.19450  0.33080  1.0000 -0.1577107001
C   C151      1.0  0.82600  0.20830  0.37250  1.0000 -0.0910692172
C   C152      1.0  0.86659  0.26790  0.37049  1.0000 -0.0388283539
C   C153      1.0  0.82848  0.31360  0.32678  1.0000 -0.0998423004
C   C154      1.0  0.74978  0.29980  0.28508  1.0000 -0.1577107001
C   C155      1.0  0.17860  0.29390  0.42340  1.0000 0.598674427
C   C156      1.0  0.16950  0.08920  0.51970  1.0000 0.59469762
C   C157      1.0  0.16799  0.28090  0.24829  1.0000 0.0802846121
C   C158      1.0  0.10236  0.31100  0.20182  1.0000 -0.1577107001
C   C159      1.0  0.09716  0.30690  0.15887  1.0000 -0.0998423004
C   C160      1.0  0.15758  0.27270  0.16240  1.0000 -0.0317818427
C   C161      1.0  0.22319  0.24260  0.20887  1.0000 -0.0910692172
C   C162      1.0  0.22841  0.24670  0.25181  1.0000 -0.1577107001
C   C163      1.0  0.17446  0.28680  0.29596  1.0000 0.0802846121
C   C164      1.0  0.20837  0.22660  0.33147  1.0000 -0.150499821
C   C165      1.0  0.21119  0.23050  0.37349  1.0000 -0.0910692172
C   C166      1.0  0.18010  0.29470  0.38000  1.0000 -0.0462364674
C   C167      1.0  0.14620  0.35500  0.34450  1.0000 -0.0910692172
C   C168      1.0  0.14338  0.35100  0.30248  1.0000 -0.1577107001
O   O1        1.0  0.01899  0.75670  0.54471  1.0000 -0.529606913
O   O2        1.0  0.91661  0.72180  0.92763  1.0000 -0.5419809309
O   O3        1.0  0.65631  0.76200  0.92233  1.0000 -0.5471036976
O   O4        1.0  0.78300  0.75450  0.54220  1.0000 -0.5202849701
O   O5        1.0  0.84049  0.70120  0.47900  1.0000 -1.0154100999
O   O6        1.0  0.89011  0.52770  0.52532  1.0000 -0.529606913
O   O7        1.0  0.89182  0.88140  0.49240  1.0000 -0.5419809309
O   O8        1.0  0.77233  0.87630  0.46980  1.0000 -0.5148499951
O   O9        1.0  0.66397  0.83640  0.87107  1.0000 -0.5202849701
O   O10       1.0  0.01300  0.66250  0.58740  1.0000 -0.5419809309
O   O11       1.0  0.77820  0.53590  0.44470  1.0000 -0.5601878062
O   O12       1.0  0.86363  0.65320  0.57853  1.0000 -0.5471036976
O   O13       1.0  0.78762  0.74300  0.87979  1.0000 -0.5847698197
O   O14       1.0  0.01899  0.74330  0.04471  1.0000 -0.529606913
O   O15       1.0  0.91661  0.77820  0.42763  1.0000 -0.5419809309
O   O16       1.0  0.65631  0.73800  0.42233  1.0000 -0.5419809309
O   O17       1.0  0.78300  0.74550  0.04220  1.0000 -0.5202849701
O   O18       1.0  0.84049  0.79880  0.97900  1.0000 -1.0154100999
O   O19       1.0  0.89011  0.97230  0.02532  1.0000 -0.529606913
O   O20       1.0  0.89182  0.61860  0.99240  1.0000 -0.5419809309
O   O21       1.0  0.77233  0.62370  0.96980  1.0000 -0.5202849701
O   O22       1.0  0.66397  0.66360  0.37107  1.0000 -0.5202849701
O   O23       1.0  0.01300  0.83750  0.08740  1.0000 -0.5419809309
O   O24       1.0  0.77820  0.96410  0.94470  1.0000 -0.5601878062
O   O25       1.0  0.86363  0.84680  0.07853  1.0000 -0.5471036976
O   O26       1.0  0.78762  0.75700  0.37979  1.0000 -0.5854394779
O   O27       1.0  0.98101  0.25670  0.95529  1.0000 -0.529606913
O   O28       1.0  0.08339  0.22180  0.57237  1.0000 -0.5419809309
O   O29       1.0  0.34369  0.26200  0.57767  1.0000 -0.5419809309
O   O30       1.0  0.21700  0.25450  0.95780  1.0000 -0.5202849701
O   O31       1.0  0.15951  0.20120  0.02100  1.0000 -1.0154100999
O   O32       1.0  0.10989  0.02770  0.97468  1.0000 -0.529606913
O   O33       1.0  0.10818  0.38140  0.00760  1.0000 -0.5419809309
O   O34       1.0  0.22767  0.37630  0.03020  1.0000 -0.5148499951
O   O35       1.0  0.33603  0.33640  0.62893  1.0000 -0.5202849701
O   O36       1.0  0.98700  0.16250  0.91260  1.0000 -0.5419809309
O   O37       1.0  0.22180  0.03590  0.05530  1.0000 -0.5601878062
O   O38       1.0  0.13637  0.15320  0.92147  1.0000 -0.5471036976
O   O39       1.0  0.21238  0.24300  0.62021  1.0000 -0.5854394779
O   O40       1.0  0.98101  0.24330  0.45529  1.0000 -0.529606913
O   O41       1.0  0.08339  0.27820  0.07237  1.0000 -0.5419809309
O   O42       1.0  0.34369  0.23800  0.07767  1.0000 -0.5471036976
O   O43       1.0  0.21700  0.24550  0.45780  1.0000 -0.5202849701
O   O44       1.0  0.15951  0.29880  0.52100  1.0000 -1.0154100999
O   O45       1.0  0.10989  0.47230  0.47468  1.0000 -0.529606913
O   O46       1.0  0.10818  0.11860  0.50760  1.0000 -0.5419809309
O   O47       1.0  0.22767  0.12370  0.53020  1.0000 -0.5148499951
O   O48       1.0  0.33603  0.16360  0.12893  1.0000 -0.529606913
O   O49       1.0  0.98700  0.33750  0.41260  1.0000 -0.5419809309
O   O50       1.0  0.22180  0.46410  0.55530  1.0000 -0.5601878062
O   O51       1.0  0.13637  0.34680  0.42147  1.0000 -0.5471036976
O   O52       1.0  0.21238  0.25700  0.12021  1.0000 -0.5854394779
