# DDEC6 charges by PACMAN v1.1 (https://github.com/mtap-research/PACMAN-charge/)
data_2018[Gd][nan]3[ASR]2
_chemical_formula_sum              "Gd4 H32 C84 N16 O40"
_cell_length_a       14.925
_cell_length_b       14.925
_cell_length_c       19.0662
_cell_angle_alpha    77.4326
_cell_angle_beta     102.567
_cell_angle_gamma    121.35

_symmetry_space_group_name_H-M    "P 1"
_symmetry_Int_Tables_number       1

loop_
  _symmetry_equiv_pos_as_xyz
  'x, y, z'

loop_
  _atom_site_type_symbol
  _atom_site_label
  _atom_site_symmetry_multiplicity
  _atom_site_fract_x
  _atom_site_fract_y
  _atom_site_fract_z
  _atom_site_occupancy
  _atom_site_charge
Gd  Gd1       1.0  0.02537  0.02783  0.39047  1.0000 2.0931393669
Gd  Gd2       1.0  0.02783  0.02537  0.10953  1.0000 2.0931393669
Gd  Gd3       1.0  0.97463  0.97217  0.60953  1.0000 2.0931393669
Gd  Gd4       1.0  0.97217  0.97463  0.89047  1.0000 2.0931393669
H   H1        1.0  0.00066  0.75910  0.41513  1.0000 0.1497165502
H   H2        1.0  0.89059  0.19493  0.08454  1.0000 0.1405786093
H   H3        1.0  0.92047  0.62507  0.61403  1.0000 0.1405786093
H   H4        1.0  0.89886  0.63848  0.97432  1.0000 0.1497165502
H   H5        1.0  0.99211  0.41995  0.25496  1.0000 0.1236272423
H   H6        1.0  0.98621  0.26133  0.29011  1.0000 0.1312561088
H   H7        1.0  0.00833  0.56983  0.21794  1.0000 0.1236272423
H   H8        1.0  0.01423  0.72859  0.17207  1.0000 0.1405786093
H   H9        1.0  0.75910  0.00066  0.08487  1.0000 0.1497165502
H   H10       1.0  0.19493  0.89059  0.41546  1.0000 0.1405786093
H   H11       1.0  0.62507  0.92047  0.88597  1.0000 0.1405786093
H   H12       1.0  0.63848  0.89886  0.52568  1.0000 0.1497165502
H   H13       1.0  0.41995  0.99211  0.24504  1.0000 0.1236272423
H   H14       1.0  0.26133  0.98621  0.20989  1.0000 0.1312561088
H   H15       1.0  0.56983  0.00833  0.28206  1.0000 0.1236272423
H   H16       1.0  0.72859  0.01423  0.32793  1.0000 0.1405786093
H   H17       1.0  0.99934  0.24090  0.58487  1.0000 0.1497165502
H   H18       1.0  0.10941  0.80507  0.91546  1.0000 0.1405786093
H   H19       1.0  0.07953  0.37493  0.38597  1.0000 0.1405786093
H   H20       1.0  0.10115  0.36153  0.02568  1.0000 0.1497165502
H   H21       1.0  0.00789  0.58005  0.74504  1.0000 0.1236272423
H   H22       1.0  0.01379  0.73867  0.70989  1.0000 0.1312561088
H   H23       1.0  0.99167  0.43017  0.78206  1.0000 0.1236272423
H   H24       1.0  0.98577  0.27141  0.82793  1.0000 0.1405786093
H   H25       1.0  0.24090  0.99934  0.91513  1.0000 0.1497165502
H   H26       1.0  0.80507  0.10941  0.58454  1.0000 0.1405786093
H   H27       1.0  0.37493  0.07953  0.11403  1.0000 0.1405786093
H   H28       1.0  0.36152  0.10114  0.47432  1.0000 0.1497165502
H   H29       1.0  0.58005  0.00789  0.75496  1.0000 0.1236272423
H   H30       1.0  0.73867  0.01379  0.79011  1.0000 0.1312561088
H   H31       1.0  0.43017  0.99167  0.71794  1.0000 0.1236272423
H   H32       1.0  0.27141  0.98577  0.67207  1.0000 0.1405786093
C   C1        1.0  0.99060  0.70540  0.45340  1.0000 -0.1384524774
C   C2        1.0  0.95240  0.80140  0.52560  1.0000 0.6407953665
C   C3        1.0  0.96150  0.70870  0.51620  1.0000 0.0203294658
C   C4        1.0  0.94190  0.11030  0.21370  1.0000 0.6621397377
C   C5        1.0  0.00520  0.62500  0.44610  1.0000 0.0907329048
C   C6        1.0  0.93660  0.21060  0.19150  1.0000 -0.0065803221
C   C7        1.0  0.99210  0.54450  0.50300  1.0000 -0.0989572283
C   C8        1.0  0.90660  0.23740  0.11970  1.0000 -0.1384524774
C   C9        1.0  0.96520  0.80560  0.04050  1.0000 0.6621397377
C   C10       1.0  0.95890  0.54530  0.56520  1.0000 0.0907329048
C   C11       1.0  0.94330  0.62590  0.57210  1.0000 -0.1576044767
C   C12       1.0  0.95390  0.69750  0.06830  1.0000 -0.0065803221
C   C13       1.0  0.91820  0.62460  0.02350  1.0000 -0.1384524774
C   C14       1.0  0.90150  0.32970  0.10210  1.0000 0.0667817757
C   C15       1.0  0.93640  0.40060  0.15320  1.0000 0.002692494
C   C16       1.0  0.96820  0.37360  0.22090  1.0000 -0.0896377659
C   C17       1.0  0.91090  0.52470  0.05350  1.0000 0.0626938359
C   C18       1.0  0.94200  0.50300  0.12750  1.0000 0.002692494
C   C19       1.0  0.96680  0.27960  0.24180  1.0000 -0.0989572283
C   C20       1.0  0.98300  0.58080  0.16960  1.0000 -0.0896377659
C   C21       1.0  0.98790  0.67690  0.14170  1.0000 -0.0812981188
C   C22       1.0  0.70540  0.99060  0.04660  1.0000 -0.1384524774
C   C23       1.0  0.80140  0.95240  0.97440  1.0000 0.6407953665
C   C24       1.0  0.70870  0.96150  0.98380  1.0000 0.0203294658
C   C25       1.0  0.11030  0.94190  0.28630  1.0000 0.6621397377
C   C26       1.0  0.62500  0.00520  0.05390  1.0000 0.0907329048
C   C27       1.0  0.21060  0.93660  0.30850  1.0000 -0.0065803221
C   C28       1.0  0.54450  0.99210  0.99700  1.0000 -0.1053036883
C   C29       1.0  0.23740  0.90660  0.38030  1.0000 -0.1384524774
C   C30       1.0  0.80560  0.96520  0.45950  1.0000 0.6621397377
C   C31       1.0  0.54530  0.95890  0.93480  1.0000 0.0907329048
C   C32       1.0  0.62590  0.94330  0.92790  1.0000 -0.1576044767
C   C33       1.0  0.69750  0.95390  0.43170  1.0000 -0.0065803221
C   C34       1.0  0.62460  0.91820  0.47650  1.0000 -0.1384524774
C   C35       1.0  0.32970  0.90150  0.39790  1.0000 0.0667817757
C   C36       1.0  0.40060  0.93640  0.34680  1.0000 0.002692494
C   C37       1.0  0.37360  0.96820  0.27910  1.0000 -0.0896377659
C   C38       1.0  0.52470  0.91090  0.44650  1.0000 0.0626938359
C   C39       1.0  0.50300  0.94200  0.37250  1.0000 0.002692494
C   C40       1.0  0.27960  0.96680  0.25820  1.0000 -0.0989572283
C   C41       1.0  0.58080  0.98300  0.33040  1.0000 -0.0896377659
C   C42       1.0  0.67690  0.98790  0.35830  1.0000 -0.0812981188
C   C43       1.0  0.00940  0.29460  0.54660  1.0000 -0.1384524774
C   C44       1.0  0.04760  0.19860  0.47440  1.0000 0.6407953665
C   C45       1.0  0.03850  0.29130  0.48380  1.0000 0.0203294658
C   C46       1.0  0.05810  0.88970  0.78630  1.0000 0.6621397377
C   C47       1.0  0.99480  0.37500  0.55390  1.0000 0.0907329048
C   C48       1.0  0.06340  0.78940  0.80850  1.0000 -0.0065803221
C   C49       1.0  0.00790  0.45550  0.49700  1.0000 -0.0989572283
C   C50       1.0  0.09340  0.76260  0.88030  1.0000 -0.1384524774
C   C51       1.0  0.03480  0.19440  0.95950  1.0000 0.6621397377
C   C52       1.0  0.04110  0.45470  0.43480  1.0000 0.0907329048
C   C53       1.0  0.05670  0.37410  0.42790  1.0000 -0.1576044767
C   C54       1.0  0.04610  0.30250  0.93170  1.0000 -0.0065803221
C   C55       1.0  0.08180  0.37540  0.97650  1.0000 -0.1384524774
C   C56       1.0  0.09850  0.67030  0.89790  1.0000 0.0667817757
C   C57       1.0  0.06360  0.59940  0.84680  1.0000 0.002692494
C   C58       1.0  0.03180  0.62640  0.77910  1.0000 -0.0896377659
C   C59       1.0  0.08910  0.47530  0.94650  1.0000 0.0626938359
C   C60       1.0  0.05800  0.49700  0.87250  1.0000 0.002692494
C   C61       1.0  0.03320  0.72040  0.75820  1.0000 -0.0989572283
C   C62       1.0  0.01700  0.41920  0.83040  1.0000 -0.0896377659
C   C63       1.0  0.01210  0.32310  0.85830  1.0000 -0.0812981188
C   C64       1.0  0.29460  0.00940  0.95340  1.0000 -0.1384524774
C   C65       1.0  0.19860  0.04760  0.02560  1.0000 0.6407953665
C   C66       1.0  0.29130  0.03850  0.01620  1.0000 0.0203294658
C   C67       1.0  0.88970  0.05810  0.71370  1.0000 0.6621397377
C   C68       1.0  0.37500  0.99480  0.94610  1.0000 0.0907329048
C   C69       1.0  0.78940  0.06340  0.69150  1.0000 -0.0065803221
C   C70       1.0  0.45550  0.00790  0.00300  1.0000 -0.0989572283
C   C71       1.0  0.76260  0.09340  0.61970  1.0000 -0.1384524774
C   C72       1.0  0.19440  0.03480  0.54050  1.0000 0.6621397377
C   C73       1.0  0.45470  0.04110  0.06520  1.0000 0.0907329048
C   C74       1.0  0.37410  0.05670  0.07210  1.0000 -0.1576044767
C   C75       1.0  0.30250  0.04610  0.56830  1.0000 -0.0065803221
C   C76       1.0  0.37540  0.08180  0.52350  1.0000 -0.1384524774
C   C77       1.0  0.67030  0.09850  0.60210  1.0000 0.0667817757
C   C78       1.0  0.59940  0.06360  0.65320  1.0000 0.002692494
C   C79       1.0  0.62640  0.03180  0.72090  1.0000 -0.0896377659
C   C80       1.0  0.47530  0.08910  0.55350  1.0000 0.0626938359
C   C81       1.0  0.49700  0.05800  0.62750  1.0000 0.002692494
C   C82       1.0  0.72040  0.03320  0.74180  1.0000 -0.0989572283
C   C83       1.0  0.41920  0.01700  0.66960  1.0000 -0.0896377659
C   C84       1.0  0.32310  0.01210  0.64170  1.0000 -0.0812981188
N   N1        1.0  0.86820  0.35580  0.03240  1.0000 0.232128582
N   N2        1.0  0.87280  0.44940  0.00840  1.0000 0.2536852226
N   N3        1.0  0.02980  0.61280  0.38850  1.0000 0.2231742718
N   N4        1.0  0.94850  0.46790  0.61550  1.0000 0.2012054899
N   N5        1.0  0.35580  0.86820  0.46760  1.0000 0.232128582
N   N6        1.0  0.44940  0.87280  0.49160  1.0000 0.2536852226
N   N7        1.0  0.61280  0.02980  0.11150  1.0000 0.2231742718
N   N8        1.0  0.46790  0.94850  0.88450  1.0000 0.2012054899
N   N9        1.0  0.13180  0.64420  0.96760  1.0000 0.232128582
N   N10       1.0  0.12720  0.55060  0.99160  1.0000 0.2536852226
N   N11       1.0  0.97020  0.38720  0.61150  1.0000 0.2231742718
N   N12       1.0  0.05150  0.53210  0.38450  1.0000 0.2012054899
N   N13       1.0  0.64420  0.13180  0.53240  1.0000 0.235764505
N   N14       1.0  0.55060  0.12720  0.50840  1.0000 0.2536852226
N   N15       1.0  0.38720  0.97020  0.88850  1.0000 0.2231742718
N   N16       1.0  0.53210  0.05150  0.11550  1.0000 0.2012054899
O   O1        1.0  0.99900  0.86800  0.08570  1.0000 -0.6586382224
O   O2        1.0  0.96230  0.08570  0.28030  1.0000 -0.6838980834
O   O3        1.0  0.97190  0.87530  0.47540  1.0000 -0.6838980834
O   O4        1.0  0.92760  0.05860  0.16490  1.0000 -0.6697166546
O   O5        1.0  0.93980  0.82380  0.97300  1.0000 -0.6854439094
O   O6        1.0  0.92930  0.80130  0.58530  1.0000 -0.6353785827
O   O7        1.0  0.82390  0.28610  0.98560  1.0000 -0.4638632073
O   O8        1.0  0.84060  0.46640  0.94120  1.0000 -0.3540460899
O   O9        1.0  0.04560  0.68120  0.33600  1.0000 -0.2722384392
O   O10       1.0  0.90930  0.45690  0.66800  1.0000 -0.2511108725
O   O11       1.0  0.86800  0.99900  0.41430  1.0000 -0.6586382224
O   O12       1.0  0.08570  0.96230  0.21970  1.0000 -0.6854439094
O   O13       1.0  0.87530  0.97190  0.02460  1.0000 -0.6838980834
O   O14       1.0  0.05860  0.92760  0.33510  1.0000 -0.6697166546
O   O15       1.0  0.82380  0.93980  0.52700  1.0000 -0.6854439094
O   O16       1.0  0.80130  0.92930  0.91470  1.0000 -0.6353785827
O   O17       1.0  0.28610  0.82390  0.51440  1.0000 -0.4638632073
O   O18       1.0  0.46640  0.84060  0.55880  1.0000 -0.3540460899
O   O19       1.0  0.68120  0.04560  0.16400  1.0000 -0.2722384392
O   O20       1.0  0.45690  0.90930  0.83200  1.0000 -0.2511108725
O   O21       1.0  0.00100  0.13200  0.91430  1.0000 -0.6586382224
O   O22       1.0  0.03770  0.91430  0.71970  1.0000 -0.6838980834
O   O23       1.0  0.02810  0.12470  0.52460  1.0000 -0.6838980834
O   O24       1.0  0.07240  0.94140  0.83510  1.0000 -0.6697166546
O   O25       1.0  0.06020  0.17620  0.02700  1.0000 -0.6854439094
O   O26       1.0  0.07070  0.19870  0.41470  1.0000 -0.6353785827
O   O27       1.0  0.17610  0.71390  0.01440  1.0000 -0.4638632073
O   O28       1.0  0.15940  0.53360  0.05880  1.0000 -0.3554619982
O   O29       1.0  0.95440  0.31880  0.66400  1.0000 -0.2722384392
O   O30       1.0  0.09070  0.54310  0.33200  1.0000 -0.2511108725
O   O31       1.0  0.13200  0.00100  0.58570  1.0000 -0.6586382224
O   O32       1.0  0.91430  0.03770  0.78030  1.0000 -0.6838980834
O   O33       1.0  0.12470  0.02810  0.97540  1.0000 -0.6838980834
O   O34       1.0  0.94140  0.07240  0.66490  1.0000 -0.6697166546
O   O35       1.0  0.17620  0.06020  0.47300  1.0000 -0.6854439094
O   O36       1.0  0.19870  0.07070  0.08530  1.0000 -0.6346049144
O   O37       1.0  0.71390  0.17610  0.48560  1.0000 -0.465150161
O   O38       1.0  0.53360  0.15940  0.44120  1.0000 -0.3554619982
O   O39       1.0  0.31880  0.95440  0.83600  1.0000 -0.2722384392
O   O40       1.0  0.54310  0.09070  0.16800  1.0000 -0.2511108725
