# DDEC6 charges by PACMAN v1.1 (https://github.com/mtap-research/PACMAN-charge/)
data_2018[Eu][sqc]3[ASR]1
_chemical_formula_sum              "Eu2 H42 C54 N6 O12"
_cell_length_a       9.5206
_cell_length_b       11.8475
_cell_length_c       18.7274
_cell_angle_alpha    102.715
_cell_angle_beta     99.052
_cell_angle_gamma    109.553

_symmetry_space_group_name_H-M    "P 1"
_symmetry_Int_Tables_number       1

loop_
  _symmetry_equiv_pos_as_xyz
  'x, y, z'

loop_
  _atom_site_type_symbol
  _atom_site_label
  _atom_site_symmetry_multiplicity
  _atom_site_fract_x
  _atom_site_fract_y
  _atom_site_fract_z
  _atom_site_occupancy
  _atom_site_charge
Eu  Eu1       1.0  0.73411  0.51290  0.99599  1.0000 2.1508473648
Eu  Eu2       1.0  0.26589  0.48710  0.00401  1.0000 2.1508473648
H   H1        1.0  0.64950  0.01530  0.30810  1.0000 0.0980262256
H   H2        1.0  0.52020  0.86750  0.19340  1.0000 0.1330618007
H   H3        1.0  0.91500  0.84490  0.16370  1.0000 0.138043234
H   H4        1.0  0.04030  0.99470  0.27850  1.0000 0.0980262256
H   H5        1.0  0.96190  0.04900  0.41460  1.0000 0.1084581925
H   H6        1.0  0.03950  0.15580  0.37990  1.0000 0.1084581925
H   H7        1.0  0.89780  0.46850  0.30060  1.0000 0.0980262256
H   H8        1.0  0.77710  0.44880  0.18020  1.0000 0.138043234
H   H9        1.0  0.39260  0.42160  0.24830  1.0000 0.1330618007
H   H10       1.0  0.52650  0.44710  0.36950  1.0000 0.0912569567
H   H11       1.0  0.91280  0.52980  0.43170  1.0000 0.1084581925
H   H12       1.0  0.76250  0.52130  0.45850  1.0000 0.1084581925
H   H13       1.0  0.88390  0.20020  0.62760  1.0000 0.0912569567
H   H14       1.0  0.01950  0.29710  0.75280  1.0000 0.1162794349
H   H15       1.0  0.65800  0.37380  0.79490  1.0000 0.138043234
H   H16       1.0  0.53220  0.28120  0.67050  1.0000 0.0980262256
H   H17       1.0  0.51510  0.17750  0.54970  1.0000 0.1084581925
H   H18       1.0  0.58400  0.07480  0.55150  1.0000 0.1084581925
H   H19       1.0  0.92450  0.31250  0.37090  1.0000 0.1084581925
H   H20       1.0  0.65680  0.36140  0.50920  1.0000 0.1084581925
H   H21       1.0  0.76660  0.06020  0.47940  1.0000 0.1084581925
H   H22       1.0  0.35050  0.98470  0.69190  1.0000 0.0980262256
H   H23       1.0  0.47980  0.13250  0.80660  1.0000 0.1330618007
H   H24       1.0  0.08500  0.15510  0.83630  1.0000 0.138043234
H   H25       1.0  0.95970  0.00530  0.72150  1.0000 0.0980262256
H   H26       1.0  0.03810  0.95100  0.58540  1.0000 0.1084581925
H   H27       1.0  0.96050  0.84420  0.62010  1.0000 0.1084581925
H   H28       1.0  0.10220  0.53150  0.69940  1.0000 0.0980262256
H   H29       1.0  0.22290  0.55120  0.81980  1.0000 0.138043234
H   H30       1.0  0.60740  0.57840  0.75170  1.0000 0.1330618007
H   H31       1.0  0.47350  0.55290  0.63050  1.0000 0.0912569567
H   H32       1.0  0.08720  0.47020  0.56830  1.0000 0.1084581925
H   H33       1.0  0.23750  0.47870  0.54150  1.0000 0.1084581925
H   H34       1.0  0.11610  0.79980  0.37240  1.0000 0.0912569567
H   H35       1.0  0.98050  0.70290  0.24720  1.0000 0.1162794349
H   H36       1.0  0.34200  0.62620  0.20510  1.0000 0.138043234
H   H37       1.0  0.46780  0.71880  0.32950  1.0000 0.0980262256
H   H38       1.0  0.48490  0.82250  0.45030  1.0000 0.1084581925
H   H39       1.0  0.41600  0.92520  0.44850  1.0000 0.1084581925
H   H40       1.0  0.07550  0.68750  0.62910  1.0000 0.1084581925
H   H41       1.0  0.34320  0.63860  0.49080  1.0000 0.1084581925
H   H42       1.0  0.23340  0.93980  0.52060  1.0000 0.1084581925
C   C1        1.0  0.70270  0.97890  0.27930  1.0000 -0.0594121231
C   C2        1.0  0.62570  0.89010  0.21080  1.0000 -0.1724801692
C   C3        1.0  0.70120  0.83410  0.16750  1.0000 0.0128550115
C   C4        1.0  0.85890  0.87680  0.19300  1.0000 -0.1514050508
C   C5        1.0  0.93380  0.96630  0.26170  1.0000 -0.0594121231
C   C6        1.0  0.61810  0.72710  0.09650  1.0000 0.630623628
C   C7        1.0  0.94120  0.09860  0.38250  1.0000 -0.2473972193
C   C8        1.0  0.79550  0.46030  0.28970  1.0000 -0.0437365914
C   C9        1.0  0.72430  0.44940  0.21800  1.0000 -0.158146407
C   C10       1.0  0.57280  0.43940  0.20180  1.0000 0.0287015182
C   C11       1.0  0.49640  0.43390  0.25830  1.0000 -0.1724801692
C   C12       1.0  0.57620  0.44700  0.33050  1.0000 -0.0509304809
C   C13       1.0  0.49840  0.44230  0.12530  1.0000 0.6109815133
C   C14       1.0  0.80490  0.47780  0.42310  1.0000 -0.2473972193
C   C15       1.0  0.83890  0.23580  0.66210  1.0000 -0.0594121231
C   C16       1.0  0.91940  0.29220  0.73700  1.0000 -0.1724801692
C   C17       1.0  0.85000  0.34100  0.78820  1.0000 0.0167968166
C   C18       1.0  0.70500  0.33800  0.76170  1.0000 -0.1514050508
C   C19       1.0  0.63050  0.28330  0.68760  1.0000 -0.0655655819
C   C20       1.0  0.93570  0.40080  0.87040  1.0000 0.6219134522
C   C21       1.0  0.61040  0.16390  0.55920  1.0000 -0.2473972193
C   C22       1.0  0.85730  0.17350  0.41810  1.0000 0.0980262256
C   C23       1.0  0.86670  0.28450  0.40370  1.0000 -0.2418950903
C   C24       1.0  0.79150  0.35560  0.43740  1.0000 0.0980262256
C   C25       1.0  0.70820  0.31480  0.48670  1.0000 -0.2473972193
C   C26       1.0  0.69980  0.20430  0.50320  1.0000 0.0980262256
C   C27       1.0  0.77310  0.13460  0.46880  1.0000 -0.2746062982
C   C28       1.0  0.29730  0.02110  0.72070  1.0000 -0.0594121231
C   C29       1.0  0.37430  0.10990  0.78920  1.0000 -0.1724801692
C   C30       1.0  0.29880  0.16590  0.83250  1.0000 0.0128550115
C   C31       1.0  0.14110  0.12320  0.80700  1.0000 -0.1514050508
C   C32       1.0  0.06620  0.03370  0.73830  1.0000 -0.0594121231
C   C33       1.0  0.38190  0.27290  0.90350  1.0000 0.630623628
C   C34       1.0  0.05880  0.90140  0.61750  1.0000 -0.2473972193
C   C35       1.0  0.20450  0.53970  0.71030  1.0000 -0.0437365914
C   C36       1.0  0.27570  0.55060  0.78200  1.0000 -0.158146407
C   C37       1.0  0.42720  0.56060  0.79820  1.0000 0.0287015182
C   C38       1.0  0.50360  0.56610  0.74170  1.0000 -0.1724801692
C   C39       1.0  0.42380  0.55300  0.66950  1.0000 -0.0509304809
C   C40       1.0  0.50160  0.55770  0.87470  1.0000 0.6109815133
C   C41       1.0  0.19510  0.52220  0.57690  1.0000 -0.2473972193
C   C42       1.0  0.16110  0.76420  0.33790  1.0000 -0.0594121231
C   C43       1.0  0.08060  0.70780  0.26300  1.0000 -0.1724801692
C   C44       1.0  0.15000  0.65900  0.21180  1.0000 0.0167968166
C   C45       1.0  0.29500  0.66200  0.23830  1.0000 -0.1514050508
C   C46       1.0  0.36950  0.71670  0.31240  1.0000 -0.0655655819
C   C47       1.0  0.06430  0.59920  0.12960  1.0000 0.6219134522
C   C48       1.0  0.38960  0.83610  0.44080  1.0000 -0.2473972193
C   C49       1.0  0.14270  0.82650  0.58190  1.0000 0.0980262256
C   C50       1.0  0.13330  0.71550  0.59630  1.0000 -0.2418950903
C   C51       1.0  0.20850  0.64440  0.56260  1.0000 0.0980262256
C   C52       1.0  0.29180  0.68520  0.51330  1.0000 -0.2473972193
C   C53       1.0  0.30020  0.79570  0.49680  1.0000 0.0980262256
C   C54       1.0  0.22690  0.86540  0.53120  1.0000 -0.2746062982
N   N1        1.0  0.85450  0.01270  0.30430  1.0000 0.0912569567
N   N2        1.0  0.72220  0.45930  0.34430  1.0000 0.0832761271
N   N3        1.0  0.69690  0.23210  0.63870  1.0000 0.0675309045
N   N4        1.0  0.14550  0.98730  0.69570  1.0000 0.0912569567
N   N5        1.0  0.27780  0.54070  0.65570  1.0000 0.0832761271
N   N6        1.0  0.30310  0.76790  0.36130  1.0000 0.0675309045
O   O1        1.0  0.69860  0.69660  0.05570  1.0000 -0.6694025802
O   O2        1.0  0.47340  0.67560  0.08580  1.0000 -0.6911238091
O   O3        1.0  0.57780  0.45900  0.07930  1.0000 -0.7071125018
O   O4        1.0  0.36210  0.43500  0.11490  1.0000 -0.652693938
O   O5        1.0  0.06720  0.40000  0.88828  1.0000 -0.6911238091
O   O6        1.0  0.86740  0.44210  0.91460  1.0000 -0.7217243122
O   O7        1.0  0.30140  0.30340  0.94430  1.0000 -0.6694025802
O   O8        1.0  0.52660  0.32440  0.91420  1.0000 -0.6911238091
O   O9        1.0  0.42220  0.54100  0.92070  1.0000 -0.7071125018
O   O10       1.0  0.63790  0.56500  0.88510  1.0000 -0.652693938
O   O11       1.0  0.93280  0.60000  0.11172  1.0000 -0.6911238091
O   O12       1.0  0.13260  0.55790  0.08540  1.0000 -0.7217243122
