# DDEC6 charges by PACMAN v1.1 (https://github.com/mtap-research/PACMAN-charge/)
data_2018[Co][kgd]2[ASR]2
_chemical_formula_sum              "Co8 H56 C96 O44"
_cell_length_a       10.9336
_cell_length_b       10.9336
_cell_length_c       29.598
_cell_angle_alpha    89.5737
_cell_angle_beta     90.4263
_cell_angle_gamma    118.924

_symmetry_space_group_name_H-M    "P 1"
_symmetry_Int_Tables_number       1

loop_
  _symmetry_equiv_pos_as_xyz
  'x, y, z'

loop_
  _atom_site_type_symbol
  _atom_site_label
  _atom_site_symmetry_multiplicity
  _atom_site_fract_x
  _atom_site_fract_y
  _atom_site_fract_z
  _atom_site_occupancy
  _atom_site_charge
Co  Co1       1.0  0.12647  0.07787  0.35412  1.0000 1.1409536546
Co  Co2       1.0  0.07787  0.12647  0.14588  1.0000 1.1409536546
Co  Co3       1.0  0.95791  0.95791  0.25000  1.0000 1.1904656833
Co  Co4       1.0  0.24483  0.24483  0.25000  1.0000 1.1409536546
Co  Co5       1.0  0.87353  0.92213  0.64588  1.0000 1.1409536546
Co  Co6       1.0  0.92213  0.87353  0.85412  1.0000 1.1409536546
Co  Co7       1.0  0.04209  0.04209  0.75000  1.0000 1.1904656833
Co  Co8       1.0  0.75517  0.75517  0.75000  1.0000 1.133471126
H   H1        1.0  0.57450  0.63210  0.19440  1.0000 0.13915378
H   H2        1.0  0.37360  0.47080  0.07720  1.0000 0.13915378
H   H3        1.0  0.70410  0.85590  0.07950  1.0000 0.1304847056
H   H4        1.0  0.66450  0.82190  0.99180  1.0000 0.1184513292
H   H5        1.0  0.59610  0.87950  0.02620  1.0000 0.0998868367
H   H6        1.0  0.60010  0.80430  0.91560  1.0000 0.13915378
H   H7        1.0  0.47720  0.83820  0.85770  1.0000 0.1304847056
H   H8        1.0  0.28180  0.86000  0.87340  1.0000 0.1304847056
H   H9        1.0  0.21100  0.84780  0.94710  1.0000 0.13915378
H   H10       1.0  0.40530  0.89290  0.04250  1.0000 0.0998868367
H   H11       1.0  0.26370  0.87890  0.02420  1.0000 0.105591478
H   H12       1.0  0.14040  0.47840  0.08620  1.0000 0.13915378
H   H13       1.0  0.01980  0.60160  0.19650  1.0000 0.1304847056
H   H14       1.0  0.23020  0.87900  0.09810  1.0000 0.1304847056
H   H15       1.0  0.63210  0.57450  0.30560  1.0000 0.13915378
H   H16       1.0  0.47080  0.37360  0.42280  1.0000 0.13915378
H   H17       1.0  0.85590  0.70410  0.42050  1.0000 0.1304847056
H   H18       1.0  0.82190  0.66450  0.50820  1.0000 0.1184513292
H   H19       1.0  0.87950  0.59610  0.47380  1.0000 0.0998868367
H   H20       1.0  0.80430  0.60010  0.58440  1.0000 0.13915378
H   H21       1.0  0.83820  0.47720  0.64230  1.0000 0.1304847056
H   H22       1.0  0.86000  0.28180  0.62660  1.0000 0.1304847056
H   H23       1.0  0.84780  0.21100  0.55290  1.0000 0.13915378
H   H24       1.0  0.89290  0.40530  0.45750  1.0000 0.0998868367
H   H25       1.0  0.87890  0.26370  0.47580  1.0000 0.105591478
H   H26       1.0  0.47840  0.14040  0.41380  1.0000 0.13915378
H   H27       1.0  0.60160  0.01980  0.30350  1.0000 0.1304847056
H   H28       1.0  0.87900  0.23020  0.40190  1.0000 0.1304847056
H   H29       1.0  0.42550  0.36790  0.80560  1.0000 0.13915378
H   H30       1.0  0.62640  0.52920  0.92280  1.0000 0.13915378
H   H31       1.0  0.29590  0.14410  0.92050  1.0000 0.1304847056
H   H32       1.0  0.33550  0.17810  0.00820  1.0000 0.1184513292
H   H33       1.0  0.40390  0.12050  0.97380  1.0000 0.0998868367
H   H34       1.0  0.39990  0.19570  0.08440  1.0000 0.13915378
H   H35       1.0  0.52280  0.16180  0.14230  1.0000 0.1304847056
H   H36       1.0  0.71820  0.14000  0.12660  1.0000 0.13915378
H   H37       1.0  0.78900  0.15220  0.05290  1.0000 0.13915378
H   H38       1.0  0.59470  0.10710  0.95750  1.0000 0.0998868367
H   H39       1.0  0.73630  0.12110  0.97580  1.0000 0.105591478
H   H40       1.0  0.85960  0.52160  0.91380  1.0000 0.13915378
H   H41       1.0  0.98020  0.39840  0.80350  1.0000 0.1304847056
H   H42       1.0  0.76980  0.12100  0.90190  1.0000 0.1304847056
H   H43       1.0  0.36790  0.42550  0.69440  1.0000 0.13915378
H   H44       1.0  0.52920  0.62640  0.57720  1.0000 0.13915378
H   H45       1.0  0.14410  0.29590  0.57950  1.0000 0.1304847056
H   H46       1.0  0.17810  0.33550  0.49180  1.0000 0.1184513292
H   H47       1.0  0.12050  0.40390  0.52620  1.0000 0.0998868367
H   H48       1.0  0.19570  0.39990  0.41560  1.0000 0.13915378
H   H49       1.0  0.16180  0.52280  0.35770  1.0000 0.1304847056
H   H50       1.0  0.14000  0.71820  0.37340  1.0000 0.13915378
H   H51       1.0  0.15220  0.78900  0.44710  1.0000 0.13915378
H   H52       1.0  0.10710  0.59470  0.54250  1.0000 0.0998868367
H   H53       1.0  0.12110  0.73630  0.52420  1.0000 0.105591478
H   H54       1.0  0.52160  0.85960  0.58620  1.0000 0.13915378
H   H55       1.0  0.39840  0.98020  0.69650  1.0000 0.1304847056
H   H56       1.0  0.12100  0.76980  0.59810  1.0000 0.1304847056
C   C1        1.0  0.78475  0.87365  0.16482  1.0000 0.5884571916
C   C2        1.0  0.65946  0.76034  0.14073  1.0000 0.0195852365
C   C3        1.0  0.56513  0.64027  0.16342  1.0000 -0.1096141765
C   C4        1.0  0.45612  0.53168  0.13970  1.0000 0.0083732635
C   C5        1.0  0.35121  0.40239  0.16388  1.0000 0.5884571916
C   C6        1.0  0.44302  0.54478  0.09331  1.0000 -0.2133378738
C   C7        1.0  0.53252  0.66708  0.07109  1.0000 0.2568678653
C   C8        1.0  0.64224  0.77456  0.09461  1.0000 -0.2470320517
C   C9        1.0  0.57640  0.80680  0.00425  1.0000 -0.0771376151
C   C10       1.0  0.48517  0.81443  0.96685  1.0000 0.0311035168
C   C11       1.0  0.52327  0.81593  0.92223  1.0000 -0.1375609932
C   C12       1.0  0.44870  0.83450  0.88746  1.0000 -0.0728368664
C   C13       1.0  0.33230  0.84770  0.89673  1.0000 -0.0620336065
C   C14       1.0  0.29146  0.84214  0.94096  1.0000 -0.1530376727
C   C15       1.0  0.36698  0.82842  0.97645  1.0000 0.0380499961
C   C16       1.0  0.32340  0.83620  0.02419  1.0000 -0.0771376151
C   C17       1.0  0.19386  0.68294  0.08433  1.0000 0.2568678653
C   C18       1.0  0.13601  0.54839  0.10254  1.0000 -0.2032210918
C   C19       1.0  0.07271  0.51729  0.14407  1.0000 0.0045569579
C   C20       1.0  0.01826  0.37234  0.16222  1.0000 0.5621815568
C   C21       1.0  0.06350  0.62190  0.16845  1.0000 -0.102517124
C   C22       1.0  0.12007  0.75633  0.15055  1.0000 0.0195852365
C   C23       1.0  0.18828  0.78792  0.10915  1.0000 -0.2420945594
C   C24       1.0  0.10508  0.87032  0.17447  1.0000 0.5884571916
C   C25       1.0  0.87365  0.78475  0.33518  1.0000 0.5884571916
C   C26       1.0  0.76034  0.65946  0.35927  1.0000 0.0195852365
C   C27       1.0  0.64027  0.56513  0.33658  1.0000 -0.1096141765
C   C28       1.0  0.53168  0.45612  0.36030  1.0000 0.0083732635
C   C29       1.0  0.40239  0.35121  0.33612  1.0000 0.5884571916
C   C30       1.0  0.54478  0.44302  0.40669  1.0000 -0.2133378738
C   C31       1.0  0.66708  0.53252  0.42891  1.0000 0.2568678653
C   C32       1.0  0.77456  0.64224  0.40539  1.0000 -0.2470320517
C   C33       1.0  0.80680  0.57640  0.49575  1.0000 -0.0728368664
C   C34       1.0  0.81443  0.48517  0.53315  1.0000 0.0311035168
C   C35       1.0  0.81593  0.52327  0.57777  1.0000 -0.1375609932
C   C36       1.0  0.83450  0.44870  0.61254  1.0000 -0.0728368664
C   C37       1.0  0.84770  0.33230  0.60327  1.0000 -0.0620336065
C   C38       1.0  0.84214  0.29146  0.55904  1.0000 -0.1530376727
C   C39       1.0  0.82842  0.36698  0.52355  1.0000 0.0380499961
C   C40       1.0  0.83620  0.32340  0.47581  1.0000 -0.0771376151
C   C41       1.0  0.68294  0.19386  0.41567  1.0000 0.2568678653
C   C42       1.0  0.54839  0.13601  0.39746  1.0000 -0.2032210918
C   C43       1.0  0.51729  0.07271  0.35593  1.0000 0.0045569579
C   C44       1.0  0.37234  0.01826  0.33778  1.0000 0.5621815568
C   C45       1.0  0.62190  0.06350  0.33155  1.0000 -0.102517124
C   C46       1.0  0.75633  0.12007  0.34945  1.0000 0.0311035168
C   C47       1.0  0.78792  0.18828  0.39085  1.0000 -0.2420945594
C   C48       1.0  0.87032  0.10508  0.32553  1.0000 0.5884571916
C   C49       1.0  0.21525  0.12635  0.83518  1.0000 0.5884571916
C   C50       1.0  0.34054  0.23966  0.85927  1.0000 0.0195852365
C   C51       1.0  0.43487  0.35973  0.83658  1.0000 -0.1096141765
C   C52       1.0  0.54388  0.46832  0.86030  1.0000 0.0083732635
C   C53       1.0  0.64879  0.59761  0.83612  1.0000 0.5884571916
C   C54       1.0  0.55698  0.45522  0.90669  1.0000 -0.2133378738
C   C55       1.0  0.46748  0.33292  0.92891  1.0000 0.2568678653
C   C56       1.0  0.35776  0.22544  0.90539  1.0000 -0.2470320517
C   C57       1.0  0.42360  0.19320  0.99575  1.0000 -0.0771376151
C   C58       1.0  0.51483  0.18557  0.03315  1.0000 0.0311035168
C   C59       1.0  0.47673  0.18407  0.07777  1.0000 -0.1375609932
C   C60       1.0  0.55130  0.16550  0.11254  1.0000 -0.0728368664
C   C61       1.0  0.66770  0.15230  0.10327  1.0000 -0.0620336065
C   C62       1.0  0.70854  0.15786  0.05904  1.0000 -0.1530376727
C   C63       1.0  0.63302  0.17158  0.02355  1.0000 0.0380499961
C   C64       1.0  0.67660  0.16380  0.97581  1.0000 -0.0771376151
C   C65       1.0  0.80614  0.31706  0.91567  1.0000 0.2568678653
C   C66       1.0  0.86399  0.45161  0.89746  1.0000 -0.2032210918
C   C67       1.0  0.92729  0.48271  0.85593  1.0000 0.0045569579
C   C68       1.0  0.98174  0.62766  0.83778  1.0000 0.5621815568
C   C69       1.0  0.93650  0.37810  0.83155  1.0000 -0.102517124
C   C70       1.0  0.87993  0.24367  0.84945  1.0000 0.0311035168
C   C71       1.0  0.81172  0.21208  0.89085  1.0000 -0.2420945594
C   C72       1.0  0.89492  0.12968  0.82553  1.0000 0.5884571916
C   C73       1.0  0.12635  0.21525  0.66482  1.0000 0.5884571916
C   C74       1.0  0.23966  0.34054  0.64073  1.0000 0.0195852365
C   C75       1.0  0.35973  0.43487  0.66342  1.0000 -0.1096141765
C   C76       1.0  0.46832  0.54388  0.63970  1.0000 0.0083732635
C   C77       1.0  0.59761  0.64879  0.66388  1.0000 0.5884571916
C   C78       1.0  0.45522  0.55698  0.59331  1.0000 -0.2133378738
C   C79       1.0  0.33292  0.46748  0.57109  1.0000 0.2568678653
C   C80       1.0  0.22544  0.35776  0.59461  1.0000 -0.2470320517
C   C81       1.0  0.19320  0.42360  0.50425  1.0000 -0.0771376151
C   C82       1.0  0.18557  0.51483  0.46685  1.0000 0.0311035168
C   C83       1.0  0.18407  0.47673  0.42223  1.0000 -0.1375609932
C   C84       1.0  0.16550  0.55130  0.38746  1.0000 -0.0728368664
C   C85       1.0  0.15230  0.66770  0.39673  1.0000 -0.0620336065
C   C86       1.0  0.15786  0.70854  0.44096  1.0000 -0.1530376727
C   C87       1.0  0.17158  0.63302  0.47645  1.0000 0.0380499961
C   C88       1.0  0.16380  0.67660  0.52419  1.0000 -0.0771376151
C   C89       1.0  0.31706  0.80614  0.58433  1.0000 0.2568678653
C   C90       1.0  0.45161  0.86399  0.60254  1.0000 -0.2032210918
C   C91       1.0  0.48271  0.92729  0.64407  1.0000 0.0045569579
C   C92       1.0  0.62766  0.98174  0.66222  1.0000 0.5621815568
C   C93       1.0  0.37810  0.93650  0.66845  1.0000 -0.102517124
C   C94       1.0  0.24367  0.87993  0.65055  1.0000 0.0195852365
C   C95       1.0  0.21208  0.81172  0.60915  1.0000 -0.2420945594
C   C96       1.0  0.12968  0.89492  0.67447  1.0000 0.5884571916
O   O1        1.0  0.25017  0.69863  0.04249  1.0000 -0.1375609932
O   O2        1.0  0.01545  0.28175  0.13549  1.0000 -0.5693844263
O   O3        1.0  0.97883  0.34917  0.20314  1.0000 -0.4381441379
O   O4        1.0  0.16107  0.98829  0.15490  1.0000 -0.5693844263
O   O5        1.0  0.04086  0.84174  0.21118  1.0000 -0.495639948
O   O6        1.0  0.14191  0.06185  0.28692  1.0000 -0.8193144405
O   O7        1.0  0.50700  0.67240  0.02604  1.0000 -0.1530376727
O   O8        1.0  0.28493  0.29305  0.14154  1.0000 -0.5693844263
O   O9        1.0  0.33685  0.41515  0.20609  1.0000 -0.5400537307
O   O10       1.0  0.78490  0.86958  0.20750  1.0000 -0.5072948092
O   O11       1.0  0.87882  0.96054  0.13989  1.0000 -0.5537532771
O   O12       1.0  0.69863  0.25017  0.45751  1.0000 -0.1375609932
O   O13       1.0  0.28175  0.01545  0.36451  1.0000 -0.5693844263
O   O14       1.0  0.34917  0.97883  0.29686  1.0000 -0.4381441379
O   O15       1.0  0.98829  0.16107  0.34510  1.0000 -0.5693844263
O   O16       1.0  0.84174  0.04086  0.28882  1.0000 -0.495639948
O   O17       1.0  0.06185  0.14191  0.21308  1.0000 -0.8193144405
O   O18       1.0  0.67240  0.50700  0.47396  1.0000 -0.1530376727
O   O19       1.0  0.29305  0.28493  0.35846  1.0000 -0.5693844263
O   O20       1.0  0.41515  0.33685  0.29391  1.0000 -0.5400537307
O   O21       1.0  0.86958  0.78490  0.29250  1.0000 -0.5072948092
O   O22       1.0  0.96054  0.87882  0.36011  1.0000 -0.5537532771
O   O23       1.0  0.74983  0.30137  0.95751  1.0000 -0.1375609932
O   O24       1.0  0.98455  0.71825  0.86451  1.0000 -0.5693844263
O   O25       1.0  0.02117  0.65083  0.79686  1.0000 -0.4381441379
O   O26       1.0  0.83893  0.01171  0.84510  1.0000 -0.5693844263
O   O27       1.0  0.95914  0.15826  0.78882  1.0000 -0.495639948
O   O28       1.0  0.85809  0.93815  0.71308  1.0000 -0.8193144405
O   O29       1.0  0.49300  0.32760  0.97396  1.0000 -0.1530376727
O   O30       1.0  0.71507  0.70695  0.85846  1.0000 -0.5693844263
O   O31       1.0  0.66315  0.58485  0.79391  1.0000 -0.5400537307
O   O32       1.0  0.21510  0.13042  0.79250  1.0000 -0.5072948092
O   O33       1.0  0.12118  0.03946  0.86011  1.0000 -0.5537532771
O   O34       1.0  0.30137  0.74983  0.54249  1.0000 -0.1375609932
O   O35       1.0  0.71825  0.98455  0.63549  1.0000 -0.5693844263
O   O36       1.0  0.65083  0.02117  0.70314  1.0000 -0.4381441379
O   O37       1.0  0.01171  0.83893  0.65490  1.0000 -0.5693844263
O   O38       1.0  0.15826  0.95914  0.71118  1.0000 -0.495639948
O   O39       1.0  0.93815  0.85809  0.78692  1.0000 -0.8193144405
O   O40       1.0  0.32760  0.49300  0.52604  1.0000 -0.1530376727
O   O41       1.0  0.70695  0.71507  0.64154  1.0000 -0.5693844263
O   O42       1.0  0.58485  0.66315  0.70609  1.0000 -0.5400537307
O   O43       1.0  0.13042  0.21510  0.70750  1.0000 -0.5072948092
O   O44       1.0  0.03946  0.12118  0.63989  1.0000 -0.5537532771
