# DDEC6 charges by PACMAN v1.1 (https://github.com/mtap-research/PACMAN-charge/)
data_2018[Nd][cdz]3[ASR]1
_chemical_formula_sum              "Nd4 H30 C90 N6 O36"
_cell_length_a       10.2605
_cell_length_b       12.9996
_cell_length_c       19.8518
_cell_angle_alpha    88.684
_cell_angle_beta     97.508
_cell_angle_gamma    106.364

_symmetry_space_group_name_H-M    "P 1"
_symmetry_Int_Tables_number       1

loop_
  _symmetry_equiv_pos_as_xyz
  'x, y, z'

loop_
  _atom_site_type_symbol
  _atom_site_label
  _atom_site_symmetry_multiplicity
  _atom_site_fract_x
  _atom_site_fract_y
  _atom_site_fract_z
  _atom_site_occupancy
  _atom_site_charge
Nd  Nd1       1.0  0.71603  0.62082  0.08939  1.0000 2.0132228972
Nd  Nd2       1.0  0.79184  0.12420  0.08910  1.0000 2.0602061393
Nd  Nd3       1.0  0.28397  0.37918  0.91061  1.0000 2.0132228972
Nd  Nd4       1.0  0.20816  0.87580  0.91090  1.0000 2.0602061393
H   H1        1.0  0.86607  0.03525  0.70830  1.0000 0.1403387713
H   H2        1.0  0.77468  0.22344  0.50739  1.0000 0.1222079552
H   H3        1.0  0.25404  0.12191  0.49108  1.0000 0.129503693
H   H4        1.0  0.84264  0.46029  0.94145  1.0000 0.1403387713
H   H5        1.0  0.54957  0.47394  0.78819  1.0000 0.129503693
H   H6        1.0  0.19558  0.26723  0.26030  1.0000 0.1482218819
H   H7        1.0  0.79690  0.57525  0.54049  1.0000 0.1222079552
H   H8        1.0  0.58455  0.26997  0.25526  1.0000 0.1403387713
H   H9        1.0  0.31979  0.15646  0.60783  1.0000 0.129503693
H   H10       1.0  0.30713  0.17773  0.09105  1.0000 0.1403387713
H   H11       1.0  0.71938  0.54714  0.42556  1.0000 0.129503693
H   H12       1.0  0.69477  0.17523  0.39565  1.0000 0.1222079552
H   H13       1.0  0.57172  0.12243  0.78739  1.0000 0.1403387713
H   H14       1.0  0.90343  0.08787  0.90911  1.0000 0.129503693
H   H15       1.0  0.84887  0.34069  0.75684  1.0000 0.1482218819
H   H16       1.0  0.13393  0.96475  0.29170  1.0000 0.1403387713
H   H17       1.0  0.22532  0.77656  0.49261  1.0000 0.1222079552
H   H18       1.0  0.74596  0.87809  0.50892  1.0000 0.129503693
H   H19       1.0  0.15736  0.53971  0.05855  1.0000 0.1403387713
H   H20       1.0  0.45043  0.52606  0.21181  1.0000 0.129503693
H   H21       1.0  0.80442  0.73277  0.73970  1.0000 0.1482218819
H   H22       1.0  0.20310  0.42475  0.45951  1.0000 0.1222079552
H   H23       1.0  0.41545  0.73003  0.74474  1.0000 0.1403387713
H   H24       1.0  0.68021  0.84354  0.39217  1.0000 0.129503693
H   H25       1.0  0.69287  0.82227  0.90895  1.0000 0.1403387713
H   H26       1.0  0.28062  0.45286  0.57444  1.0000 0.1222079552
H   H27       1.0  0.30523  0.82477  0.60435  1.0000 0.1222079552
H   H28       1.0  0.42828  0.87757  0.21261  1.0000 0.1403387713
H   H29       1.0  0.09657  0.91213  0.09089  1.0000 0.129503693
H   H30       1.0  0.15113  0.65931  0.24316  1.0000 0.1482218819
C   C1        1.0  0.08120  0.20230  0.13630  1.0000 0.5707785281
C   C2        1.0  0.39590  0.24680  0.45990  1.0000 -0.0635880289
C   C3        1.0  0.55040  0.35720  0.55280  1.0000 0.0360883975
C   C4        1.0  0.83380  0.05520  0.74620  1.0000 -0.1599397845
C   C5        1.0  0.52260  0.30590  0.67220  1.0000 0.4307324232
C   C6        1.0  0.47880  0.28820  0.59880  1.0000 -0.0782872446
C   C7        1.0  0.70110  0.16280  0.49700  1.0000 -0.0975782134
C   C8        1.0  0.62090  0.52480  0.92060  1.0000 0.653023565
C   C9        1.0  0.69480  0.40630  0.76250  1.0000 0.2006919922
C   C10       1.0  0.73260  0.11540  0.85770  1.0000 -0.0029160117
C   C11       1.0  0.32740  0.18060  0.50600  1.0000 -0.0888181806
C   C12       1.0  0.64100  0.10200  0.54930  1.0000 -0.0692484995
C   C13       1.0  0.50470  0.33700  0.47980  1.0000 0.0267123019
C   C14       1.0  0.52510  0.01610  0.53360  1.0000 0.0267123019
C   C15       1.0  0.68830  0.47780  0.87310  1.0000 -0.0470862781
C   C16       1.0  0.46090  0.21930  0.16690  1.0000 0.0099005638
C   C17       1.0  0.80440  0.44640  0.89630  1.0000 -0.0635880289
C   C18       1.0  0.39110  0.26790  0.26770  1.0000 0.1703179421
C   C19       1.0  0.57330  0.41200  0.43480  1.0000 -0.0635880289
C   C20       1.0  0.91090  0.06240  0.80900  1.0000 0.0017892521
C   C21       1.0  0.86630  0.39440  0.85430  1.0000 0.0099005638
C   C22       1.0  0.62930  0.45600  0.80480  1.0000 -0.1599397845
C   C23       1.0  0.65930  0.44860  0.57390  1.0000 -0.0782872446
C   C24       1.0  0.26160  0.25420  0.23640  1.0000 -0.1510150937
C   C25       1.0  0.70150  0.46920  0.64620  1.0000 0.4214218649
C   C26       1.0  0.35840  0.22040  0.38650  1.0000 0.4358057918
C   C27       1.0  0.72290  0.51670  0.52630  1.0000 -0.0888181806
C   C28       1.0  0.49490  0.25510  0.23390  1.0000 -0.1448073147
C   C29       1.0  0.36750  0.20100  0.57650  1.0000 -0.0975782134
C   C30       1.0  0.32880  0.20250  0.13590  1.0000 -0.0975782134
C   C31       1.0  0.67750  0.49880  0.45690  1.0000 -0.0888181806
C   C32       1.0  0.69630  0.13440  0.62060  1.0000 0.4214218649
C   C33       1.0  0.22710  0.22100  0.16890  1.0000 0.0099005638
C   C34       1.0  0.65240  0.13400  0.42980  1.0000 -0.0888181806
C   C35       1.0  0.05120  0.04540  0.81500  1.0000 0.5888970735
C   C36       1.0  0.65600  0.10770  0.79360  1.0000 -0.1599397845
C   C37       1.0  0.85650  0.08850  0.86580  1.0000 -0.0692484995
C   C38       1.0  0.51320  0.98480  0.65870  1.0000 0.4307324232
C   C39       1.0  0.68000  0.15320  0.91740  1.0000 0.6017927768
C   C40       1.0  0.45800  0.95480  0.58760  1.0000 -0.0782872446
C   C41       1.0  0.71050  0.07710  0.73910  1.0000 0.1838695722
C   C42       1.0  0.56690  0.19300  0.13040  1.0000 0.5707785281
C   C43       1.0  0.99470  0.36270  0.87840  1.0000 0.5514683368
C   C44       1.0  0.52770  0.39100  0.36110  1.0000 0.4307324232
C   C45       1.0  0.80950  0.37470  0.78590  1.0000 -0.1599397845
C   C46       1.0  0.91880  0.79770  0.86370  1.0000 0.5707785281
C   C47       1.0  0.60410  0.75320  0.54010  1.0000 -0.0635880289
C   C48       1.0  0.44960  0.64280  0.44720  1.0000 0.0360883975
C   C49       1.0  0.16620  0.94480  0.25380  1.0000 -0.1655001102
C   C50       1.0  0.47740  0.69410  0.32780  1.0000 0.4307324232
C   C51       1.0  0.52120  0.71180  0.40120  1.0000 -0.0782872446
C   C52       1.0  0.29890  0.83720  0.50300  1.0000 -0.0975782134
C   C53       1.0  0.37910  0.47520  0.07940  1.0000 0.653023565
C   C54       1.0  0.30520  0.59370  0.23750  1.0000 0.2006919922
C   C55       1.0  0.26740  0.88460  0.14230  1.0000 -0.0029160117
C   C56       1.0  0.67260  0.81940  0.49400  1.0000 -0.0888181806
C   C57       1.0  0.35900  0.89800  0.45070  1.0000 -0.0692484995
C   C58       1.0  0.49530  0.66300  0.52020  1.0000 0.0267123019
C   C59       1.0  0.47490  0.98390  0.46640  1.0000 0.0267123019
C   C60       1.0  0.31170  0.52220  0.12690  1.0000 -0.0470862781
C   C61       1.0  0.53910  0.78070  0.83310  1.0000 0.0099005638
C   C62       1.0  0.19560  0.55360  0.10370  1.0000 -0.0635880289
C   C63       1.0  0.60890  0.73210  0.73230  1.0000 0.1703179421
C   C64       1.0  0.42670  0.58800  0.56520  1.0000 -0.0635880289
C   C65       1.0  0.08910  0.93760  0.19100  1.0000 0.0017892521
C   C66       1.0  0.13370  0.60560  0.14570  1.0000 0.0099005638
C   C67       1.0  0.37070  0.54400  0.19520  1.0000 -0.1599397845
C   C68       1.0  0.34070  0.55140  0.42610  1.0000 -0.0782872446
C   C69       1.0  0.73840  0.74580  0.76360  1.0000 -0.1510150937
C   C70       1.0  0.29850  0.53080  0.35380  1.0000 0.4214218649
C   C71       1.0  0.64160  0.77960  0.61350  1.0000 0.4358057918
C   C72       1.0  0.27710  0.48330  0.47370  1.0000 -0.0888181806
C   C73       1.0  0.50510  0.74490  0.76610  1.0000 -0.1510150937
C   C74       1.0  0.63250  0.79900  0.42350  1.0000 -0.0975782134
C   C75       1.0  0.67120  0.79750  0.86410  1.0000 -0.0975782134
C   C76       1.0  0.32250  0.50120  0.54310  1.0000 -0.0888181806
C   C77       1.0  0.30370  0.86560  0.37940  1.0000 0.4214218649
C   C78       1.0  0.77290  0.77900  0.83110  1.0000 0.0099005638
C   C79       1.0  0.34760  0.86600  0.57020  1.0000 -0.0888181806
C   C80       1.0  0.94880  0.95460  0.18500  1.0000 0.5888970735
C   C81       1.0  0.34400  0.89230  0.20640  1.0000 -0.1599397845
C   C82       1.0  0.14350  0.91150  0.13420  1.0000 -0.0692484995
C   C83       1.0  0.48680  0.01520  0.34130  1.0000 0.4307324232
C   C84       1.0  0.32000  0.84680  0.08260  1.0000 0.6017927768
C   C85       1.0  0.54200  0.04520  0.41240  1.0000 -0.0782872446
C   C86       1.0  0.28950  0.92290  0.26090  1.0000 0.1838695722
C   C87       1.0  0.43310  0.80700  0.86960  1.0000 0.5707785281
C   C88       1.0  0.00530  0.63730  0.12160  1.0000 0.5514683368
C   C89       1.0  0.47230  0.60900  0.63890  1.0000 0.4307324232
C   C90       1.0  0.19050  0.62530  0.21410  1.0000 -0.1599397845
N   N1        1.0  0.64000  0.39160  0.69110  1.0000 -0.2370035706
N   N2        1.0  0.42420  0.29700  0.34100  1.0000 -0.2370035706
N   N3        1.0  0.63350  0.06670  0.67090  1.0000 -0.2343559025
N   N4        1.0  0.36000  0.60840  0.30890  1.0000 -0.2370035706
N   N5        1.0  0.57580  0.70300  0.65900  1.0000 -0.2370035706
N   N6        1.0  0.36650  0.93330  0.32910  1.0000 -0.2343559025
O   O1        1.0  0.99180  0.21050  0.17300  1.0000 -0.6300461946
O   O2        1.0  0.05210  0.32690  0.83860  1.0000 -0.5947403071
O   O3        1.0  0.49620  0.52200  0.90710  1.0000 -0.6884197352
O   O4        1.0  0.69530  0.56750  0.97410  1.0000 -0.6631161032
O   O5        1.0  0.75340  0.15540  0.97400  1.0000 -0.6821338294
O   O6        1.0  0.27830  0.13590  0.36500  1.0000 -0.4117533125
O   O7        1.0  0.69280  0.23960  0.15250  1.0000 -0.6444641111
O   O8        1.0  0.56900  0.45580  0.31800  1.0000 -0.4171104563
O   O9        1.0  0.79000  0.21290  0.63700  1.0000 -0.4171104563
O   O10       1.0  0.53670  0.12920  0.08010  1.0000 -0.6064181386
O   O11       1.0  0.45220  0.93800  0.70510  1.0000 -0.4308449088
O   O12       1.0  0.57250  0.17950  0.90790  1.0000 -0.4976249842
O   O13       1.0  0.10100  0.02020  0.87520  1.0000 -0.7216271518
O   O14       1.0  0.05200  0.17460  0.07300  1.0000 -0.620365387
O   O15       1.0  0.46650  0.24800  0.71570  1.0000 -0.4117533125
O   O16       1.0  0.11140  0.05320  0.76400  1.0000 -0.4976249842
O   O17       1.0  0.04150  0.37890  0.94170  1.0000 -0.6064181386
O   O18       1.0  0.79060  0.54750  0.66880  1.0000 -0.4117533125
O   O19       1.0  0.00820  0.78950  0.82700  1.0000 -0.6300461946
O   O20       1.0  0.94790  0.67310  0.16140  1.0000 -0.5952287672
O   O21       1.0  0.50380  0.47800  0.09290  1.0000 -0.6884197352
O   O22       1.0  0.30470  0.43250  0.02590  1.0000 -0.6631161032
O   O23       1.0  0.24660  0.84460  0.02600  1.0000 -0.6821338294
O   O24       1.0  0.72170  0.86410  0.63500  1.0000 -0.4117533125
O   O25       1.0  0.30720  0.76040  0.84750  1.0000 -0.6444641111
O   O26       1.0  0.43100  0.54420  0.68200  1.0000 -0.4171104563
O   O27       1.0  0.21000  0.78710  0.36300  1.0000 -0.4171104563
O   O28       1.0  0.46330  0.87080  0.91990  1.0000 -0.6064181386
O   O29       1.0  0.54780  0.06200  0.29490  1.0000 -0.4308449088
O   O30       1.0  0.42750  0.82050  0.09210  1.0000 -0.4976249842
O   O31       1.0  0.89900  0.97980  0.12480  1.0000 -0.7216271518
O   O32       1.0  0.94800  0.82540  0.92700  1.0000 -0.620365387
O   O33       1.0  0.53350  0.75200  0.28430  1.0000 -0.4117533125
O   O34       1.0  0.88860  0.94680  0.23600  1.0000 -0.4976249842
O   O35       1.0  0.95850  0.62110  0.05830  1.0000 -0.6064181386
O   O36       1.0  0.20940  0.45250  0.33120  1.0000 -0.4117533125
