# DDEC6 charges by PACMAN v1.1 (https://github.com/mtap-research/PACMAN-charge/)
data_2018[Cd][nan]3[ASR]8
_chemical_formula_sum              "Cd3 H14 C30 O14"
_cell_length_a       13.1589
_cell_length_b       13.1589
_cell_length_c       11.865
_cell_angle_alpha    70.909
_cell_angle_beta     109.091
_cell_angle_gamma    150.887

_symmetry_space_group_name_H-M    "P 1"
_symmetry_Int_Tables_number       1

loop_
  _symmetry_equiv_pos_as_xyz
  'x, y, z'

loop_
  _atom_site_type_symbol
  _atom_site_label
  _atom_site_symmetry_multiplicity
  _atom_site_fract_x
  _atom_site_fract_y
  _atom_site_fract_z
  _atom_site_occupancy
  _atom_site_charge
Cd  Cd1       1.0  0.60900  0.39100  0.19683  1.0000 1.0430445338
Cd  Cd2       1.0  0.39100  0.60900  0.80317  1.0000 1.0430445338
Cd  Cd3       1.0  0.00000  0.00000  0.00000  1.0000 1.0290617609
H   H1        1.0  0.61430  0.79150  0.47930  1.0000 0.1443104932
H   H2        1.0  0.63600  0.76520  0.30770  1.0000 0.1225255245
H   H3        1.0  0.79150  0.61430  0.52070  1.0000 0.1443104932
H   H4        1.0  0.76520  0.63600  0.69230  1.0000 0.1225255245
H   H5        1.0  0.38570  0.20850  0.52070  1.0000 0.1443104932
H   H6        1.0  0.36400  0.23480  0.69230  1.0000 0.1225255245
H   H7        1.0  0.20850  0.38570  0.47930  1.0000 0.1443104932
H   H8        1.0  0.23480  0.36400  0.30770  1.0000 0.1225255245
H   H9        1.0  0.80470  0.19530  0.42240  1.0000 0.1443104932
H   H10       1.0  0.78420  0.21580  0.79530  1.0000 0.1225255245
H   H11       1.0  0.70620  0.29380  0.62430  1.0000 0.1262475515
H   H12       1.0  0.19530  0.80470  0.57760  1.0000 0.1443104932
H   H13       1.0  0.21580  0.78420  0.20470  1.0000 0.1225255245
H   H14       1.0  0.29380  0.70620  0.37570  1.0000 0.1262475515
C   C1        1.0  0.74090  0.90710  0.44510  1.0000 -0.1945253855
C   C2        1.0  0.75423  0.89177  0.34220  1.0000 -0.0862588322
C   C3        1.0  0.90710  0.74090  0.55490  1.0000 -0.1945253855
C   C4        1.0  0.89177  0.75423  0.65780  1.0000 -0.0862588322
C   C5        1.0  0.25910  0.09290  0.55490  1.0000 -0.1957019901
C   C6        1.0  0.24577  0.10823  0.65780  1.0000 -0.0862588322
C   C7        1.0  0.09290  0.25910  0.44510  1.0000 -0.1945253855
C   C8        1.0  0.10823  0.24577  0.34220  1.0000 -0.0862588322
C   C9        1.0  0.69727  0.30273  0.39560  1.0000 0.5314679408
C   C10       1.0  0.74760  0.25240  0.50680  1.0000 0.0073642993
C   C11       1.0  0.80046  0.19954  0.49730  1.0000 -0.2062127924
C   C12       1.0  0.84635  0.15365  0.59950  1.0000 0.2204917932
C   C13       1.0  0.84098  0.15902  0.71160  1.0000 -0.1465635037
C   C14       1.0  0.78829  0.21171  0.72030  1.0000 -0.0996757781
C   C15       1.0  0.74161  0.25839  0.61810  1.0000 -0.1123379616
C   C16       1.0  0.89344  0.10656  0.81800  1.0000 0.6048704648
C   C17       1.0  0.91121  0.08879  0.49450  1.0000 0.2144468764
C   C18       1.0  0.93921  0.06079  0.29110  1.0000 -0.0257945469
C   C19       1.0  0.95630  0.04370  0.18240  1.0000 0.5524980688
C   C20       1.0  0.30273  0.69727  0.60440  1.0000 0.5314679408
C   C21       1.0  0.25240  0.74760  0.49320  1.0000 0.0073642993
C   C22       1.0  0.19954  0.80046  0.50270  1.0000 -0.2062127924
C   C23       1.0  0.15365  0.84635  0.40050  1.0000 0.2204917932
C   C24       1.0  0.15902  0.84098  0.28840  1.0000 -0.1465635037
C   C25       1.0  0.21171  0.78829  0.27970  1.0000 -0.0996757781
C   C26       1.0  0.25839  0.74161  0.38190  1.0000 -0.1123379616
C   C27       1.0  0.10656  0.89344  0.18200  1.0000 0.6048704648
C   C28       1.0  0.08879  0.91121  0.50550  1.0000 0.2144468764
C   C29       1.0  0.06079  0.93921  0.70890  1.0000 -0.0257945469
C   C30       1.0  0.04370  0.95630  0.81760  1.0000 0.5524980688
O   O1        1.0  0.79857  0.87143  0.13714  1.0000 -0.5496228373
O   O2        1.0  0.08042  0.24898  0.86123  1.0000 -0.5496228373
O   O3        1.0  0.87143  0.79857  0.86286  1.0000 -0.5496228373
O   O4        1.0  0.24898  0.08042  0.13877  1.0000 -0.5496228373
O   O5        1.0  0.20143  0.12857  0.86286  1.0000 -0.5496228373
O   O6        1.0  0.91958  0.75102  0.13877  1.0000 -0.5496228373
O   O7        1.0  0.12857  0.20143  0.13714  1.0000 -0.5496228373
O   O8        1.0  0.75102  0.91958  0.86123  1.0000 -0.5496228373
O   O9        1.0  0.64976  0.35024  0.40390  1.0000 -0.5419855451
O   O10       1.0  0.70359  0.29641  0.29420  1.0000 -0.5277268624
O   O11       1.0  0.90088  0.09912  0.60240  1.0000 -0.1945253855
O   O12       1.0  0.35024  0.64976  0.59610  1.0000 -0.5419855451
O   O13       1.0  0.29641  0.70359  0.70580  1.0000 -0.5277268624
O   O14       1.0  0.09912  0.90088  0.39760  1.0000 -0.1945253855
