# DDEC6 charges by PACMAN v1.1 (https://github.com/mtap-research/PACMAN-charge/)
data_2018[Er][flu]3[ASR]1
_chemical_formula_sum              "Er8 H26 C58 N4 O36"
_cell_length_a       13.7955
_cell_length_b       13.7955
_cell_length_c       21.68
_cell_angle_alpha    71.8352
_cell_angle_beta     108.165
_cell_angle_gamma    136.133

_symmetry_space_group_name_H-M    "P 1"
_symmetry_Int_Tables_number       1

loop_
  _symmetry_equiv_pos_as_xyz
  'x, y, z'

loop_
  _atom_site_type_symbol
  _atom_site_label
  _atom_site_symmetry_multiplicity
  _atom_site_fract_x
  _atom_site_fract_y
  _atom_site_fract_z
  _atom_site_occupancy
  _atom_site_charge
Er  Er1       1.0  0.45560  0.39016  0.18306  1.0000 2.0592534616
Er  Er2       1.0  0.24500  0.09928  0.31513  1.0000 2.1888322904
Er  Er3       1.0  0.39016  0.45560  0.31694  1.0000 2.0592534616
Er  Er4       1.0  0.09928  0.24500  0.18487  1.0000 2.1888322904
Er  Er5       1.0  0.54440  0.60984  0.81694  1.0000 2.0592534616
Er  Er6       1.0  0.75500  0.90072  0.68487  1.0000 2.1888322904
Er  Er7       1.0  0.60984  0.54440  0.68306  1.0000 2.0592534616
Er  Er8       1.0  0.90072  0.75500  0.81513  1.0000 2.1888322904
H   H1        1.0  0.79770  0.57030  0.19720  1.0000 0.1014462635
H   H2        1.0  0.95320  0.67460  0.03610  1.0000 0.1281622126
H   H3        1.0  0.55170  0.47110  0.03140  1.0000 0.0932757631
H   H4        1.0  0.00680  0.52500  0.14390  1.0000 0.1105208386
H   H5        1.0  0.27540  0.86800  0.28080  1.0000 0.1105208386
H   H6        1.0  0.32800  0.73920  0.28480  1.0000 0.1105208386
H   H7        1.0  0.57030  0.79770  0.30280  1.0000 0.1014462635
H   H8        1.0  0.67460  0.95320  0.46390  1.0000 0.1281622126
H   H9        1.0  0.47110  0.55170  0.46860  1.0000 0.0932757631
H   H10       1.0  0.52500  0.00680  0.35610  1.0000 0.1105208386
H   H11       1.0  0.86800  0.27540  0.21920  1.0000 0.1105208386
H   H12       1.0  0.73920  0.32800  0.21520  1.0000 0.1105208386
H   H13       1.0  0.20230  0.42970  0.80280  1.0000 0.1014462635
H   H14       1.0  0.04680  0.32540  0.96390  1.0000 0.1281622126
H   H15       1.0  0.44830  0.52890  0.96860  1.0000 0.0932757631
H   H16       1.0  0.99320  0.47500  0.85610  1.0000 0.1105208386
H   H17       1.0  0.72460  0.13200  0.71920  1.0000 0.1105208386
H   H18       1.0  0.67200  0.26080  0.71520  1.0000 0.1105208386
H   H19       1.0  0.42970  0.20230  0.69720  1.0000 0.1014462635
H   H20       1.0  0.32540  0.04680  0.53610  1.0000 0.1281622126
H   H21       1.0  0.52890  0.44830  0.53140  1.0000 0.0932757631
H   H22       1.0  0.47500  0.99320  0.64390  1.0000 0.1105208386
H   H23       1.0  0.13200  0.72460  0.78080  1.0000 0.1105208386
H   H24       1.0  0.26080  0.67200  0.78480  1.0000 0.1105208386
H   H25       1.0  0.77600  0.77600  0.25000  1.0000 0.1105208386
H   H26       1.0  0.22400  0.22400  0.75000  1.0000 0.1105208386
C   C1        1.0  0.89560  0.62600  0.12440  1.0000 0.0196297392
C   C2        1.0  0.78350  0.56830  0.15260  1.0000 0.047431998
C   C3        1.0  0.87890  0.63310  0.05700  1.0000 -0.0907376241
C   C4        1.0  0.64010  0.51330  0.05520  1.0000 0.0788373127
C   C5        1.0  0.74830  0.57650  0.02170  1.0000 -0.0667608753
C   C6        1.0  0.72560  0.59160  0.94750  1.0000 0.6273596361
C   C7        1.0  0.06030  0.59350  0.17140  1.0000 -0.1520167962
C   C8        1.0  0.02720  0.67100  0.16740  1.0000 0.0403452553
C   C9        1.0  0.10930  0.77550  0.20880  1.0000 -0.0624223258
C   C10       1.0  0.08310  0.86590  0.20770  1.0000 0.5976901725
C   C11       1.0  0.19670  0.52470  0.22520  1.0000 0.6273596361
C   C12       1.0  0.17180  0.61720  0.21610  1.0000 -0.0336390724
C   C13       1.0  0.22120  0.79980  0.25310  1.0000 -0.107495036
C   C14       1.0  0.25220  0.72100  0.25580  1.0000 -0.107495036
C   C15       1.0  0.62600  0.89560  0.37560  1.0000 0.0196297392
C   C16       1.0  0.56830  0.78350  0.34740  1.0000 0.047431998
C   C17       1.0  0.63310  0.87890  0.44300  1.0000 -0.0907376241
C   C18       1.0  0.51330  0.64010  0.44480  1.0000 0.0788373127
C   C19       1.0  0.57650  0.74830  0.47830  1.0000 -0.0667608753
C   C20       1.0  0.59160  0.72560  0.55250  1.0000 0.6273596361
C   C21       1.0  0.59350  0.06030  0.32860  1.0000 -0.1520167962
C   C22       1.0  0.67100  0.02720  0.33260  1.0000 0.0403452553
C   C23       1.0  0.77550  0.10930  0.29120  1.0000 -0.0624223258
C   C24       1.0  0.86590  0.08310  0.29230  1.0000 0.5976901725
C   C25       1.0  0.52470  0.19670  0.27480  1.0000 0.6273596361
C   C26       1.0  0.61720  0.17180  0.28390  1.0000 -0.0336390724
C   C27       1.0  0.79980  0.22120  0.24690  1.0000 -0.107495036
C   C28       1.0  0.72100  0.25220  0.24420  1.0000 -0.107495036
C   C29       1.0  0.10440  0.37400  0.87560  1.0000 0.0196297392
C   C30       1.0  0.21650  0.43170  0.84740  1.0000 0.047431998
C   C31       1.0  0.12110  0.36690  0.94300  1.0000 -0.0907376241
C   C32       1.0  0.35990  0.48670  0.94480  1.0000 0.0788373127
C   C33       1.0  0.25170  0.42350  0.97830  1.0000 -0.0667608753
C   C34       1.0  0.27440  0.40840  0.05250  1.0000 0.6273596361
C   C35       1.0  0.93970  0.40650  0.82860  1.0000 -0.1520167962
C   C36       1.0  0.97280  0.32900  0.83260  1.0000 0.0403452553
C   C37       1.0  0.89070  0.22450  0.79120  1.0000 -0.0624223258
C   C38       1.0  0.91690  0.13410  0.79230  1.0000 0.5976901725
C   C39       1.0  0.80330  0.47530  0.77480  1.0000 0.6273596361
C   C40       1.0  0.82820  0.38280  0.78390  1.0000 -0.0336390724
C   C41       1.0  0.77880  0.20020  0.74690  1.0000 -0.107495036
C   C42       1.0  0.74780  0.27900  0.74420  1.0000 -0.107495036
C   C43       1.0  0.37400  0.10440  0.62440  1.0000 0.0196297392
C   C44       1.0  0.43170  0.21650  0.65260  1.0000 0.047431998
C   C45       1.0  0.36690  0.12110  0.55700  1.0000 -0.0907376241
C   C46       1.0  0.48670  0.35990  0.55520  1.0000 0.0788373127
C   C47       1.0  0.42350  0.25170  0.52170  1.0000 -0.0667608753
C   C48       1.0  0.40840  0.27440  0.44750  1.0000 0.6273596361
C   C49       1.0  0.40650  0.93970  0.67140  1.0000 -0.1520167962
C   C50       1.0  0.32900  0.97280  0.66740  1.0000 0.0403452553
C   C51       1.0  0.22450  0.89070  0.70880  1.0000 -0.0624223258
C   C52       1.0  0.13410  0.91690  0.70770  1.0000 0.5976901725
C   C53       1.0  0.47530  0.80330  0.72520  1.0000 0.6273596361
C   C54       1.0  0.38280  0.82820  0.71610  1.0000 -0.0336390724
C   C55       1.0  0.20020  0.77880  0.75310  1.0000 -0.107495036
C   C56       1.0  0.27900  0.74780  0.75580  1.0000 -0.107495036
C   C57       1.0  0.68580  0.68580  0.25000  1.0000 0.5376765803
C   C58       1.0  0.31420  0.31420  0.75000  1.0000 0.5376765803
N   N1        1.0  0.65518  0.50942  0.11940  1.0000 -0.3376222774
N   N2        1.0  0.50942  0.65518  0.38060  1.0000 -0.3376222774
N   N3        1.0  0.34482  0.49058  0.88060  1.0000 -0.3376222774
N   N4        1.0  0.49058  0.34482  0.61940  1.0000 -0.3376222774
O   O1        1.0  0.22776  0.18184  0.20337  1.0000 -1.1164905951
O   O2        1.0  0.34289  0.44311  0.20433  1.0000 -1.0446470902
O   O3        1.0  0.65030  0.61470  0.20950  1.0000 -0.5565298125
O   O4        1.0  0.83060  0.66640  0.91947  1.0000 -0.6108876393
O   O5        1.0  0.60089  0.52831  0.91915  1.0000 -0.6163802073
O   O6        1.0  0.11823  0.42677  0.19030  1.0000 -0.6108876393
O   O7        1.0  0.03561  0.89739  0.15544  1.0000 -0.4896479175
O   O8        1.0  0.29551  0.55049  0.26840  1.0000 -0.5998907015
O   O9        1.0  0.12029  0.90971  0.26138  1.0000 -0.6617343202
O   O10       1.0  0.18184  0.22776  0.29663  1.0000 -1.1164905951
O   O11       1.0  0.44311  0.34289  0.29567  1.0000 -1.0446470902
O   O12       1.0  0.61470  0.65030  0.29050  1.0000 -0.5565298125
O   O13       1.0  0.66640  0.83060  0.58053  1.0000 -0.6108876393
O   O14       1.0  0.52831  0.60089  0.58085  1.0000 -0.6163802073
O   O15       1.0  0.42677  0.11823  0.30970  1.0000 -0.6108876393
O   O16       1.0  0.89739  0.03561  0.34456  1.0000 -0.4896479175
O   O17       1.0  0.55049  0.29551  0.23160  1.0000 -0.5998907015
O   O18       1.0  0.90971  0.12029  0.23862  1.0000 -0.6617343202
O   O19       1.0  0.77224  0.81816  0.79663  1.0000 -1.1164905951
O   O20       1.0  0.65711  0.55689  0.79567  1.0000 -1.0446470902
O   O21       1.0  0.34970  0.38530  0.79050  1.0000 -0.5565298125
O   O22       1.0  0.16940  0.33360  0.08053  1.0000 -0.6108876393
O   O23       1.0  0.39911  0.47169  0.08085  1.0000 -0.6163802073
O   O24       1.0  0.88177  0.57323  0.80970  1.0000 -0.6108876393
O   O25       1.0  0.96439  0.10261  0.84456  1.0000 -0.4896479175
O   O26       1.0  0.70449  0.44951  0.73160  1.0000 -0.5998907015
O   O27       1.0  0.87971  0.09029  0.73862  1.0000 -0.6617343202
O   O28       1.0  0.81816  0.77224  0.70337  1.0000 -1.1164905951
O   O29       1.0  0.55689  0.65711  0.70433  1.0000 -1.0446470902
O   O30       1.0  0.38530  0.34970  0.70950  1.0000 -0.5565298125
O   O31       1.0  0.33360  0.16940  0.41947  1.0000 -0.6108876393
O   O32       1.0  0.47169  0.39911  0.41915  1.0000 -0.6163802073
O   O33       1.0  0.57323  0.88177  0.69030  1.0000 -0.6108876393
O   O34       1.0  0.10261  0.96439  0.65544  1.0000 -0.4896479175
O   O35       1.0  0.44951  0.70449  0.76840  1.0000 -0.5998907015
O   O36       1.0  0.09029  0.87971  0.76138  1.0000 -0.6617343202
