# DDEC6 charges by PACMAN v1.1 (https://github.com/mtap-research/PACMAN-charge/)
data_2018[Cd][pcu]3[ASR]2
_chemical_formula_sum              "Cd6 H76 C110 N4 O30"
_cell_length_a       13.477
_cell_length_b       13.815
_cell_length_c       18.374
_cell_angle_alpha    94.33
_cell_angle_beta     100.245
_cell_angle_gamma    99.054

_symmetry_space_group_name_H-M    "P 1"
_symmetry_Int_Tables_number       1

loop_
  _symmetry_equiv_pos_as_xyz
  'x, y, z'

loop_
  _atom_site_type_symbol
  _atom_site_label
  _atom_site_symmetry_multiplicity
  _atom_site_fract_x
  _atom_site_fract_y
  _atom_site_fract_z
  _atom_site_occupancy
  _atom_site_charge
Cd  Cd1       1.0  0.90720  0.75654  0.51301  1.0000 0.8761073122
Cd  Cd2       1.0  0.97407  0.82567  0.70733  1.0000 1.1156676779
Cd  Cd3       1.0  0.02301  0.78810  0.90263  1.0000 0.9013617703
Cd  Cd4       1.0  0.09280  0.24346  0.48699  1.0000 0.8761073122
Cd  Cd5       1.0  0.02593  0.17433  0.29267  1.0000 1.1140604982
Cd  Cd6       1.0  0.97699  0.21190  0.09737  1.0000 0.9013617703
H   H1        1.0  0.70470  0.73110  0.71950  1.0000 0.1277748756
H   H2        1.0  0.56610  0.66530  0.76810  1.0000 0.1199965519
H   H3        1.0  0.47420  0.46390  0.59140  1.0000 0.1199965519
H   H4        1.0  0.61150  0.53000  0.54070  1.0000 0.1113918381
H   H5        1.0  0.40430  0.44120  0.70980  1.0000 0.0908415205
H   H6        1.0  0.34860  0.67180  0.76090  1.0000 0.1199965519
H   H7        1.0  0.21000  0.74470  0.71150  1.0000 0.1199965519
H   H8        1.0  0.12860  0.51410  0.54860  1.0000 0.1199965519
H   H9        1.0  0.27050  0.45190  0.60010  1.0000 0.1199965519
H   H10       1.0  0.86390  0.07030  0.68670  1.0000 0.1113918381
H   H11       1.0  0.78370  0.20580  0.68930  1.0000 0.1113918381
H   H12       1.0  0.76910  0.20900  0.46900  1.0000 0.1113918381
H   H13       1.0  0.85290  0.07690  0.46780  1.0000 0.1277748756
H   H14       1.0  0.70610  0.33420  0.53270  1.0000 0.0908415205
H   H15       1.0  0.87320  0.44640  0.58220  1.0000 0.1199965519
H   H16       1.0  0.95750  0.57480  0.66780  1.0000 0.1199965519
H   H17       1.0  0.77080  0.48850  0.80640  1.0000 0.1113918381
H   H18       1.0  0.68440  0.35970  0.72090  1.0000 0.1113918381
H   H19       1.0  0.32260  0.99940  0.95160  1.0000 0.1199965519
H   H20       1.0  0.48270  0.09520  0.95920  1.0000 0.1199965519
H   H21       1.0  0.42030  0.10920  0.74060  1.0000 0.1199965519
H   H22       1.0  0.26370  0.00890  0.73100  1.0000 0.1277748756
H   H23       1.0  0.57010  0.21710  0.80790  1.0000 0.0715973968
H   H24       1.0  0.71580  0.12800  0.96240  1.0000 0.1199965519
H   H25       1.0  0.82990  0.02250  0.95500  1.0000 0.1199965519
H   H26       1.0  0.72750  0.96730  0.73510  1.0000 0.1199965519
H   H27       1.0  0.61010  0.07110  0.74270  1.0000 0.1113918381
H   H28       1.0  0.86230  0.88320  0.37600  1.0000 0.1199965519
H   H29       1.0  0.88300  0.88900  0.25380  1.0000 0.1277748756
H   H30       1.0  0.98630  0.63200  0.25860  1.0000 0.1277748756
H   H31       1.0  0.96540  0.62880  0.38080  1.0000 0.1027634578
H   H32       1.0  0.88470  0.85370  0.01160  1.0000 0.1113918381
H   H33       1.0  0.85110  0.84510  0.13000  1.0000 0.1277748756
H   H34       1.0  0.08330  0.70180  0.18000  1.0000 0.1277748756
H   H35       1.0  0.12030  0.71520  0.06330  1.0000 0.1113918381
H   H36       1.0  0.43700  0.49100  0.82020  1.0000 0.3400619198
H   H37       1.0  0.58340  0.22210  0.56030  1.0000 0.3453101585
H   H38       1.0  0.56820  0.28830  0.90870  1.0000 0.3214935729
H   H39       1.0  0.29530  0.26890  0.28050  1.0000 0.1277748756
H   H40       1.0  0.43390  0.33470  0.23190  1.0000 0.1199965519
H   H41       1.0  0.52580  0.53610  0.40860  1.0000 0.1199965519
H   H42       1.0  0.38850  0.47000  0.45930  1.0000 0.1113918381
H   H43       1.0  0.59570  0.55880  0.29020  1.0000 0.0814695377
H   H44       1.0  0.65140  0.32820  0.23910  1.0000 0.1199965519
H   H45       1.0  0.79000  0.25530  0.28850  1.0000 0.1199965519
H   H46       1.0  0.87140  0.48590  0.45140  1.0000 0.1199965519
H   H47       1.0  0.72950  0.54810  0.39990  1.0000 0.1199965519
H   H48       1.0  0.13610  0.92970  0.31330  1.0000 0.1113918381
H   H49       1.0  0.21630  0.79420  0.31070  1.0000 0.1113918381
H   H50       1.0  0.23090  0.79100  0.53100  1.0000 0.1113918381
H   H51       1.0  0.14710  0.92310  0.53220  1.0000 0.1277748756
H   H52       1.0  0.29390  0.66580  0.46730  1.0000 0.0908415205
H   H53       1.0  0.12680  0.55360  0.41780  1.0000 0.1199965519
H   H54       1.0  0.04250  0.42520  0.33220  1.0000 0.1199965519
H   H55       1.0  0.22920  0.51150  0.19360  1.0000 0.1113918381
H   H56       1.0  0.31560  0.64030  0.27910  1.0000 0.1113918381
H   H57       1.0  0.67740  0.00060  0.04840  1.0000 0.1199965519
H   H58       1.0  0.51730  0.90480  0.04080  1.0000 0.1199965519
H   H59       1.0  0.57970  0.89080  0.25940  1.0000 0.1199965519
H   H60       1.0  0.73630  0.99110  0.26900  1.0000 0.1277748756
H   H61       1.0  0.42990  0.78290  0.19210  1.0000 0.0715973968
H   H62       1.0  0.28420  0.87200  0.03760  1.0000 0.1199965519
H   H63       1.0  0.17010  0.97750  0.04500  1.0000 0.1199965519
H   H64       1.0  0.27250  0.03270  0.26490  1.0000 0.1199965519
H   H65       1.0  0.38990  0.92890  0.25730  1.0000 0.1113918381
H   H66       1.0  0.13770  0.11680  0.62400  1.0000 0.1199965519
H   H67       1.0  0.11700  0.11100  0.74620  1.0000 0.1277748756
H   H68       1.0  0.01370  0.36800  0.74140  1.0000 0.1277748756
H   H69       1.0  0.03460  0.37120  0.61920  1.0000 0.1027634578
H   H70       1.0  0.11530  0.14630  0.98840  1.0000 0.1113918381
H   H71       1.0  0.14890  0.15490  0.87000  1.0000 0.1277748756
H   H72       1.0  0.91670  0.29820  0.82000  1.0000 0.1277748756
H   H73       1.0  0.87970  0.28480  0.93670  1.0000 0.1113918381
H   H74       1.0  0.56300  0.50900  0.17980  1.0000 0.3400619198
H   H75       1.0  0.41660  0.77790  0.43970  1.0000 0.3400619198
H   H76       1.0  0.43180  0.71170  0.09130  1.0000 0.3214935729
C   C1        1.0  0.75550  0.68560  0.58860  1.0000 0.5678480635
C   C2        1.0  0.67100  0.64000  0.62360  1.0000 -0.0302498463
C   C3        1.0  0.65790  0.67800  0.69310  1.0000 -0.0904505631
C   C4        1.0  0.57580  0.63730  0.72280  1.0000 -0.1388399309
C   C5        1.0  0.50760  0.55550  0.68600  1.0000 0.0306764913
C   C6        1.0  0.52090  0.51750  0.61730  1.0000 -0.1487835657
C   C7        1.0  0.60250  0.55770  0.58630  1.0000 -0.1065565043
C   C8        1.0  0.41770  0.51340  0.71770  1.0000 0.1113918381
C   C9        1.0  0.32280  0.55630  0.68480  1.0000 0.0489877522
C   C10       1.0  0.30430  0.64170  0.71760  1.0000 -0.1388399309
C   C11       1.0  0.22110  0.68600  0.68870  1.0000 -0.1065565043
C   C12       1.0  0.15340  0.63630  0.62190  1.0000 -0.0302498463
C   C13       1.0  0.17270  0.54790  0.59070  1.0000 -0.116551288
C   C14       1.0  0.25760  0.51020  0.62220  1.0000 -0.1586780419
C   C15       1.0  0.06520  0.67880  0.58460  1.0000 0.5413834819
C   C16       1.0  0.90940  0.96550  0.57430  1.0000 0.5843903789
C   C17       1.0  0.86230  0.05750  0.57720  1.0000 -0.023735833
C   C18       1.0  0.84400  0.09790  0.64290  1.0000 -0.1065565043
C   C19       1.0  0.79620  0.17910  0.64450  1.0000 -0.1388399309
C   C20       1.0  0.76680  0.22120  0.57970  1.0000 0.0306764913
C   C21       1.0  0.78820  0.18120  0.51280  1.0000 -0.1487835657
C   C22       1.0  0.83670  0.10180  0.51190  1.0000 -0.1035344085
C   C23       1.0  0.71460  0.30900  0.58140  1.0000 0.1027634578
C   C24       1.0  0.76530  0.38960  0.64020  1.0000 0.0306764913
C   C25       1.0  0.85110  0.45580  0.62700  1.0000 -0.1487835657
C   C26       1.0  0.90200  0.53250  0.67800  1.0000 -0.1035344085
C   C27       1.0  0.87050  0.54680  0.74500  1.0000 -0.0302498463
C   C28       1.0  0.79000  0.48050  0.76050  1.0000 -0.116551288
C   C29       1.0  0.73800  0.40310  0.70920  1.0000 -0.1487835657
C   C30       1.0  0.92140  0.63250  0.80070  1.0000 0.5609678099
C   C31       1.0  0.17800  0.92750  0.83370  1.0000 0.5678480635
C   C32       1.0  0.27820  0.99280  0.83990  1.0000 -0.0505282642
C   C33       1.0  0.34290  0.02040  0.90880  1.0000 -0.1035344085
C   C34       1.0  0.43800  0.07940  0.91360  1.0000 -0.1487835657
C   C35       1.0  0.46610  0.11470  0.85010  1.0000 0.0393815855
C   C36       1.0  0.40090  0.08690  0.78340  1.0000 -0.1487835657
C   C37       1.0  0.30690  0.02650  0.77720  1.0000 -0.1035344085
C   C38       1.0  0.57170  0.17920  0.85100  1.0000 0.0908415205
C   C39       1.0  0.65050  0.11000  0.85310  1.0000 0.0393815855
C   C40       1.0  0.71770  0.09520  0.91670  1.0000 -0.1487835657
C   C41       1.0  0.78610  0.03290  0.91220  1.0000 -0.1035344085
C   C42       1.0  0.79030  0.98510  0.84380  1.0000 -0.0302498463
C   C43       1.0  0.72480  0.99940  0.78080  1.0000 -0.1035344085
C   C44       1.0  0.65460  0.06170  0.78540  1.0000 -0.1586780419
C   C45       1.0  0.86430  0.91490  0.83660  1.0000 0.5678480635
C   C46       1.0  0.88660  0.83240  0.35230  1.0000 0.0814695377
C   C47       1.0  0.90080  0.83670  0.27930  1.0000 -0.1773986747
C   C48       1.0  0.94090  0.76380  0.24420  1.0000 0.1027634578
C   C49       1.0  0.96250  0.68340  0.28190  1.0000 -0.1961682072
C   C50       1.0  0.94790  0.68090  0.35500  1.0000 0.0908415205
C   C51       1.0  0.92650  0.82400  0.04570  1.0000 0.1027634578
C   C52       1.0  0.90540  0.81810  0.11710  1.0000 -0.1728949925
C   C53       1.0  0.96250  0.77400  0.16690  1.0000 0.1027634578
C   C54       1.0  0.04370  0.73390  0.14610  1.0000 -0.1890860131
C   C55       1.0  0.06550  0.74130  0.07620  1.0000 0.0489877522
C   C56       1.0  0.24450  0.31440  0.41140  1.0000 0.5678480635
C   C57       1.0  0.32900  0.36000  0.37640  1.0000 -0.0302498463
C   C58       1.0  0.34210  0.32200  0.30690  1.0000 -0.0904505631
C   C59       1.0  0.42420  0.36270  0.27720  1.0000 -0.1388399309
C   C60       1.0  0.49240  0.44450  0.31400  1.0000 0.0306764913
C   C61       1.0  0.47910  0.48250  0.38270  1.0000 -0.1487835657
C   C62       1.0  0.39750  0.44230  0.41370  1.0000 -0.1065565043
C   C63       1.0  0.58230  0.48660  0.28230  1.0000 0.1113918381
C   C64       1.0  0.67720  0.44370  0.31520  1.0000 0.0489877522
C   C65       1.0  0.69570  0.35830  0.28240  1.0000 -0.1388399309
C   C66       1.0  0.77890  0.31400  0.31130  1.0000 -0.1065565043
C   C67       1.0  0.84660  0.36370  0.37810  1.0000 -0.0356028048
C   C68       1.0  0.82730  0.45210  0.40930  1.0000 -0.116551288
C   C69       1.0  0.74240  0.48980  0.37780  1.0000 -0.1586780419
C   C70       1.0  0.93480  0.32120  0.41540  1.0000 0.5413834819
C   C71       1.0  0.09060  0.03450  0.42570  1.0000 0.5843903789
C   C72       1.0  0.13770  0.94250  0.42280  1.0000 -0.023735833
C   C73       1.0  0.15600  0.90210  0.35710  1.0000 -0.1065565043
C   C74       1.0  0.20380  0.82090  0.35550  1.0000 -0.1388399309
C   C75       1.0  0.23320  0.77880  0.42030  1.0000 0.0306764913
C   C76       1.0  0.21180  0.81880  0.48720  1.0000 -0.1487835657
C   C77       1.0  0.16330  0.89820  0.48810  1.0000 -0.1035344085
C   C78       1.0  0.28540  0.69100  0.41860  1.0000 0.1027634578
C   C79       1.0  0.23470  0.61040  0.35980  1.0000 0.0306764913
C   C80       1.0  0.14890  0.54420  0.37300  1.0000 -0.1487835657
C   C81       1.0  0.09800  0.46750  0.32200  1.0000 -0.1035344085
C   C82       1.0  0.12950  0.45320  0.25500  1.0000 -0.0302498463
C   C83       1.0  0.21000  0.51950  0.23950  1.0000 -0.116551288
C   C84       1.0  0.26200  0.59690  0.29080  1.0000 -0.1487835657
C   C85       1.0  0.07860  0.36750  0.19930  1.0000 0.5609678099
C   C86       1.0  0.82200  0.07250  0.16630  1.0000 0.5678480635
C   C87       1.0  0.72180  0.00720  0.16010  1.0000 -0.0505282642
C   C88       1.0  0.65710  0.97960  0.09120  1.0000 -0.1035344085
C   C89       1.0  0.56200  0.92060  0.08640  1.0000 -0.1487835657
C   C90       1.0  0.53390  0.88530  0.14990  1.0000 0.0393815855
C   C91       1.0  0.59910  0.91310  0.21660  1.0000 -0.1586780419
C   C92       1.0  0.69310  0.97350  0.22280  1.0000 -0.1035344085
C   C93       1.0  0.42830  0.82080  0.14900  1.0000 0.0908415205
C   C94       1.0  0.34950  0.89000  0.14690  1.0000 0.0393815855
C   C95       1.0  0.28230  0.90480  0.08330  1.0000 -0.1487835657
C   C96       1.0  0.21390  0.96710  0.08780  1.0000 -0.1035344085
C   C97       1.0  0.20970  0.01490  0.15620  1.0000 -0.0302498463
C   C98       1.0  0.27520  0.00060  0.21920  1.0000 -0.1035344085
C   C99       1.0  0.34540  0.93830  0.21460  1.0000 -0.1586780419
C   C100      1.0  0.13570  0.08510  0.16340  1.0000 0.5678480635
C   C101      1.0  0.11340  0.16760  0.64770  1.0000 0.0814695377
C   C102      1.0  0.09920  0.16330  0.72070  1.0000 -0.1773986747
C   C103      1.0  0.05910  0.23620  0.75580  1.0000 0.1027634578
C   C104      1.0  0.03750  0.31660  0.71810  1.0000 -0.1961682072
C   C105      1.0  0.05210  0.31910  0.64500  1.0000 0.0908415205
C   C106      1.0  0.07350  0.17600  0.95430  1.0000 0.1027634578
C   C107      1.0  0.09460  0.18190  0.88290  1.0000 -0.1728949925
C   C108      1.0  0.03750  0.22600  0.83310  1.0000 0.1027634578
C   C109      1.0  0.95630  0.26610  0.85390  1.0000 -0.1890860131
C   C110      1.0  0.93450  0.25870  0.92380  1.0000 0.0489877522
N   N1        1.0  0.90860  0.75280  0.38960  1.0000 -0.2727425849
N   N2        1.0  0.00580  0.78790  0.02470  1.0000 -0.2727425849
N   N3        1.0  0.09140  0.24720  0.61040  1.0000 -0.2727425849
N   N4        1.0  0.99420  0.21210  0.97530  1.0000 -0.2727425849
O   O1        1.0  0.75370  0.66350  0.51990  1.0000 -0.5388506979
O   O2        1.0  0.82660  0.74630  0.62657  1.0000 -0.5558197131
O   O3        1.0  0.43740  0.54590  0.79120  1.0000 -0.4383323124
O   O4        1.0  0.04750  0.75920  0.61571  1.0000 -0.5894946089
O   O5        1.0  0.01220  0.63900  0.52600  1.0000 -0.5013175091
O   O6        1.0  0.96160  0.94760  0.63470  1.0000 -0.5768868556
O   O7        1.0  0.89110  0.91140  0.51480  1.0000 -0.5346839061
O   O8        1.0  0.62060  0.27400  0.59740  1.0000 -0.472394236
O   O9        1.0  0.90560  0.64090  0.86330  1.0000 -0.4840970864
O   O10       1.0  0.98580  0.69780  0.78000  1.0000 -0.5894946089
O   O11       1.0  0.12390  0.90670  0.77220  1.0000 -0.5388506979
O   O12       1.0  0.15770  0.89660  0.89250  1.0000 -0.5388506979
O   O13       1.0  0.59300  0.23830  0.91490  1.0000 -0.4029477319
O   O14       1.0  0.92560  0.90590  0.89450  1.0000 -0.548437964
O   O15       1.0  0.86240  0.87530  0.77440  1.0000 -0.548437964
O   O16       1.0  0.24630  0.33650  0.48010  1.0000 -0.548437964
O   O17       1.0  0.17340  0.25370  0.37343  1.0000 -0.5558197131
O   O18       1.0  0.56260  0.45410  0.20880  1.0000 -0.4383323124
O   O19       1.0  0.95250  0.24080  0.38429  1.0000 -0.5894946089
O   O20       1.0  0.98780  0.36100  0.47400  1.0000 -0.5013175091
O   O21       1.0  0.03840  0.05240  0.36530  1.0000 -0.5768868556
O   O22       1.0  0.10890  0.08860  0.48520  1.0000 -0.5388506979
O   O23       1.0  0.37940  0.72600  0.40260  1.0000 -0.472394236
O   O24       1.0  0.09440  0.35910  0.13670  1.0000 -0.4840970864
O   O25       1.0  0.01420  0.30220  0.22000  1.0000 -0.5894946089
O   O26       1.0  0.87610  0.09330  0.22780  1.0000 -0.5388506979
O   O27       1.0  0.84230  0.10340  0.10750  1.0000 -0.5388506979
O   O28       1.0  0.40700  0.76170  0.08510  1.0000 -0.4029477319
O   O29       1.0  0.07440  0.09410  0.10550  1.0000 -0.548437964
O   O30       1.0  0.13760  0.12470  0.22560  1.0000 -0.548437964
