# DDEC6 charges by PACMAN v1.1 (https://github.com/mtap-research/PACMAN-charge/)
data_2018[USi][hcb]2[ASR]1
_chemical_formula_sum              "U4 Si4 H68 C108 O24"
_cell_length_a       15.684
_cell_length_b       9.9882
_cell_length_c       21.05
_cell_angle_alpha    90
_cell_angle_beta     106.692
_cell_angle_gamma    90

_symmetry_space_group_name_H-M    "P 1"
_symmetry_Int_Tables_number       1

loop_
  _symmetry_equiv_pos_as_xyz
  'x, y, z'

loop_
  _atom_site_type_symbol
  _atom_site_label
  _atom_site_symmetry_multiplicity
  _atom_site_fract_x
  _atom_site_fract_y
  _atom_site_fract_z
  _atom_site_occupancy
  _atom_site_charge
U   U1        1.0  0.71707  0.00697  0.68258  1.0000 1.9258862316
U   U2        1.0  0.28293  0.00697  0.81742  1.0000 1.9206015049
U   U3        1.0  0.28293  0.99303  0.31742  1.0000 1.9149543821
U   U4        1.0  0.71707  0.99303  0.18258  1.0000 1.9206015049
Si  Si1       1.0  0.83777  0.69030  0.96249  1.0000 0.6019569515
Si  Si2       1.0  0.16223  0.69030  0.53751  1.0000 0.6019569515
Si  Si3       1.0  0.16223  0.30970  0.03751  1.0000 0.6019569515
Si  Si4       1.0  0.83777  0.30970  0.46249  1.0000 0.6019569515
H   H1        1.0  0.93910  0.50940  0.89920  1.0000 0.1015090257
H   H2        1.0  0.91170  0.31470  0.83860  1.0000 0.1094975964
H   H3        1.0  0.65870  0.31890  0.84740  1.0000 0.1289250085
H   H4        1.0  0.68600  0.51460  0.90780  1.0000 0.1015090257
H   H5        1.0  0.89530  0.82150  0.09020  1.0000 0.1015090257
H   H6        1.0  0.92460  0.76080  0.20170  1.0000 0.1094975964
H   H7        1.0  0.86890  0.37800  0.14600  1.0000 0.1015090257
H   H8        1.0  0.84800  0.43910  0.03610  1.0000 0.1015090257
H   H9        1.0  0.90830  0.53890  0.22970  1.0000 0.1015090257
H   H10       1.0  0.72860  0.83320  0.84680  1.0000 0.1015090257
H   H11       1.0  0.02640  0.76220  0.02810  1.0000 0.1015090257
H   H12       1.0  0.14420  0.84480  0.99410  1.0000 0.1289250085
H   H13       1.0  0.58820  0.92510  0.81410  1.0000 0.1289250085
H   H14       1.0  0.86170  0.83040  0.84690  1.0000 0.1015090257
H   H15       1.0  0.97520  0.92220  0.81520  1.0000 0.1389325886
H   H16       1.0  0.55810  0.84960  0.99520  1.0000 0.1191386982
H   H17       1.0  0.70370  0.75970  0.02590  1.0000 0.1015090257
H   H18       1.0  0.06090  0.50940  0.60080  1.0000 0.1015090257
H   H19       1.0  0.08830  0.31470  0.66140  1.0000 0.1094975964
H   H20       1.0  0.34130  0.31890  0.65260  1.0000 0.1289250085
H   H21       1.0  0.31400  0.51460  0.59220  1.0000 0.1015090257
H   H22       1.0  0.10470  0.82150  0.40980  1.0000 0.1015090257
H   H23       1.0  0.07540  0.76080  0.29830  1.0000 0.1094975964
H   H24       1.0  0.13110  0.37800  0.35400  1.0000 0.1094975964
H   H25       1.0  0.15200  0.43910  0.46390  1.0000 0.1015090257
H   H26       1.0  0.09170  0.53890  0.27030  1.0000 0.1015090257
H   H27       1.0  0.27140  0.83320  0.65320  1.0000 0.1015090257
H   H28       1.0  0.97360  0.76220  0.47190  1.0000 0.1015090257
H   H29       1.0  0.85580  0.84480  0.50590  1.0000 0.1289250085
H   H30       1.0  0.41180  0.92510  0.68590  1.0000 0.1289250085
H   H31       1.0  0.13830  0.83040  0.65310  1.0000 0.1015090257
H   H32       1.0  0.02480  0.92220  0.68480  1.0000 0.1389325886
H   H33       1.0  0.44190  0.84960  0.50480  1.0000 0.1191386982
H   H34       1.0  0.29630  0.75970  0.47410  1.0000 0.1015090257
H   H35       1.0  0.06090  0.49060  0.10080  1.0000 0.1015090257
H   H36       1.0  0.08830  0.68530  0.16140  1.0000 0.1094975964
H   H37       1.0  0.34130  0.68110  0.15260  1.0000 0.1289250085
H   H38       1.0  0.31400  0.48540  0.09220  1.0000 0.1015090257
H   H39       1.0  0.10470  0.17850  0.90980  1.0000 0.1015090257
H   H40       1.0  0.07540  0.23920  0.79830  1.0000 0.1094975964
H   H41       1.0  0.13110  0.62200  0.85400  1.0000 0.1015090257
H   H42       1.0  0.15200  0.56090  0.96390  1.0000 0.1015090257
H   H43       1.0  0.09170  0.46110  0.77030  1.0000 0.1015090257
H   H44       1.0  0.27140  0.16680  0.15320  1.0000 0.1015090257
H   H45       1.0  0.97360  0.23780  0.97190  1.0000 0.1015090257
H   H46       1.0  0.85580  0.15520  0.00590  1.0000 0.1289250085
H   H47       1.0  0.41180  0.07490  0.18590  1.0000 0.1289250085
H   H48       1.0  0.13830  0.16960  0.15310  1.0000 0.1015090257
H   H49       1.0  0.02480  0.07780  0.18480  1.0000 0.1389325886
H   H50       1.0  0.44190  0.15040  0.00480  1.0000 0.1191386982
H   H51       1.0  0.29630  0.24030  0.97410  1.0000 0.1015090257
H   H52       1.0  0.93910  0.49060  0.39920  1.0000 0.1015090257
H   H53       1.0  0.91170  0.68530  0.33860  1.0000 0.1094975964
H   H54       1.0  0.65870  0.68110  0.34740  1.0000 0.1289250085
H   H55       1.0  0.68600  0.48540  0.40780  1.0000 0.1015090257
H   H56       1.0  0.89530  0.17850  0.59020  1.0000 0.1015090257
H   H57       1.0  0.92460  0.23920  0.70170  1.0000 0.1094975964
H   H58       1.0  0.86890  0.62200  0.64600  1.0000 0.1015090257
H   H59       1.0  0.84800  0.56090  0.53610  1.0000 0.1015090257
H   H60       1.0  0.90830  0.46110  0.72970  1.0000 0.1015090257
H   H61       1.0  0.72860  0.16680  0.34680  1.0000 0.1015090257
H   H62       1.0  0.02640  0.23780  0.52810  1.0000 0.1015090257
H   H63       1.0  0.14420  0.15520  0.49410  1.0000 0.1289250085
H   H64       1.0  0.58820  0.07490  0.31410  1.0000 0.1289250085
H   H65       1.0  0.86170  0.16960  0.34690  1.0000 0.1015090257
H   H66       1.0  0.97520  0.07780  0.31520  1.0000 0.1389325886
H   H67       1.0  0.55810  0.15040  0.49520  1.0000 0.1191386982
H   H68       1.0  0.70370  0.24030  0.52590  1.0000 0.1015090257
C   C1        1.0  0.81540  0.53620  0.91000  1.0000 -0.2105066002
C   C2        1.0  0.88120  0.47140  0.88830  1.0000 -0.0921681539
C   C3        1.0  0.86540  0.35660  0.85220  1.0000 -0.1207603187
C   C4        1.0  0.77860  0.30040  0.83510  1.0000 -0.0204280687
C   C5        1.0  0.71610  0.35870  0.85710  1.0000 -0.1011036552
C   C6        1.0  0.73250  0.47510  0.89360  1.0000 -0.0921681539
C   C7        1.0  0.86710  0.63830  0.05200  1.0000 -0.2105066002
C   C8        1.0  0.89040  0.73020  0.10130  1.0000 -0.1011036552
C   C9        1.0  0.90720  0.69450  0.16800  1.0000 -0.1011036552
C   C10       1.0  0.87540  0.46900  0.13520  1.0000 -0.0921681539
C   C11       1.0  0.86160  0.50590  0.06960  1.0000 -0.0921681539
C   C12       1.0  0.89850  0.56390  0.18470  1.0000 -0.0921681539
C   C13       1.0  0.72950  0.78510  0.94030  1.0000 -0.2021036287
C   C14       1.0  0.69390  0.83500  0.87710  1.0000 -0.1011036552
C   C15       1.0  0.93050  0.78350  0.94040  1.0000 -0.2021036287
C   C16       1.0  0.14670  0.92530  0.87350  1.0000 0.5203299551
C   C17       1.0  0.01610  0.79140  0.98360  1.0000 -0.1011036552
C   C18       1.0  0.08630  0.84050  0.96360  1.0000 -0.109902094
C   C19       1.0  0.07230  0.88310  0.89940  1.0000 -0.0204280687
C   C20       1.0  0.46330  0.93820  0.87460  1.0000 0.5384342997
C   C21       1.0  0.60980  0.88700  0.85710  1.0000 -0.1011036552
C   C22       1.0  0.91930  0.83280  0.87770  1.0000 -0.0846076355
C   C23       1.0  0.98680  0.88420  0.85830  1.0000 -0.109902094
C   C24       1.0  0.75990  0.18020  0.79190  1.0000 0.5203299551
C   C25       1.0  0.55530  0.88500  0.89900  1.0000 -0.011622163
C   C26       1.0  0.59110  0.84360  0.96380  1.0000 -0.1011036552
C   C27       1.0  0.67930  0.79160  0.98190  1.0000 -0.1011036552
C   C28       1.0  0.18460  0.53620  0.59000  1.0000 -0.2105066002
C   C29       1.0  0.11880  0.47140  0.61170  1.0000 -0.0921681539
C   C30       1.0  0.13460  0.35660  0.64780  1.0000 -0.1207603187
C   C31       1.0  0.22140  0.30040  0.66490  1.0000 -0.0204280687
C   C32       1.0  0.28390  0.35870  0.64290  1.0000 -0.1011036552
C   C33       1.0  0.26750  0.47510  0.60640  1.0000 -0.0921681539
C   C34       1.0  0.13290  0.63830  0.44800  1.0000 -0.2105066002
C   C35       1.0  0.10960  0.73020  0.39870  1.0000 -0.1011036552
C   C36       1.0  0.09280  0.69450  0.33200  1.0000 -0.1011036552
C   C37       1.0  0.12460  0.46900  0.36480  1.0000 -0.0921681539
C   C38       1.0  0.13840  0.50590  0.43040  1.0000 -0.0921681539
C   C39       1.0  0.10150  0.56390  0.31530  1.0000 -0.0921681539
C   C40       1.0  0.27050  0.78510  0.55970  1.0000 -0.2021036287
C   C41       1.0  0.30610  0.83500  0.62290  1.0000 -0.1011036552
C   C42       1.0  0.06950  0.78350  0.55960  1.0000 -0.2021036287
C   C43       1.0  0.85330  0.92530  0.62650  1.0000 0.5203299551
C   C44       1.0  0.98390  0.79140  0.51640  1.0000 -0.1011036552
C   C45       1.0  0.91370  0.84050  0.53640  1.0000 -0.109902094
C   C46       1.0  0.92770  0.88310  0.60060  1.0000 -0.0204280687
C   C47       1.0  0.53670  0.93820  0.62540  1.0000 0.5384342997
C   C48       1.0  0.39020  0.88700  0.64290  1.0000 -0.1011036552
C   C49       1.0  0.08070  0.83280  0.62230  1.0000 -0.0846076355
C   C50       1.0  0.01320  0.88420  0.64170  1.0000 -0.109902094
C   C51       1.0  0.24010  0.18020  0.70810  1.0000 0.5203299551
C   C52       1.0  0.44470  0.88500  0.60100  1.0000 -0.011622163
C   C53       1.0  0.40890  0.84360  0.53620  1.0000 -0.1011036552
C   C54       1.0  0.32070  0.79160  0.51810  1.0000 -0.1011036552
C   C55       1.0  0.18460  0.46380  0.09000  1.0000 -0.2105066002
C   C56       1.0  0.11880  0.52860  0.11170  1.0000 -0.0921681539
C   C57       1.0  0.13460  0.64340  0.14780  1.0000 -0.1207603187
C   C58       1.0  0.22140  0.69960  0.16490  1.0000 -0.0204280687
C   C59       1.0  0.28390  0.64130  0.14290  1.0000 -0.1011036552
C   C60       1.0  0.26750  0.52490  0.10640  1.0000 -0.0921681539
C   C61       1.0  0.13290  0.36170  0.94800  1.0000 -0.2105066002
C   C62       1.0  0.10960  0.26980  0.89870  1.0000 -0.1011036552
C   C63       1.0  0.09280  0.30550  0.83200  1.0000 -0.1011036552
C   C64       1.0  0.12460  0.53100  0.86480  1.0000 -0.0921681539
C   C65       1.0  0.13840  0.49410  0.93040  1.0000 -0.0921681539
C   C66       1.0  0.10150  0.43610  0.81530  1.0000 -0.0921681539
C   C67       1.0  0.27050  0.21490  0.05970  1.0000 -0.2021036287
C   C68       1.0  0.30610  0.16500  0.12290  1.0000 -0.1011036552
C   C69       1.0  0.06950  0.21650  0.05960  1.0000 -0.2021036287
C   C70       1.0  0.85330  0.07470  0.12650  1.0000 0.5203299551
C   C71       1.0  0.98390  0.20860  0.01640  1.0000 -0.1011036552
C   C72       1.0  0.91370  0.15950  0.03640  1.0000 -0.109902094
C   C73       1.0  0.92770  0.11690  0.10060  1.0000 -0.0204280687
C   C74       1.0  0.53670  0.06180  0.12540  1.0000 0.5384342997
C   C75       1.0  0.39020  0.11300  0.14290  1.0000 -0.1011036552
C   C76       1.0  0.08070  0.16720  0.12230  1.0000 -0.0846076355
C   C77       1.0  0.01320  0.11580  0.14170  1.0000 -0.109902094
C   C78       1.0  0.24010  0.81980  0.20810  1.0000 0.5203299551
C   C79       1.0  0.44470  0.11500  0.10100  1.0000 -0.011622163
C   C80       1.0  0.40890  0.15640  0.03620  1.0000 -0.1011036552
C   C81       1.0  0.32070  0.20840  0.01810  1.0000 -0.1011036552
C   C82       1.0  0.81540  0.46380  0.41000  1.0000 -0.2105066002
C   C83       1.0  0.88120  0.52860  0.38830  1.0000 -0.0921681539
C   C84       1.0  0.86540  0.64340  0.35220  1.0000 -0.1207603187
C   C85       1.0  0.77860  0.69960  0.33510  1.0000 -0.0204280687
C   C86       1.0  0.71610  0.64130  0.35710  1.0000 -0.1011036552
C   C87       1.0  0.73250  0.52490  0.39360  1.0000 -0.0921681539
C   C88       1.0  0.86710  0.36170  0.55200  1.0000 -0.2105066002
C   C89       1.0  0.89040  0.26980  0.60130  1.0000 -0.1011036552
C   C90       1.0  0.90720  0.30550  0.66800  1.0000 -0.1011036552
C   C91       1.0  0.87540  0.53100  0.63520  1.0000 -0.0921681539
C   C92       1.0  0.86160  0.49410  0.56960  1.0000 -0.0921681539
C   C93       1.0  0.89850  0.43610  0.68470  1.0000 -0.0921681539
C   C94       1.0  0.72950  0.21490  0.44030  1.0000 -0.2021036287
C   C95       1.0  0.69390  0.16500  0.37710  1.0000 -0.1011036552
C   C96       1.0  0.93050  0.21650  0.44040  1.0000 -0.2021036287
C   C97       1.0  0.14670  0.07470  0.37350  1.0000 0.5203299551
C   C98       1.0  0.01610  0.20860  0.48360  1.0000 -0.1011036552
C   C99       1.0  0.08630  0.15950  0.46360  1.0000 -0.109902094
C   C100      1.0  0.07230  0.11690  0.39940  1.0000 -0.0204280687
C   C101      1.0  0.46330  0.06180  0.37460  1.0000 0.5384342997
C   C102      1.0  0.60980  0.11300  0.35710  1.0000 -0.1011036552
C   C103      1.0  0.91930  0.16720  0.37770  1.0000 -0.0846076355
C   C104      1.0  0.98680  0.11580  0.35830  1.0000 -0.109902094
C   C105      1.0  0.75990  0.81980  0.29190  1.0000 0.5203299551
C   C106      1.0  0.55530  0.11500  0.39900  1.0000 -0.011622163
C   C107      1.0  0.59110  0.15640  0.46380  1.0000 -0.1011036552
C   C108      1.0  0.67930  0.20840  0.48190  1.0000 -0.1011036552
O   O1        1.0  0.43980  0.00120  0.82090  1.0000 -0.5710569592
O   O2        1.0  0.82150  0.12140  0.77520  1.0000 -0.5757639454
O   O3        1.0  0.13010  0.98500  0.81860  1.0000 -0.5710569592
O   O4        1.0  0.22620  0.90210  0.90470  1.0000 -0.5593979082
O   O5        1.0  0.40710  0.90800  0.90480  1.0000 -0.5757639454
O   O6        1.0  0.68110  0.13520  0.77150  1.0000 -0.5593979082
O   O7        1.0  0.56020  0.00120  0.67910  1.0000 -0.5710569592
O   O8        1.0  0.17850  0.12140  0.72480  1.0000 -0.5757639454
O   O9        1.0  0.86990  0.98500  0.68140  1.0000 -0.5710569592
O   O10       1.0  0.77380  0.90210  0.59530  1.0000 -0.5593979082
O   O11       1.0  0.59290  0.90800  0.59520  1.0000 -0.5757639454
O   O12       1.0  0.31890  0.13520  0.72850  1.0000 -0.5593979082
O   O13       1.0  0.56020  0.99880  0.17910  1.0000 -0.5710569592
O   O14       1.0  0.17850  0.87860  0.22480  1.0000 -0.5757639454
O   O15       1.0  0.86990  0.01500  0.18140  1.0000 -0.5710569592
O   O16       1.0  0.77380  0.09790  0.09530  1.0000 -0.554422778
O   O17       1.0  0.59290  0.09200  0.09520  1.0000 -0.5757639454
O   O18       1.0  0.31890  0.86480  0.22850  1.0000 -0.5593979082
O   O19       1.0  0.43980  0.99880  0.32090  1.0000 -0.5710569592
O   O20       1.0  0.82150  0.87860  0.27520  1.0000 -0.5757639454
O   O21       1.0  0.13010  0.01500  0.31860  1.0000 -0.5710569592
O   O22       1.0  0.22620  0.09790  0.40470  1.0000 -0.554422778
O   O23       1.0  0.40710  0.09200  0.40480  1.0000 -0.5757639454
O   O24       1.0  0.68110  0.86480  0.27150  1.0000 -0.5593979082
