# DDEC6 charges by PACMAN v1.1 (https://github.com/mtap-research/PACMAN-charge/)
data_2018[Co][kgd]2[ASR]1
_chemical_formula_sum              "Co6 H24 C64 N8 O40"
_cell_length_a       12.7452
_cell_length_b       15.551
_cell_length_c       14.3444
_cell_angle_alpha    90
_cell_angle_beta     115.282
_cell_angle_gamma    90

_symmetry_space_group_name_H-M    "P 1"
_symmetry_Int_Tables_number       1

loop_
  _symmetry_equiv_pos_as_xyz
  'x, y, z'

loop_
  _atom_site_type_symbol
  _atom_site_label
  _atom_site_symmetry_multiplicity
  _atom_site_fract_x
  _atom_site_fract_y
  _atom_site_fract_z
  _atom_site_occupancy
  _atom_site_charge
Co  Co1       1.0  0.01057  0.54457  0.76654  1.0000 0.9970975956
Co  Co2       1.0  0.48943  0.04457  0.23346  1.0000 0.9970975956
Co  Co3       1.0  0.98943  0.45543  0.23346  1.0000 0.9970975956
Co  Co4       1.0  0.51057  0.95543  0.76654  1.0000 0.9970975956
Co  Co5       1.0  0.00000  0.50000  0.00000  1.0000 1.0873635998
Co  Co6       1.0  0.50000  0.00000  0.00000  1.0000 1.0873635998
H   H1        1.0  0.23730  0.78560  0.94270  1.0000 0.1392706772
H   H2        1.0  0.18890  0.90980  0.16660  1.0000 0.1653928449
H   H3        1.0  0.99520  0.70280  0.03200  1.0000 0.1460529426
H   H4        1.0  0.81670  0.88260  0.15940  1.0000 0.1460529426
H   H5        1.0  0.70820  0.80490  0.37010  1.0000 0.1392706772
H   H6        1.0  0.95550  0.67130  0.33020  1.0000 0.1567121586
H   H7        1.0  0.26270  0.28560  0.05730  1.0000 0.1392706772
H   H8        1.0  0.31110  0.40980  0.83340  1.0000 0.1653928449
H   H9        1.0  0.50480  0.20280  0.96800  1.0000 0.1460529426
H   H10       1.0  0.68330  0.38260  0.84060  1.0000 0.1460529426
H   H11       1.0  0.79180  0.30490  0.62990  1.0000 0.1392706772
H   H12       1.0  0.54450  0.17130  0.66980  1.0000 0.1567121586
H   H13       1.0  0.76270  0.21440  0.05730  1.0000 0.1392706772
H   H14       1.0  0.81110  0.09020  0.83340  1.0000 0.1653928449
H   H15       1.0  0.00480  0.29720  0.96800  1.0000 0.1460529426
H   H16       1.0  0.18330  0.11740  0.84060  1.0000 0.1460529426
H   H17       1.0  0.29180  0.19510  0.62990  1.0000 0.1392706772
H   H18       1.0  0.04450  0.32870  0.66980  1.0000 0.1567121586
H   H19       1.0  0.73730  0.71440  0.94270  1.0000 0.1392706772
H   H20       1.0  0.68890  0.59020  0.16660  1.0000 0.1653928449
H   H21       1.0  0.49520  0.79720  0.03200  1.0000 0.1460529426
H   H22       1.0  0.31670  0.61740  0.15940  1.0000 0.1460529426
H   H23       1.0  0.20820  0.69510  0.37010  1.0000 0.1392706772
H   H24       1.0  0.45550  0.82870  0.33020  1.0000 0.1567121586
C   C1        1.0  0.08320  0.65910  0.90250  1.0000 0.5828491142
C   C2        1.0  0.11420  0.73180  0.97770  1.0000 0.0106762458
C   C3        1.0  0.19960  0.79070  0.98550  1.0000 -0.1208191179
C   C4        1.0  0.22940  0.85770  0.05760  1.0000 -0.0047993823
C   C5        1.0  0.17020  0.86570  0.11840  1.0000 -0.1307367003
C   C6        1.0  0.08290  0.80790  0.10760  1.0000 0.0817843666
C   C7        1.0  0.05400  0.74110  0.03830  1.0000 -0.1677845683
C   C8        1.0  0.32570  0.92030  0.07370  1.0000 0.5879354691
C   C9        1.0  0.90000  0.77670  0.24000  1.0000 0.0715126647
C   C10       1.0  0.82040  0.84420  0.21040  1.0000 -0.1677845683
C   C11       1.0  0.74670  0.85330  0.25850  1.0000 -0.0068305409
C   C12       1.0  0.75540  0.79700  0.33610  1.0000 -0.1307367003
C   C13       1.0  0.83320  0.72880  0.36410  1.0000 0.0106762458
C   C14       1.0  0.90490  0.71780  0.31400  1.0000 -0.1378231877
C   C15       1.0  0.83670  0.66460  0.44420  1.0000 0.568284312
C   C16       1.0  0.65340  0.92070  0.21850  1.0000 0.5879354691
C   C17       1.0  0.41680  0.15910  0.09750  1.0000 0.5828491142
C   C18       1.0  0.38580  0.23180  0.02230  1.0000 0.0106762458
C   C19       1.0  0.30040  0.29070  0.01450  1.0000 -0.1208191179
C   C20       1.0  0.27060  0.35770  0.94240  1.0000 -0.0047993823
C   C21       1.0  0.32980  0.36570  0.88160  1.0000 -0.1307367003
C   C22       1.0  0.41710  0.30790  0.89240  1.0000 0.0817843666
C   C23       1.0  0.44600  0.24110  0.96170  1.0000 -0.1677845683
C   C24       1.0  0.17430  0.42030  0.92630  1.0000 0.5879354691
C   C25       1.0  0.60000  0.27670  0.76000  1.0000 0.0715126647
C   C26       1.0  0.67960  0.34420  0.78960  1.0000 -0.1677845683
C   C27       1.0  0.75330  0.35330  0.74150  1.0000 -0.0068305409
C   C28       1.0  0.74460  0.29700  0.66390  1.0000 -0.1307367003
C   C29       1.0  0.66680  0.22880  0.63590  1.0000 0.0106762458
C   C30       1.0  0.59510  0.21780  0.68600  1.0000 -0.1378231877
C   C31       1.0  0.66330  0.16460  0.55580  1.0000 0.5640963903
C   C32       1.0  0.84660  0.42070  0.78150  1.0000 0.5879354691
C   C33       1.0  0.91680  0.34090  0.09750  1.0000 0.5828491142
C   C34       1.0  0.88580  0.26820  0.02230  1.0000 0.0106762458
C   C35       1.0  0.80040  0.20930  0.01450  1.0000 -0.1208191179
C   C36       1.0  0.77060  0.14230  0.94240  1.0000 -0.0047993823
C   C37       1.0  0.82980  0.13430  0.88160  1.0000 -0.1307367003
C   C38       1.0  0.91710  0.19210  0.89240  1.0000 0.0817843666
C   C39       1.0  0.94600  0.25890  0.96170  1.0000 -0.1648482243
C   C40       1.0  0.67430  0.07970  0.92630  1.0000 0.5879354691
C   C41       1.0  0.10000  0.22330  0.76000  1.0000 0.0715126647
C   C42       1.0  0.17960  0.15580  0.78960  1.0000 -0.1677845683
C   C43       1.0  0.25330  0.14670  0.74150  1.0000 -0.0068305409
C   C44       1.0  0.24460  0.20300  0.66390  1.0000 -0.1307367003
C   C45       1.0  0.16680  0.27120  0.63590  1.0000 0.0106762458
C   C46       1.0  0.09510  0.28220  0.68600  1.0000 -0.1378231877
C   C47       1.0  0.16330  0.33540  0.55580  1.0000 0.568284312
C   C48       1.0  0.34660  0.07930  0.78150  1.0000 0.5879354691
C   C49       1.0  0.58320  0.84090  0.90250  1.0000 0.5828491142
C   C50       1.0  0.61420  0.76820  0.97770  1.0000 0.0106762458
C   C51       1.0  0.69960  0.70930  0.98550  1.0000 -0.1208191179
C   C52       1.0  0.72940  0.64230  0.05760  1.0000 -0.0068305409
C   C53       1.0  0.67020  0.63430  0.11840  1.0000 -0.1307367003
C   C54       1.0  0.58290  0.69210  0.10760  1.0000 0.0817843666
C   C55       1.0  0.55400  0.75890  0.03830  1.0000 -0.1677845683
C   C56       1.0  0.82570  0.57970  0.07370  1.0000 0.5879354691
C   C57       1.0  0.40000  0.72330  0.24000  1.0000 0.0715126647
C   C58       1.0  0.32040  0.65580  0.21040  1.0000 -0.1677845683
C   C59       1.0  0.24670  0.64670  0.25850  1.0000 -0.0068305409
C   C60       1.0  0.25540  0.70300  0.33610  1.0000 -0.1307367003
C   C61       1.0  0.33320  0.77120  0.36410  1.0000 0.0106762458
C   C62       1.0  0.40490  0.78220  0.31400  1.0000 -0.1378231877
C   C63       1.0  0.33670  0.83540  0.44420  1.0000 0.568284312
C   C64       1.0  0.15340  0.57930  0.21850  1.0000 0.5879354691
N   N1        1.0  0.02130  0.82230  0.17130  1.0000 0.2996190628
N   N2        1.0  0.96860  0.76040  0.18490  1.0000 0.2996190628
N   N3        1.0  0.47870  0.32230  0.82870  1.0000 0.2996190628
N   N4        1.0  0.53140  0.26040  0.81510  1.0000 0.2996190628
N   N5        1.0  0.97870  0.17770  0.82870  1.0000 0.2996190628
N   N6        1.0  0.03140  0.23960  0.81510  1.0000 0.2996190628
N   N7        1.0  0.52130  0.67770  0.17130  1.0000 0.2996190628
N   N8        1.0  0.46860  0.73960  0.18490  1.0000 0.2996190628
O   O1        1.0  0.01560  0.59976  0.90580  1.0000 -0.5909191379
O   O2        1.0  0.11960  0.65736  0.83464  1.0000 -0.4972695233
O   O3        1.0  0.36508  0.92448  0.00730  1.0000 -0.5454390654
O   O4        1.0  0.35760  0.96406  0.15450  1.0000 -0.5373647699
O   O5        1.0  0.89140  0.59530  0.45360  1.0000 -0.4972695233
O   O6        1.0  0.78600  0.68360  0.49800  1.0000 -0.5064353952
O   O7        1.0  0.62549  0.94539  0.12830  1.0000 -0.563773335
O   O8        1.0  0.61050  0.94773  0.27815  1.0000 -0.534967781
O   O9        1.0  0.04180  0.88940  0.22280  1.0000 -0.2714313055
O   O10       1.0  0.99870  0.69330  0.18800  1.0000 -0.1208191179
O   O11       1.0  0.48440  0.09976  0.09420  1.0000 -0.5909191379
O   O12       1.0  0.38040  0.15736  0.16536  1.0000 -0.4972695233
O   O13       1.0  0.13492  0.42448  0.99270  1.0000 -0.5454390654
O   O14       1.0  0.14240  0.46406  0.84550  1.0000 -0.5373647699
O   O15       1.0  0.60860  0.09530  0.54640  1.0000 -0.4972695233
O   O16       1.0  0.71400  0.18360  0.50200  1.0000 -0.5064353952
O   O17       1.0  0.87451  0.44539  0.87170  1.0000 -0.563773335
O   O18       1.0  0.88950  0.44773  0.72185  1.0000 -0.534967781
O   O19       1.0  0.45820  0.38940  0.77720  1.0000 -0.2714313055
O   O20       1.0  0.50130  0.19330  0.81200  1.0000 -0.1208191179
O   O21       1.0  0.98440  0.40024  0.09420  1.0000 -0.5909191379
O   O22       1.0  0.88040  0.34264  0.16536  1.0000 -0.4972695233
O   O23       1.0  0.63492  0.07552  0.99270  1.0000 -0.5454390654
O   O24       1.0  0.64240  0.03594  0.84550  1.0000 -0.5373647699
O   O25       1.0  0.10860  0.40470  0.54640  1.0000 -0.4972695233
O   O26       1.0  0.21400  0.31640  0.50200  1.0000 -0.5064353952
O   O27       1.0  0.37451  0.05461  0.87170  1.0000 -0.563773335
O   O28       1.0  0.38950  0.05227  0.72185  1.0000 -0.5373647699
O   O29       1.0  0.95820  0.11060  0.77720  1.0000 -0.2714313055
O   O30       1.0  0.00130  0.30670  0.81200  1.0000 -0.1208191179
O   O31       1.0  0.51560  0.90024  0.90580  1.0000 -0.5909191379
O   O32       1.0  0.61960  0.84264  0.83464  1.0000 -0.4972695233
O   O33       1.0  0.86508  0.57552  0.00730  1.0000 -0.5454390654
O   O34       1.0  0.85760  0.53594  0.15450  1.0000 -0.5373647699
O   O35       1.0  0.39140  0.90470  0.45360  1.0000 -0.4972695233
O   O36       1.0  0.28600  0.81640  0.49800  1.0000 -0.5064353952
O   O37       1.0  0.12549  0.55461  0.12830  1.0000 -0.563773335
O   O38       1.0  0.11050  0.55227  0.27815  1.0000 -0.534967781
O   O39       1.0  0.54180  0.61060  0.22280  1.0000 -0.2714313055
O   O40       1.0  0.49870  0.80670  0.18800  1.0000 -0.1208191179
