# DDEC6 charges by PACMAN v1.1 (https://github.com/mtap-research/PACMAN-charge/)
data_2018[Mn][sra]3[ASR]1
_chemical_formula_sum              "Mn4 H40 C88 O32"
_cell_length_a       15.681
_cell_length_b       9.294
_cell_length_c       19.7096
_cell_angle_alpha    90
_cell_angle_beta     116.674
_cell_angle_gamma    90

_symmetry_space_group_name_H-M    "P 1"
_symmetry_Int_Tables_number       1

loop_
  _symmetry_equiv_pos_as_xyz
  'x, y, z'

loop_
  _atom_site_type_symbol
  _atom_site_label
  _atom_site_symmetry_multiplicity
  _atom_site_fract_x
  _atom_site_fract_y
  _atom_site_fract_z
  _atom_site_occupancy
  _atom_site_charge
Mn  Mn1       1.0  0.76199  0.92466  0.63472  1.0000 1.0440055564
Mn  Mn2       1.0  0.23801  0.42466  0.86528  1.0000 1.0440055564
Mn  Mn3       1.0  0.23801  0.07534  0.36528  1.0000 1.0440055564
Mn  Mn4       1.0  0.76199  0.57534  0.13472  1.0000 1.0440055564
H   H1        1.0  0.85220  0.72730  0.53080  1.0000 0.1198752427
H   H2        1.0  0.37900  0.55470  0.18270  1.0000 0.1198752427
H   H3        1.0  0.53440  0.86140  0.38730  1.0000 0.1283440848
H   H4        1.0  0.68080  0.67900  0.27190  1.0000 0.1198752427
H   H5        1.0  0.97860  0.87870  0.39860  1.0000 0.1283440848
H   H6        1.0  0.00100  0.60270  0.56180  1.0000 0.1283440848
H   H7        1.0  0.23700  0.78250  0.56720  1.0000 0.1198752427
H   H8        1.0  0.54360  0.54570  0.25070  1.0000 0.1147460737
H   H9        1.0  0.29120  0.70230  0.22150  1.0000 0.1198752427
H   H10       1.0  0.16370  0.63460  0.62070  1.0000 0.1198752427
H   H11       1.0  0.14780  0.22730  0.96920  1.0000 0.1198752427
H   H12       1.0  0.62100  0.05470  0.31730  1.0000 0.1198752427
H   H13       1.0  0.46560  0.36140  0.11270  1.0000 0.1283440848
H   H14       1.0  0.31920  0.17900  0.22810  1.0000 0.1198752427
H   H15       1.0  0.02140  0.37870  0.10140  1.0000 0.1283440848
H   H16       1.0  0.99900  0.10270  0.93820  1.0000 0.1283440848
H   H17       1.0  0.76300  0.28250  0.93280  1.0000 0.1198752427
H   H18       1.0  0.45640  0.04570  0.24930  1.0000 0.1147460737
H   H19       1.0  0.70880  0.20230  0.27850  1.0000 0.1198752427
H   H20       1.0  0.83630  0.13460  0.87930  1.0000 0.1198752427
H   H21       1.0  0.14780  0.27270  0.46920  1.0000 0.1198752427
H   H22       1.0  0.62100  0.44530  0.81730  1.0000 0.1198752427
H   H23       1.0  0.46560  0.13860  0.61270  1.0000 0.1283440848
H   H24       1.0  0.31920  0.32100  0.72810  1.0000 0.1198752427
H   H25       1.0  0.02140  0.12130  0.60140  1.0000 0.1283440848
H   H26       1.0  0.99900  0.39730  0.43820  1.0000 0.1283440848
H   H27       1.0  0.76300  0.21750  0.43280  1.0000 0.1198752427
H   H28       1.0  0.45640  0.45430  0.74930  1.0000 0.1147460737
H   H29       1.0  0.70880  0.29770  0.77850  1.0000 0.1198752427
H   H30       1.0  0.83630  0.36540  0.37930  1.0000 0.1198752427
H   H31       1.0  0.85220  0.77270  0.03080  1.0000 0.1198752427
H   H32       1.0  0.37900  0.94530  0.68270  1.0000 0.1198752427
H   H33       1.0  0.53440  0.63860  0.88730  1.0000 0.1283440848
H   H34       1.0  0.68080  0.82100  0.77190  1.0000 0.1198752427
H   H35       1.0  0.97860  0.62130  0.89860  1.0000 0.1283440848
H   H36       1.0  0.00100  0.89730  0.06180  1.0000 0.1283440848
H   H37       1.0  0.23700  0.71750  0.06720  1.0000 0.1198752427
H   H38       1.0  0.54360  0.95430  0.75070  1.0000 0.1147460737
H   H39       1.0  0.29120  0.79770  0.72150  1.0000 0.1198752427
H   H40       1.0  0.16370  0.86540  0.12070  1.0000 0.1198752427
C   C1        1.0  0.81330  0.69340  0.35550  1.0000 -0.040096046
C   C2        1.0  0.34560  0.90160  0.33060  1.0000 0.5205541387
C   C3        1.0  0.67430  0.68750  0.50180  1.0000 0.5571049586
C   C4        1.0  0.81760  0.71730  0.47850  1.0000 -0.1218154147
C   C5        1.0  0.41010  0.61370  0.22490  1.0000 -0.081952497
C   C6        1.0  0.97260  0.73470  0.47210  1.0000 0.0687883839
C   C7        1.0  0.86800  0.71410  0.43440  1.0000 0.0610988225
C   C8        1.0  0.50340  0.79790  0.34710  1.0000 -0.1218154147
C   C9        1.0  0.11420  0.84470  0.47570  1.0000 0.0234469198
C   C10       1.0  0.71530  0.68920  0.32430  1.0000 -0.1393402867
C   C11       1.0  0.71800  0.70610  0.44730  1.0000 -0.0267677359
C   C12       1.0  0.55730  0.70200  0.32710  1.0000 0.0687883839
C   C13       1.0  0.85880  0.66130  0.30190  1.0000 0.5547415748
C   C14       1.0  0.01630  0.82700  0.44240  1.0000 -0.1275604904
C   C15       1.0  0.40410  0.79930  0.30760  1.0000 0.0056208322
C   C16       1.0  0.66450  0.69940  0.36740  1.0000 0.0610988225
C   C17       1.0  0.02940  0.66320  0.54020  1.0000 -0.1048491016
C   C18       1.0  0.17100  0.77150  0.54370  1.0000 -0.0717228666
C   C19       1.0  0.50910  0.60980  0.26500  1.0000 -0.1081529945
C   C20       1.0  0.35750  0.70430  0.24690  1.0000 -0.081952497
C   C21       1.0  0.12680  0.68210  0.57530  1.0000 -0.0611626176
C   C22       1.0  0.16210  0.93350  0.43820  1.0000 0.5205541387
C   C23       1.0  0.18670  0.19340  0.14450  1.0000 -0.040096046
C   C24       1.0  0.65440  0.40160  0.16940  1.0000 0.5205541387
C   C25       1.0  0.32570  0.18750  0.99820  1.0000 0.5571049586
C   C26       1.0  0.18240  0.21730  0.02150  1.0000 -0.1218154147
C   C27       1.0  0.58990  0.11370  0.27510  1.0000 -0.081952497
C   C28       1.0  0.02740  0.23470  0.02790  1.0000 0.0687883839
C   C29       1.0  0.13200  0.21410  0.06560  1.0000 0.0687883839
C   C30       1.0  0.49660  0.29790  0.15290  1.0000 -0.1218154147
C   C31       1.0  0.88580  0.34470  0.02430  1.0000 0.0234469198
C   C32       1.0  0.28470  0.18920  0.17570  1.0000 -0.1393402867
C   C33       1.0  0.28200  0.20610  0.05270  1.0000 -0.0267677359
C   C34       1.0  0.44270  0.20200  0.17290  1.0000 0.0687883839
C   C35       1.0  0.14120  0.16130  0.19810  1.0000 0.5571049586
C   C36       1.0  0.98370  0.32700  0.05760  1.0000 -0.1275604904
C   C37       1.0  0.59590  0.29930  0.19240  1.0000 0.0056208322
C   C38       1.0  0.33550  0.19940  0.13260  1.0000 0.0610988225
C   C39       1.0  0.97060  0.16320  0.95980  1.0000 -0.1048491016
C   C40       1.0  0.82900  0.27150  0.95630  1.0000 -0.0717228666
C   C41       1.0  0.49090  0.10980  0.23500  1.0000 -0.1081529945
C   C42       1.0  0.64250  0.20430  0.25310  1.0000 -0.081952497
C   C43       1.0  0.87320  0.18210  0.92470  1.0000 -0.0611626176
C   C44       1.0  0.83790  0.43350  0.06180  1.0000 0.5205541387
C   C45       1.0  0.18670  0.30660  0.64450  1.0000 -0.040096046
C   C46       1.0  0.65440  0.09840  0.66940  1.0000 0.5205541387
C   C47       1.0  0.32570  0.31250  0.49820  1.0000 0.5571049586
C   C48       1.0  0.18240  0.28270  0.52150  1.0000 -0.1218154147
C   C49       1.0  0.58990  0.38630  0.77510  1.0000 -0.081952497
C   C50       1.0  0.02740  0.26530  0.52790  1.0000 0.0687883839
C   C51       1.0  0.13200  0.28590  0.56560  1.0000 0.0687883839
C   C52       1.0  0.49660  0.20210  0.65290  1.0000 -0.1218154147
C   C53       1.0  0.88580  0.15530  0.52430  1.0000 0.0234469198
C   C54       1.0  0.28470  0.31080  0.67570  1.0000 -0.1393402867
C   C55       1.0  0.28200  0.29390  0.55270  1.0000 -0.0267677359
C   C56       1.0  0.44270  0.29800  0.67290  1.0000 0.0687883839
C   C57       1.0  0.14120  0.33870  0.69810  1.0000 0.5571049586
C   C58       1.0  0.98370  0.17300  0.55760  1.0000 -0.1275604904
C   C59       1.0  0.59590  0.20070  0.69240  1.0000 0.0056208322
C   C60       1.0  0.33550  0.30060  0.63260  1.0000 0.0610988225
C   C61       1.0  0.97060  0.33680  0.45980  1.0000 -0.1048491016
C   C62       1.0  0.82900  0.22850  0.45630  1.0000 -0.0717228666
C   C63       1.0  0.49090  0.39020  0.73500  1.0000 -0.1081529945
C   C64       1.0  0.64250  0.29570  0.75310  1.0000 -0.081952497
C   C65       1.0  0.87320  0.31790  0.42470  1.0000 -0.0611626176
C   C66       1.0  0.83790  0.06650  0.56180  1.0000 0.5205541387
C   C67       1.0  0.81330  0.80660  0.85550  1.0000 -0.040096046
C   C68       1.0  0.34560  0.59840  0.83060  1.0000 0.5205541387
C   C69       1.0  0.67430  0.81250  0.00180  1.0000 0.5571049586
C   C70       1.0  0.81760  0.78270  0.97850  1.0000 -0.1218154147
C   C71       1.0  0.41010  0.88630  0.72490  1.0000 -0.081952497
C   C72       1.0  0.97260  0.76530  0.97210  1.0000 0.0687883839
C   C73       1.0  0.86800  0.78590  0.93440  1.0000 0.0610988225
C   C74       1.0  0.50340  0.70210  0.84710  1.0000 -0.1218154147
C   C75       1.0  0.11420  0.65530  0.97570  1.0000 0.0234469198
C   C76       1.0  0.71530  0.81080  0.82430  1.0000 -0.1393402867
C   C77       1.0  0.71800  0.79390  0.94730  1.0000 -0.0267677359
C   C78       1.0  0.55730  0.79800  0.82710  1.0000 0.0687883839
C   C79       1.0  0.85880  0.83870  0.80190  1.0000 0.5547415748
C   C80       1.0  0.01630  0.67300  0.94240  1.0000 -0.1275604904
C   C81       1.0  0.40410  0.70070  0.80760  1.0000 0.0056208322
C   C82       1.0  0.66450  0.80060  0.86740  1.0000 0.0610988225
C   C83       1.0  0.02940  0.83680  0.04020  1.0000 -0.1048491016
C   C84       1.0  0.17100  0.72850  0.04370  1.0000 -0.0717228666
C   C85       1.0  0.50910  0.89020  0.76500  1.0000 -0.1081529945
C   C86       1.0  0.35750  0.79570  0.74690  1.0000 -0.081952497
C   C87       1.0  0.12680  0.81790  0.07530  1.0000 -0.0611626176
C   C88       1.0  0.16210  0.56650  0.93820  1.0000 0.5205541387
O   O1        1.0  0.81240  0.70210  0.23410  1.0000 -0.477313135
O   O2        1.0  0.71590  0.74100  0.56740  1.0000 -0.477313135
O   O3        1.0  0.38490  0.00570  0.37380  1.0000 -0.4502712317
O   O4        1.0  0.93430  0.59110  0.32680  1.0000 -0.4502712317
O   O5        1.0  0.59950  0.61370  0.48120  1.0000 -0.386582838
O   O6        1.0  0.11150  0.99150  0.37420  1.0000 -0.4432632341
O   O7        1.0  0.25700  0.88010  0.30430  1.0000 -0.477313135
O   O8        1.0  0.24880  0.94900  0.46920  1.0000 -0.4603428855
O   O9        1.0  0.18760  0.20210  0.26590  1.0000 -0.477313135
O   O10       1.0  0.28410  0.24100  0.93260  1.0000 -0.477313135
O   O11       1.0  0.61510  0.50570  0.12620  1.0000 -0.4502712317
O   O12       1.0  0.06570  0.09110  0.17320  1.0000 -0.4502712317
O   O13       1.0  0.40050  0.11370  0.01880  1.0000 -0.386582838
O   O14       1.0  0.88850  0.49150  0.12580  1.0000 -0.4432632341
O   O15       1.0  0.74300  0.38010  0.19570  1.0000 -0.477313135
O   O16       1.0  0.75120  0.44900  0.03080  1.0000 -0.4603428855
O   O17       1.0  0.18760  0.29790  0.76590  1.0000 -0.477313135
O   O18       1.0  0.28410  0.25900  0.43260  1.0000 -0.477313135
O   O19       1.0  0.61510  0.99430  0.62620  1.0000 -0.4502712317
O   O20       1.0  0.06570  0.40890  0.67320  1.0000 -0.4502712317
O   O21       1.0  0.40050  0.38630  0.51880  1.0000 -0.386582838
O   O22       1.0  0.88850  0.00850  0.62580  1.0000 -0.4432632341
O   O23       1.0  0.74300  0.11990  0.69570  1.0000 -0.477313135
O   O24       1.0  0.75120  0.05100  0.53080  1.0000 -0.4603428855
O   O25       1.0  0.81240  0.79790  0.73410  1.0000 -0.477313135
O   O26       1.0  0.71590  0.75900  0.06740  1.0000 -0.477313135
O   O27       1.0  0.38490  0.49430  0.87380  1.0000 -0.4502712317
O   O28       1.0  0.93430  0.90890  0.82680  1.0000 -0.4502712317
O   O29       1.0  0.59950  0.88630  0.98120  1.0000 -0.386582838
O   O30       1.0  0.11150  0.50850  0.87420  1.0000 -0.4432632341
O   O31       1.0  0.25700  0.61990  0.80430  1.0000 -0.477313135
O   O32       1.0  0.24880  0.55100  0.96920  1.0000 -0.4603428855
