# DDEC6 charges by PACMAN v1.1 (https://github.com/mtap-research/PACMAN-charge/)
data_2018[U][hcb]2[ASR]5
_chemical_formula_sum              "U4 H48 C84 O24"
_cell_length_a       25.1709
_cell_length_b       25.1709
_cell_length_c       10.8543
_cell_angle_alpha    89.5834
_cell_angle_beta     90.4166
_cell_angle_gamma    38.8406

_symmetry_space_group_name_H-M    "P 1"
_symmetry_Int_Tables_number       1

loop_
  _symmetry_equiv_pos_as_xyz
  'x, y, z'

loop_
  _atom_site_type_symbol
  _atom_site_label
  _atom_site_symmetry_multiplicity
  _atom_site_fract_x
  _atom_site_fract_y
  _atom_site_fract_z
  _atom_site_occupancy
  _atom_site_charge
U   U1        1.0  0.75641  0.75641  0.75000  1.0000 2.0401033512
U   U2        1.0  0.08775  0.08775  0.75000  1.0000 1.9741375795
U   U3        1.0  0.24359  0.24359  0.25000  1.0000 2.0401033512
U   U4        1.0  0.91225  0.91225  0.25000  1.0000 1.9817087999
H   H1        1.0  0.53549  0.94893  0.41381  1.0000 0.1193915892
H   H2        1.0  0.57939  0.76463  0.51625  1.0000 0.1193915892
H   H3        1.0  0.92892  0.77580  0.89573  1.0000 0.1193915892
H   H4        1.0  0.43223  0.99865  0.27332  1.0000 0.1092987689
H   H5        1.0  0.48445  0.81063  0.36621  1.0000 0.1036987914
H   H6        1.0  0.97633  0.82589  0.89723  1.0000 0.1036987914
H   H7        1.0  0.37618  0.01904  0.11352  1.0000 0.1092987689
H   H8        1.0  0.39049  0.85791  0.24899  1.0000 0.1092987689
H   H9        1.0  0.99057  0.89539  0.92155  1.0000 0.1092987689
H   H10       1.0  0.27907  0.06567  0.96585  1.0000 0.1193915892
H   H11       1.0  0.29418  0.90548  0.10104  1.0000 0.1193915892
H   H12       1.0  0.03732  0.94520  0.92266  1.0000 0.1193915892
H   H13       1.0  0.94893  0.53549  0.08619  1.0000 0.1193915892
H   H14       1.0  0.76463  0.57939  0.98375  1.0000 0.1193915892
H   H15       1.0  0.77580  0.92892  0.60427  1.0000 0.1193915892
H   H16       1.0  0.99865  0.43223  0.22668  1.0000 0.1092987689
H   H17       1.0  0.81063  0.48445  0.13379  1.0000 0.1036987914
H   H18       1.0  0.82589  0.97633  0.60277  1.0000 0.1036987914
H   H19       1.0  0.01904  0.37618  0.38648  1.0000 0.1092987689
H   H20       1.0  0.85791  0.39049  0.25101  1.0000 0.1092987689
H   H21       1.0  0.89539  0.99057  0.57845  1.0000 0.1092987689
H   H22       1.0  0.06567  0.27907  0.53415  1.0000 0.1193915892
H   H23       1.0  0.90548  0.29418  0.39896  1.0000 0.1193915892
H   H24       1.0  0.94520  0.03732  0.57734  1.0000 0.1193915892
H   H25       1.0  0.46451  0.05107  0.58619  1.0000 0.1193915892
H   H26       1.0  0.42061  0.23537  0.48375  1.0000 0.1193915892
H   H27       1.0  0.07108  0.22420  0.10427  1.0000 0.1193915892
H   H28       1.0  0.56777  0.00135  0.72668  1.0000 0.1092987689
H   H29       1.0  0.51555  0.18937  0.63379  1.0000 0.1036987914
H   H30       1.0  0.02367  0.17411  0.10277  1.0000 0.1036987914
H   H31       1.0  0.62382  0.98096  0.88648  1.0000 0.1092987689
H   H32       1.0  0.60951  0.14209  0.75101  1.0000 0.1092987689
H   H33       1.0  0.00943  0.10461  0.07845  1.0000 0.1092987689
H   H34       1.0  0.72093  0.93433  0.03415  1.0000 0.1193915892
H   H35       1.0  0.70582  0.09452  0.89896  1.0000 0.1193915892
H   H36       1.0  0.96268  0.05480  0.07734  1.0000 0.1193915892
H   H37       1.0  0.05107  0.46451  0.91381  1.0000 0.1193915892
H   H38       1.0  0.23537  0.42061  0.01625  1.0000 0.1193915892
H   H39       1.0  0.22420  0.07108  0.39573  1.0000 0.1193915892
H   H40       1.0  0.00135  0.56777  0.77332  1.0000 0.1092987689
H   H41       1.0  0.18937  0.51555  0.86621  1.0000 0.1036987914
H   H42       1.0  0.17411  0.02367  0.39723  1.0000 0.1036987914
H   H43       1.0  0.98096  0.62382  0.61352  1.0000 0.1092987689
H   H44       1.0  0.14209  0.60951  0.74899  1.0000 0.1092987689
H   H45       1.0  0.10461  0.00943  0.42155  1.0000 0.1092987689
H   H46       1.0  0.93433  0.72093  0.46585  1.0000 0.1193915892
H   H47       1.0  0.09452  0.70582  0.60104  1.0000 0.1193915892
H   H48       1.0  0.05480  0.96268  0.42266  1.0000 0.1193915892
C   C1        1.0  0.63321  0.81841  0.57210  1.0000 0.536364024
C   C2        1.0  0.56992  0.84932  0.47820  1.0000 -0.0274947475
C   C3        1.0  0.52559  0.91959  0.40560  1.0000 -0.1008469933
C   C4        1.0  0.55229  0.81129  0.46410  1.0000 -0.0939470181
C   C5        1.0  0.90722  0.81722  0.83610  1.0000 -0.1008469933
C   C6        1.0  0.46532  0.94772  0.31870  1.0000 -0.1658776352
C   C7        1.0  0.49479  0.83959  0.37430  1.0000 -0.1658776352
C   C8        1.0  0.93576  0.84676  0.83650  1.0000 -0.162805515
C   C9        1.0  0.45270  0.90610  0.29740  1.0000 0.0587328127
C   C10       1.0  0.39310  0.93390  0.19930  1.0000 0.0867820582
C   C11       1.0  0.35953  0.99573  0.11200  1.0000 -0.1658776352
C   C12       1.0  0.36778  0.90078  0.19160  1.0000 -0.162805515
C   C13       1.0  0.98058  0.92498  0.85100  1.0000 -0.1518683681
C   C14       1.0  0.30228  0.02288  0.02380  1.0000 -0.1008469933
C   C15       1.0  0.31100  0.92860  0.10320  1.0000 -0.1008469933
C   C16       1.0  0.00874  0.95414  0.85150  1.0000 -0.1008469933
C   C17       1.0  0.27784  0.98924  0.01770  1.0000 -0.0451595285
C   C18       1.0  0.21361  0.02121  0.92570  1.0000 0.5302508822
C   C19       1.0  0.81841  0.63321  0.92790  1.0000 0.536364024
C   C20       1.0  0.84932  0.56992  0.02180  1.0000 -0.0274947475
C   C21       1.0  0.91959  0.52559  0.09440  1.0000 -0.1008469933
C   C22       1.0  0.81129  0.55229  0.03590  1.0000 -0.0939470181
C   C23       1.0  0.81722  0.90722  0.66390  1.0000 -0.1008469933
C   C24       1.0  0.94772  0.46532  0.18130  1.0000 -0.1658776352
C   C25       1.0  0.83959  0.49479  0.12570  1.0000 -0.1658776352
C   C26       1.0  0.84676  0.93576  0.66350  1.0000 -0.162805515
C   C27       1.0  0.90610  0.45270  0.20260  1.0000 0.0587328127
C   C28       1.0  0.93390  0.39310  0.30070  1.0000 0.0867820582
C   C29       1.0  0.99573  0.35953  0.38800  1.0000 -0.1658776352
C   C30       1.0  0.90078  0.36778  0.30840  1.0000 -0.162805515
C   C31       1.0  0.92498  0.98058  0.64900  1.0000 -0.1518683681
C   C32       1.0  0.02288  0.30228  0.47620  1.0000 -0.1008469933
C   C33       1.0  0.92860  0.31100  0.39680  1.0000 -0.1008469933
C   C34       1.0  0.95414  0.00874  0.64850  1.0000 -0.1008469933
C   C35       1.0  0.98924  0.27784  0.48230  1.0000 -0.044043521
C   C36       1.0  0.02121  0.21361  0.57430  1.0000 0.5302508822
C   C37       1.0  0.81634  0.81634  0.75000  1.0000 0.5106278112
C   C38       1.0  0.84724  0.84724  0.75000  1.0000 -0.0451595285
C   C39       1.0  0.90634  0.90634  0.75000  1.0000 0.07554019
C   C40       1.0  0.93757  0.93757  0.75000  1.0000 0.0711659616
C   C41       1.0  0.99648  0.99648  0.75000  1.0000 -0.0219282979
C   C42       1.0  0.02832  0.02832  0.75000  1.0000 0.5235155573
C   C43       1.0  0.36679  0.18159  0.42790  1.0000 0.536364024
C   C44       1.0  0.43008  0.15068  0.52180  1.0000 -0.0274947475
C   C45       1.0  0.47441  0.08041  0.59440  1.0000 -0.1008469933
C   C46       1.0  0.44771  0.18871  0.53590  1.0000 -0.0939470181
C   C47       1.0  0.09278  0.18278  0.16390  1.0000 -0.1008469933
C   C48       1.0  0.53468  0.05228  0.68130  1.0000 -0.1658776352
C   C49       1.0  0.50521  0.16041  0.62570  1.0000 -0.1658776352
C   C50       1.0  0.06424  0.15324  0.16350  1.0000 -0.162805515
C   C51       1.0  0.54730  0.09390  0.70260  1.0000 0.0587328127
C   C52       1.0  0.60690  0.06610  0.80070  1.0000 0.0867820582
C   C53       1.0  0.64047  0.00427  0.88800  1.0000 -0.1658776352
C   C54       1.0  0.63222  0.09922  0.80840  1.0000 -0.162805515
C   C55       1.0  0.01942  0.07502  0.14900  1.0000 -0.1518683681
C   C56       1.0  0.69772  0.97712  0.97620  1.0000 -0.1008469933
C   C57       1.0  0.68900  0.07140  0.89680  1.0000 -0.1008469933
C   C58       1.0  0.99126  0.04586  0.14850  1.0000 -0.1008469933
C   C59       1.0  0.72216  0.01076  0.98230  1.0000 -0.044043521
C   C60       1.0  0.78639  0.97879  0.07430  1.0000 0.5302508822
C   C61       1.0  0.18159  0.36679  0.07210  1.0000 0.536364024
C   C62       1.0  0.15068  0.43008  0.97820  1.0000 -0.0274947475
C   C63       1.0  0.08041  0.47441  0.90560  1.0000 -0.1008469933
C   C64       1.0  0.18871  0.44771  0.96410  1.0000 -0.0939470181
C   C65       1.0  0.18278  0.09278  0.33610  1.0000 -0.1008469933
C   C66       1.0  0.05228  0.53468  0.81870  1.0000 -0.1658776352
C   C67       1.0  0.16041  0.50521  0.87430  1.0000 -0.1658776352
C   C68       1.0  0.15324  0.06424  0.33650  1.0000 -0.162805515
C   C69       1.0  0.09390  0.54730  0.79740  1.0000 0.0587328127
C   C70       1.0  0.06610  0.60690  0.69930  1.0000 0.0867820582
C   C71       1.0  0.00427  0.64047  0.61200  1.0000 -0.1658776352
C   C72       1.0  0.09922  0.63222  0.69160  1.0000 -0.162805515
C   C73       1.0  0.07502  0.01942  0.35100  1.0000 -0.1518683681
C   C74       1.0  0.97712  0.69772  0.52380  1.0000 -0.1008469933
C   C75       1.0  0.07140  0.68900  0.60320  1.0000 -0.1008469933
C   C76       1.0  0.04586  0.99126  0.35150  1.0000 -0.1008469933
C   C77       1.0  0.01076  0.72216  0.51770  1.0000 -0.0451595285
C   C78       1.0  0.97879  0.78639  0.42570  1.0000 0.5302508822
C   C79       1.0  0.18366  0.18366  0.25000  1.0000 0.5106278112
C   C80       1.0  0.15276  0.15276  0.25000  1.0000 -0.0451595285
C   C81       1.0  0.09366  0.09366  0.25000  1.0000 0.07554019
C   C82       1.0  0.06243  0.06243  0.25000  1.0000 0.0711659616
C   C83       1.0  0.00352  0.00352  0.25000  1.0000 -0.0219282979
C   C84       1.0  0.97168  0.97168  0.25000  1.0000 0.5235155573
O   O1        1.0  0.65632  0.84872  0.57420  1.0000 -0.595240419
O   O2        1.0  0.66338  0.76278  0.65090  1.0000 -0.5892072832
O   O3        1.0  0.84250  0.76250  0.83090  1.0000 -0.5796490559
O   O4        1.0  0.18254  0.07934  0.84780  1.0000 -0.5892072832
O   O5        1.0  0.18797  0.99397  0.92280  1.0000 -0.5708898851
O   O6        1.0  0.07974  0.00274  0.83160  1.0000 -0.5708898851
O   O7        1.0  0.84872  0.65632  0.92580  1.0000 -0.595240419
O   O8        1.0  0.76278  0.66338  0.84910  1.0000 -0.5892072832
O   O9        1.0  0.76250  0.84250  0.66910  1.0000 -0.5796490559
O   O10       1.0  0.07934  0.18254  0.65220  1.0000 -0.5892072832
O   O11       1.0  0.99397  0.18797  0.57720  1.0000 -0.5708898851
O   O12       1.0  0.00274  0.07974  0.66840  1.0000 -0.5708898851
O   O13       1.0  0.34368  0.15128  0.42580  1.0000 -0.595240419
O   O14       1.0  0.33662  0.23722  0.34910  1.0000 -0.5892072832
O   O15       1.0  0.15750  0.23750  0.16910  1.0000 -0.5796490559
O   O16       1.0  0.81746  0.92066  0.15220  1.0000 -0.5892072832
O   O17       1.0  0.81203  0.00603  0.07720  1.0000 -0.5708898851
O   O18       1.0  0.92026  0.99726  0.16840  1.0000 -0.5708898851
O   O19       1.0  0.15128  0.34368  0.07420  1.0000 -0.5892072832
O   O20       1.0  0.23722  0.33662  0.15090  1.0000 -0.5892072832
O   O21       1.0  0.23750  0.15750  0.33090  1.0000 -0.5796490559
O   O22       1.0  0.92066  0.81746  0.34780  1.0000 -0.5892072832
O   O23       1.0  0.00603  0.81203  0.42280  1.0000 -0.5708898851
O   O24       1.0  0.99726  0.92026  0.33160  1.0000 -0.5708898851
