# DDEC6 charges by PACMAN v1.1 (https://github.com/mtap-research/PACMAN-charge/)
data_2018[Zr][pcu]3[ASR]3
_chemical_formula_sum              "Zr6 H72 C120 O32"
_cell_length_a       18.1416
_cell_length_b       18.1416
_cell_length_c       18.1416
_cell_angle_alpha    112.914
_cell_angle_beta     112.914
_cell_angle_gamma    112.914

_symmetry_space_group_name_H-M    "P 1"
_symmetry_Int_Tables_number       1

loop_
  _symmetry_equiv_pos_as_xyz
  'x, y, z'

loop_
  _atom_site_type_symbol
  _atom_site_label
  _atom_site_symmetry_multiplicity
  _atom_site_fract_x
  _atom_site_fract_y
  _atom_site_fract_z
  _atom_site_occupancy
  _atom_site_charge
Zr  Zr1       1.0  0.16988  0.03883  0.08130  1.0000 2.407210387
Zr  Zr2       1.0  0.03883  0.08130  0.16988  1.0000 2.407210387
Zr  Zr3       1.0  0.08130  0.16988  0.03883  1.0000 2.407210387
Zr  Zr4       1.0  0.83012  0.96117  0.91870  1.0000 2.407210387
Zr  Zr5       1.0  0.96117  0.91870  0.83012  1.0000 2.407210387
Zr  Zr6       1.0  0.91870  0.83012  0.96117  1.0000 2.407210387
H   H1        1.0  0.38900  0.10940  0.38840  1.0000 0.1275829061
H   H2        1.0  0.52930  0.19480  0.55720  1.0000 0.1203793955
H   H3        1.0  0.49430  0.40930  0.66600  1.0000 0.1104765892
H   H4        1.0  0.34720  0.31650  0.49910  1.0000 0.1203793955
H   H5        1.0  0.61430  0.25270  0.72090  1.0000 0.1104765892
H   H6        1.0  0.86610  0.53010  0.00650  1.0000 0.1104765892
H   H7        1.0  0.81650  0.61320  0.95440  1.0000 0.1203793955
H   H8        1.0  0.66490  0.51600  0.78800  1.0000 0.1203793955
H   H9        1.0  0.64040  0.19630  0.81630  1.0000 0.1203793955
H   H10       1.0  0.69800  0.10930  0.84870  1.0000 0.1203793955
H   H11       1.0  0.99320  0.36270  0.02520  1.0000 0.1275829061
H   H12       1.0  0.93600  0.45120  0.99750  1.0000 0.1104765892
H   H13       1.0  0.10940  0.38840  0.38900  1.0000 0.1275829061
H   H14       1.0  0.19480  0.55720  0.52930  1.0000 0.1203793955
H   H15       1.0  0.40930  0.66600  0.49430  1.0000 0.1104765892
H   H16       1.0  0.31650  0.49910  0.34720  1.0000 0.1203793955
H   H17       1.0  0.25270  0.72090  0.61430  1.0000 0.1104765892
H   H18       1.0  0.53010  0.00650  0.86610  1.0000 0.1104765892
H   H19       1.0  0.61320  0.95440  0.81650  1.0000 0.1203793955
H   H20       1.0  0.51600  0.78800  0.66490  1.0000 0.1203793955
H   H21       1.0  0.19630  0.81630  0.64040  1.0000 0.1203793955
H   H22       1.0  0.10930  0.84870  0.69800  1.0000 0.1203793955
H   H23       1.0  0.36270  0.02520  0.99320  1.0000 0.1275829061
H   H24       1.0  0.45120  0.99750  0.93600  1.0000 0.1104765892
H   H25       1.0  0.38840  0.38900  0.10940  1.0000 0.1275829061
H   H26       1.0  0.55720  0.52930  0.19480  1.0000 0.1203793955
H   H27       1.0  0.66600  0.49430  0.40930  1.0000 0.1104765892
H   H28       1.0  0.49910  0.34720  0.31650  1.0000 0.1203793955
H   H29       1.0  0.72090  0.61430  0.25270  1.0000 0.1104765892
H   H30       1.0  0.00650  0.86610  0.53010  1.0000 0.1104765892
H   H31       1.0  0.95440  0.81650  0.61320  1.0000 0.1203793955
H   H32       1.0  0.78800  0.66490  0.51600  1.0000 0.1203793955
H   H33       1.0  0.81630  0.64040  0.19630  1.0000 0.1203793955
H   H34       1.0  0.84870  0.69800  0.10930  1.0000 0.1203793955
H   H35       1.0  0.02520  0.99320  0.36270  1.0000 0.1275829061
H   H36       1.0  0.99750  0.93600  0.45120  1.0000 0.1104765892
H   H37       1.0  0.61100  0.89060  0.61160  1.0000 0.1275829061
H   H38       1.0  0.47070  0.80520  0.44280  1.0000 0.1203793955
H   H39       1.0  0.50570  0.59070  0.33400  1.0000 0.1104765892
H   H40       1.0  0.65280  0.68350  0.50090  1.0000 0.1203793955
H   H41       1.0  0.38570  0.74730  0.27910  1.0000 0.1104765892
H   H42       1.0  0.13390  0.46990  0.99350  1.0000 0.1104765892
H   H43       1.0  0.18350  0.38680  0.04560  1.0000 0.1203793955
H   H44       1.0  0.33510  0.48400  0.21200  1.0000 0.1203793955
H   H45       1.0  0.35960  0.80370  0.18370  1.0000 0.1203793955
H   H46       1.0  0.30200  0.89070  0.15130  1.0000 0.1203793955
H   H47       1.0  0.00680  0.63730  0.97480  1.0000 0.1275829061
H   H48       1.0  0.06400  0.54880  0.00250  1.0000 0.1104765892
H   H49       1.0  0.89060  0.61160  0.61100  1.0000 0.1275829061
H   H50       1.0  0.80520  0.44280  0.47070  1.0000 0.1203793955
H   H51       1.0  0.59070  0.33400  0.50570  1.0000 0.1104765892
H   H52       1.0  0.68350  0.50090  0.65280  1.0000 0.1203793955
H   H53       1.0  0.74730  0.27910  0.38570  1.0000 0.1104765892
H   H54       1.0  0.46990  0.99350  0.13390  1.0000 0.1104765892
H   H55       1.0  0.38680  0.04560  0.18350  1.0000 0.1203793955
H   H56       1.0  0.48400  0.21200  0.33510  1.0000 0.1203793955
H   H57       1.0  0.80370  0.18370  0.35960  1.0000 0.1203793955
H   H58       1.0  0.89070  0.15130  0.30200  1.0000 0.1203793955
H   H59       1.0  0.63730  0.97480  0.00680  1.0000 0.1275829061
H   H60       1.0  0.54880  0.00250  0.06400  1.0000 0.1104765892
H   H61       1.0  0.61160  0.61100  0.89060  1.0000 0.1275829061
H   H62       1.0  0.44280  0.47070  0.80520  1.0000 0.1203793955
H   H63       1.0  0.33400  0.50570  0.59070  1.0000 0.1104765892
H   H64       1.0  0.50090  0.65280  0.68350  1.0000 0.1203793955
H   H65       1.0  0.27910  0.38570  0.74730  1.0000 0.1104765892
H   H66       1.0  0.99350  0.13390  0.46990  1.0000 0.1104765892
H   H67       1.0  0.04560  0.18350  0.38680  1.0000 0.1203793955
H   H68       1.0  0.21200  0.33510  0.48400  1.0000 0.1203793955
H   H69       1.0  0.18370  0.35960  0.80370  1.0000 0.1203793955
H   H70       1.0  0.15130  0.30200  0.89070  1.0000 0.1203793955
H   H71       1.0  0.97480  0.00680  0.63730  1.0000 0.1275829061
H   H72       1.0  0.00250  0.06400  0.54880  1.0000 0.1104765892
C   C1        1.0  0.26479  0.15131  0.31920  1.0000 0.641672673
C   C2        1.0  0.35472  0.20495  0.42733  1.0000 -0.031214255
C   C3        1.0  0.40949  0.16957  0.44514  1.0000 -0.1013938464
C   C4        1.0  0.49423  0.22166  0.54561  1.0000 -0.1515616821
C   C5        1.0  0.52843  0.31269  0.62978  1.0000 0.0812327896
C   C6        1.0  0.47243  0.34736  0.61001  1.0000 -0.1515616821
C   C7        1.0  0.38583  0.29310  0.51057  1.0000 -0.0916785874
C   C8        1.0  0.62323  0.37405  0.73702  1.0000 0.0812327896
C   C9        1.0  0.65522  0.32597  0.76841  1.0000 -0.192482961
C   C10       1.0  0.74624  0.38345  0.86831  1.0000 0.0812327896
C   C11       1.0  0.80516  0.49048  0.93786  1.0000 -0.1625943807
C   C12       1.0  0.77515  0.53973  0.90722  1.0000 -0.0666408964
C   C13       1.0  0.68505  0.48179  0.80806  1.0000 -0.1431664504
C   C14       1.0  0.78197  0.32992  0.89541  1.0000 0.0812327896
C   C15       1.0  0.71241  0.22995  0.85644  1.0000 -0.1515616821
C   C16       1.0  0.74677  0.17783  0.87540  1.0000 -0.0916785874
C   C17       1.0  0.85038  0.22471  0.93251  1.0000 -0.031214255
C   C18       1.0  0.92090  0.32737  0.98013  1.0000 -0.0916785874
C   C19       1.0  0.88650  0.37964  0.96256  1.0000 -0.1515616821
C   C20       1.0  0.88711  0.16730  0.94899  1.0000 0.641672673
C   C21       1.0  0.15131  0.31920  0.26479  1.0000 0.641672673
C   C22       1.0  0.20495  0.42733  0.35472  1.0000 -0.031214255
C   C23       1.0  0.16957  0.44514  0.40949  1.0000 -0.1013938464
C   C24       1.0  0.22166  0.54561  0.49423  1.0000 -0.1515616821
C   C25       1.0  0.31269  0.62978  0.52843  1.0000 0.0812327896
C   C26       1.0  0.34736  0.61001  0.47243  1.0000 -0.1515616821
C   C27       1.0  0.29310  0.51057  0.38583  1.0000 -0.0916785874
C   C28       1.0  0.37405  0.73702  0.62323  1.0000 0.0812327896
C   C29       1.0  0.32597  0.76841  0.65522  1.0000 -0.192482961
C   C30       1.0  0.38345  0.86831  0.74624  1.0000 0.0812327896
C   C31       1.0  0.49048  0.93786  0.80516  1.0000 -0.1625943807
C   C32       1.0  0.53973  0.90722  0.77515  1.0000 -0.0666408964
C   C33       1.0  0.48179  0.80806  0.68505  1.0000 -0.1431664504
C   C34       1.0  0.32992  0.89541  0.78197  1.0000 0.0812327896
C   C35       1.0  0.22995  0.85644  0.71241  1.0000 -0.1515616821
C   C36       1.0  0.17783  0.87540  0.74677  1.0000 -0.0916785874
C   C37       1.0  0.22471  0.93251  0.85038  1.0000 -0.031214255
C   C38       1.0  0.32737  0.98013  0.92090  1.0000 -0.0916785874
C   C39       1.0  0.37964  0.96256  0.88650  1.0000 -0.1515616821
C   C40       1.0  0.16730  0.94899  0.88711  1.0000 0.641672673
C   C41       1.0  0.31920  0.26479  0.15131  1.0000 0.641672673
C   C42       1.0  0.42733  0.35472  0.20495  1.0000 -0.031214255
C   C43       1.0  0.44514  0.40949  0.16957  1.0000 -0.1013938464
C   C44       1.0  0.54561  0.49423  0.22166  1.0000 -0.1515616821
C   C45       1.0  0.62978  0.52843  0.31269  1.0000 0.0812327896
C   C46       1.0  0.61001  0.47243  0.34736  1.0000 -0.1515616821
C   C47       1.0  0.51057  0.38583  0.29310  1.0000 -0.0916785874
C   C48       1.0  0.73702  0.62323  0.37405  1.0000 0.0812327896
C   C49       1.0  0.76841  0.65522  0.32597  1.0000 -0.192482961
C   C50       1.0  0.86831  0.74624  0.38345  1.0000 0.0812327896
C   C51       1.0  0.93786  0.80516  0.49048  1.0000 -0.1625943807
C   C52       1.0  0.90722  0.77515  0.53973  1.0000 -0.0666408964
C   C53       1.0  0.80806  0.68505  0.48179  1.0000 -0.1431664504
C   C54       1.0  0.89541  0.78197  0.32992  1.0000 0.0812327896
C   C55       1.0  0.85644  0.71241  0.22995  1.0000 -0.1515616821
C   C56       1.0  0.87540  0.74677  0.17783  1.0000 -0.0916785874
C   C57       1.0  0.93251  0.85038  0.22471  1.0000 -0.031214255
C   C58       1.0  0.98013  0.92090  0.32737  1.0000 -0.0916785874
C   C59       1.0  0.96256  0.88650  0.37964  1.0000 -0.1515616821
C   C60       1.0  0.94899  0.88711  0.16730  1.0000 0.641672673
C   C61       1.0  0.73521  0.84869  0.68080  1.0000 0.641672673
C   C62       1.0  0.64528  0.79505  0.57267  1.0000 -0.031214255
C   C63       1.0  0.59051  0.83043  0.55486  1.0000 -0.1013938464
C   C64       1.0  0.50577  0.77834  0.45439  1.0000 -0.1515616821
C   C65       1.0  0.47157  0.68731  0.37022  1.0000 0.0812327896
C   C66       1.0  0.52757  0.65264  0.38999  1.0000 -0.1515616821
C   C67       1.0  0.61417  0.70690  0.48943  1.0000 -0.0916785874
C   C68       1.0  0.37677  0.62595  0.26298  1.0000 0.0812327896
C   C69       1.0  0.34478  0.67403  0.23159  1.0000 -0.192482961
C   C70       1.0  0.25376  0.61655  0.13169  1.0000 0.0812327896
C   C71       1.0  0.19484  0.50952  0.06214  1.0000 -0.1625943807
C   C72       1.0  0.22485  0.46027  0.09278  1.0000 -0.0666408964
C   C73       1.0  0.31495  0.51821  0.19194  1.0000 -0.1431664504
C   C74       1.0  0.21803  0.67008  0.10459  1.0000 0.0812327896
C   C75       1.0  0.28759  0.77005  0.14356  1.0000 -0.1515616821
C   C76       1.0  0.25323  0.82217  0.12460  1.0000 -0.0916785874
C   C77       1.0  0.14962  0.77529  0.06749  1.0000 -0.031214255
C   C78       1.0  0.07910  0.67263  0.01987  1.0000 -0.0916785874
C   C79       1.0  0.11350  0.62036  0.03744  1.0000 -0.1515616821
C   C80       1.0  0.11289  0.83270  0.05101  1.0000 0.641672673
C   C81       1.0  0.84869  0.68080  0.73521  1.0000 0.641672673
C   C82       1.0  0.79505  0.57267  0.64528  1.0000 -0.031214255
C   C83       1.0  0.83043  0.55486  0.59051  1.0000 -0.1013938464
C   C84       1.0  0.77834  0.45439  0.50577  1.0000 -0.1515616821
C   C85       1.0  0.68731  0.37022  0.47157  1.0000 0.0812327896
C   C86       1.0  0.65264  0.38999  0.52757  1.0000 -0.1515616821
C   C87       1.0  0.70690  0.48943  0.61417  1.0000 -0.0916785874
C   C88       1.0  0.62595  0.26298  0.37677  1.0000 0.0812327896
C   C89       1.0  0.67403  0.23159  0.34478  1.0000 -0.192482961
C   C90       1.0  0.61655  0.13169  0.25376  1.0000 0.0812327896
C   C91       1.0  0.50952  0.06214  0.19484  1.0000 -0.1625943807
C   C92       1.0  0.46027  0.09278  0.22485  1.0000 -0.0666408964
C   C93       1.0  0.51821  0.19194  0.31495  1.0000 -0.1431664504
C   C94       1.0  0.67008  0.10459  0.21803  1.0000 0.0812327896
C   C95       1.0  0.77005  0.14356  0.28759  1.0000 -0.1515616821
C   C96       1.0  0.82217  0.12460  0.25323  1.0000 -0.0916785874
C   C97       1.0  0.77529  0.06749  0.14962  1.0000 -0.031214255
C   C98       1.0  0.67263  0.01987  0.07910  1.0000 -0.0916785874
C   C99       1.0  0.62036  0.03744  0.11350  1.0000 -0.1515616821
C   C100      1.0  0.83270  0.05101  0.11289  1.0000 0.641672673
C   C101      1.0  0.68080  0.73521  0.84869  1.0000 0.641672673
C   C102      1.0  0.57267  0.64528  0.79505  1.0000 -0.031214255
C   C103      1.0  0.55486  0.59051  0.83043  1.0000 -0.1013938464
C   C104      1.0  0.45439  0.50577  0.77834  1.0000 -0.1515616821
C   C105      1.0  0.37022  0.47157  0.68731  1.0000 0.0812327896
C   C106      1.0  0.38999  0.52757  0.65264  1.0000 -0.1515616821
C   C107      1.0  0.48943  0.61417  0.70690  1.0000 -0.0916785874
C   C108      1.0  0.26298  0.37677  0.62595  1.0000 0.0812327896
C   C109      1.0  0.23159  0.34478  0.67403  1.0000 -0.192482961
C   C110      1.0  0.13169  0.25376  0.61655  1.0000 0.0812327896
C   C111      1.0  0.06214  0.19484  0.50952  1.0000 -0.1625943807
C   C112      1.0  0.09278  0.22485  0.46027  1.0000 -0.0666408964
C   C113      1.0  0.19194  0.31495  0.51821  1.0000 -0.1431664504
C   C114      1.0  0.10459  0.21803  0.67008  1.0000 0.0812327896
C   C115      1.0  0.14356  0.28759  0.77005  1.0000 -0.1515616821
C   C116      1.0  0.12460  0.25323  0.82217  1.0000 -0.0916785874
C   C117      1.0  0.06749  0.14962  0.77529  1.0000 -0.031214255
C   C118      1.0  0.01987  0.07910  0.67263  1.0000 -0.0916785874
C   C119      1.0  0.03744  0.11350  0.62036  1.0000 -0.1515616821
C   C120      1.0  0.05101  0.11289  0.83270  1.0000 0.641672673
O   O1        1.0  0.27226  0.11459  0.24918  1.0000 -0.5975646205
O   O2        1.0  0.19062  0.15015  0.30726  1.0000 -0.5927051996
O   O3        1.0  0.81953  0.07805  0.91598  1.0000 -0.5927051996
O   O4        1.0  0.98272  0.21283  0.99394  1.0000 -0.5927051996
O   O5        1.0  0.10517  0.06344  0.97539  1.0000 -1.0912286866
O   O6        1.0  0.11459  0.24918  0.27226  1.0000 -0.5975646205
O   O7        1.0  0.15015  0.30726  0.19062  1.0000 -0.5927051996
O   O8        1.0  0.07805  0.91598  0.81953  1.0000 -0.5927051996
O   O9        1.0  0.21283  0.99394  0.98272  1.0000 -0.5927051996
O   O10       1.0  0.06344  0.97539  0.10517  1.0000 -1.0912286866
O   O11       1.0  0.24918  0.27226  0.11459  1.0000 -0.5975646205
O   O12       1.0  0.30726  0.19062  0.15015  1.0000 -0.5927051996
O   O13       1.0  0.91598  0.81953  0.07805  1.0000 -0.5927051996
O   O14       1.0  0.99394  0.98272  0.21283  1.0000 -0.5927051996
O   O15       1.0  0.97539  0.10517  0.06344  1.0000 -1.0912286866
O   O16       1.0  0.72774  0.88541  0.75082  1.0000 -0.5975646205
O   O17       1.0  0.80938  0.84985  0.69274  1.0000 -0.5927051996
O   O18       1.0  0.18047  0.92195  0.08402  1.0000 -0.5927051996
O   O19       1.0  0.01728  0.78717  0.00606  1.0000 -0.5927051996
O   O20       1.0  0.89483  0.93656  0.02461  1.0000 -1.0912286866
O   O21       1.0  0.88541  0.75082  0.72774  1.0000 -0.5975646205
O   O22       1.0  0.84985  0.69274  0.80938  1.0000 -0.5927051996
O   O23       1.0  0.92195  0.08402  0.18047  1.0000 -0.5927051996
O   O24       1.0  0.78717  0.00606  0.01728  1.0000 -0.5927051996
O   O25       1.0  0.93656  0.02461  0.89483  1.0000 -1.0912286866
O   O26       1.0  0.75082  0.72774  0.88541  1.0000 -0.5975646205
O   O27       1.0  0.69274  0.80938  0.84985  1.0000 -0.5927051996
O   O28       1.0  0.08402  0.18047  0.92195  1.0000 -0.5927051996
O   O29       1.0  0.00606  0.01728  0.78717  1.0000 -0.5927051996
O   O30       1.0  0.02461  0.89483  0.93656  1.0000 -1.0912286866
O   O31       1.0  0.14310  0.14310  0.14310  1.0000 -1.0738109775
O   O32       1.0  0.85690  0.85690  0.85690  1.0000 -1.0738109775
