# DDEC6 charges by PACMAN v1.1 (https://github.com/mtap-research/PACMAN-charge/)
data_2018[Cu][dia]3[ASR]3
_chemical_formula_sum              "Cu4 H144 C128 N32"
_cell_length_a       10.7421
_cell_length_b       17.7109
_cell_length_c       21.7013
_cell_angle_alpha    90
_cell_angle_beta     90
_cell_angle_gamma    90

_symmetry_space_group_name_H-M    "P 1"
_symmetry_Int_Tables_number       1

loop_
  _symmetry_equiv_pos_as_xyz
  'x, y, z'

loop_
  _atom_site_type_symbol
  _atom_site_label
  _atom_site_symmetry_multiplicity
  _atom_site_fract_x
  _atom_site_fract_y
  _atom_site_fract_z
  _atom_site_occupancy
  _atom_site_charge
Cu  Cu1       1.0  0.27513  0.25000  0.75000  1.0000 0.2806984043
Cu  Cu2       1.0  0.72487  0.75000  0.25000  1.0000 0.2806984043
Cu  Cu3       1.0  0.22487  0.25000  0.25000  1.0000 0.2806984043
Cu  Cu4       1.0  0.77513  0.75000  0.75000  1.0000 0.2806984043
H   H1        1.0  0.36660  0.59990  0.98660  1.0000 0.1143099299
H   H2        1.0  0.50320  0.40230  0.92900  1.0000 0.1193768693
H   H3        1.0  0.14280  0.28480  0.88000  1.0000 0.1193768693
H   H4        1.0  0.37890  0.53160  0.86050  1.0000 0.1193768693
H   H5        1.0  0.26330  0.53810  0.90430  1.0000 0.1193768693
H   H6        1.0  0.37830  0.46980  0.75580  1.0000 0.1419091678
H   H7        1.0  0.48920  0.44430  0.79790  1.0000 0.1419091678
H   H8        1.0  0.43820  0.38990  0.74690  1.0000 0.1491528557
H   H9        1.0  0.16550  0.39990  0.93970  1.0000 0.1193768693
H   H10       1.0  0.38700  0.17980  0.87440  1.0000 0.1193768693
H   H11       1.0  0.12590  0.90690  0.96200  1.0000 0.1193768693
H   H12       1.0  0.01580  0.00450  0.84720  1.0000 0.1193768693
H   H13       1.0  0.13700  0.96090  0.86600  1.0000 0.1193768693
H   H14       1.0  0.29990  0.06810  0.92520  1.0000 0.1193768693
H   H15       1.0  0.94530  0.09940  0.93830  1.0000 0.1193768693
H   H16       1.0  0.05950  0.08380  0.73830  1.0000 0.1491528557
H   H17       1.0  0.96840  0.10490  0.79200  1.0000 0.1419091678
H   H18       1.0  0.03120  0.16880  0.75290  1.0000 0.1491528557
H   H19       1.0  0.36660  0.90010  0.51340  1.0000 0.1143099299
H   H20       1.0  0.50320  0.09770  0.57100  1.0000 0.1193768693
H   H21       1.0  0.14280  0.21520  0.62000  1.0000 0.1193768693
H   H22       1.0  0.37890  0.96840  0.63950  1.0000 0.1193768693
H   H23       1.0  0.26330  0.96190  0.59570  1.0000 0.1193768693
H   H24       1.0  0.37830  0.03020  0.74420  1.0000 0.1419091678
H   H25       1.0  0.48920  0.05570  0.70210  1.0000 0.1419091678
H   H26       1.0  0.43820  0.11010  0.75310  1.0000 0.1491528557
H   H27       1.0  0.16550  0.10010  0.56030  1.0000 0.1193768693
H   H28       1.0  0.38700  0.32020  0.62560  1.0000 0.1193768693
H   H29       1.0  0.12590  0.59310  0.53800  1.0000 0.1193768693
H   H30       1.0  0.01580  0.49550  0.65280  1.0000 0.1193768693
H   H31       1.0  0.13700  0.53910  0.63400  1.0000 0.1193768693
H   H32       1.0  0.29990  0.43190  0.57480  1.0000 0.1193768693
H   H33       1.0  0.94530  0.40060  0.56170  1.0000 0.1193768693
H   H34       1.0  0.05950  0.41620  0.76170  1.0000 0.1491528557
H   H35       1.0  0.96840  0.39510  0.70800  1.0000 0.1419091678
H   H36       1.0  0.03120  0.33120  0.74710  1.0000 0.1491528557
H   H37       1.0  0.63340  0.40010  0.01340  1.0000 0.1143099299
H   H38       1.0  0.49680  0.59770  0.07100  1.0000 0.1193768693
H   H39       1.0  0.85720  0.71520  0.12000  1.0000 0.1193768693
H   H40       1.0  0.62110  0.46840  0.13950  1.0000 0.1193768693
H   H41       1.0  0.73670  0.46190  0.09570  1.0000 0.1193768693
H   H42       1.0  0.62170  0.53020  0.24420  1.0000 0.1419091678
H   H43       1.0  0.51080  0.55570  0.20210  1.0000 0.1419091678
H   H44       1.0  0.56180  0.61010  0.25310  1.0000 0.1491528557
H   H45       1.0  0.83450  0.60010  0.06030  1.0000 0.1193768693
H   H46       1.0  0.61300  0.82020  0.12560  1.0000 0.1193768693
H   H47       1.0  0.87410  0.09310  0.03800  1.0000 0.1193768693
H   H48       1.0  0.98420  0.99550  0.15280  1.0000 0.1193768693
H   H49       1.0  0.86300  0.03910  0.13400  1.0000 0.1193768693
H   H50       1.0  0.70010  0.93190  0.07480  1.0000 0.1193768693
H   H51       1.0  0.05470  0.90060  0.06170  1.0000 0.1193768693
H   H52       1.0  0.94050  0.91620  0.26170  1.0000 0.1491528557
H   H53       1.0  0.03160  0.89510  0.20800  1.0000 0.1419091678
H   H54       1.0  0.96880  0.83120  0.24710  1.0000 0.1491528557
H   H55       1.0  0.63340  0.09990  0.48660  1.0000 0.1143099299
H   H56       1.0  0.49680  0.90230  0.42900  1.0000 0.1193768693
H   H57       1.0  0.85720  0.78480  0.38000  1.0000 0.1193768693
H   H58       1.0  0.62110  0.03160  0.36050  1.0000 0.1193768693
H   H59       1.0  0.73670  0.03810  0.40430  1.0000 0.1193768693
H   H60       1.0  0.62170  0.96980  0.25580  1.0000 0.1419091678
H   H61       1.0  0.51080  0.94430  0.29790  1.0000 0.1419091678
H   H62       1.0  0.56180  0.88990  0.24690  1.0000 0.1491528557
H   H63       1.0  0.83450  0.89990  0.43970  1.0000 0.1193768693
H   H64       1.0  0.61300  0.67980  0.37440  1.0000 0.1193768693
H   H65       1.0  0.87410  0.40690  0.46200  1.0000 0.1193768693
H   H66       1.0  0.98420  0.50450  0.34720  1.0000 0.1193768693
H   H67       1.0  0.86300  0.46090  0.36600  1.0000 0.1193768693
H   H68       1.0  0.70010  0.56810  0.42520  1.0000 0.1193768693
H   H69       1.0  0.05470  0.59940  0.43830  1.0000 0.1193768693
H   H70       1.0  0.94050  0.58380  0.23830  1.0000 0.1491528557
H   H71       1.0  0.03160  0.60490  0.29200  1.0000 0.1419091678
H   H72       1.0  0.96880  0.66880  0.25290  1.0000 0.1491528557
H   H73       1.0  0.13340  0.59990  0.01340  1.0000 0.1143099299
H   H74       1.0  0.99680  0.40230  0.07100  1.0000 0.1193768693
H   H75       1.0  0.35720  0.28480  0.12000  1.0000 0.1193768693
H   H76       1.0  0.12110  0.53160  0.13950  1.0000 0.1193768693
H   H77       1.0  0.23670  0.53810  0.09570  1.0000 0.1193768693
H   H78       1.0  0.12170  0.46980  0.24420  1.0000 0.1419091678
H   H79       1.0  0.01080  0.44430  0.20210  1.0000 0.1419091678
H   H80       1.0  0.06180  0.38990  0.25310  1.0000 0.1491528557
H   H81       1.0  0.33450  0.39990  0.06030  1.0000 0.1193768693
H   H82       1.0  0.11300  0.17980  0.12560  1.0000 0.1193768693
H   H83       1.0  0.37410  0.90690  0.03800  1.0000 0.1193768693
H   H84       1.0  0.48420  0.00450  0.15280  1.0000 0.1193768693
H   H85       1.0  0.36300  0.96090  0.13400  1.0000 0.1193768693
H   H86       1.0  0.20010  0.06810  0.07480  1.0000 0.1193768693
H   H87       1.0  0.55470  0.09940  0.06170  1.0000 0.1193768693
H   H88       1.0  0.44050  0.08380  0.26170  1.0000 0.1491528557
H   H89       1.0  0.53160  0.10490  0.20800  1.0000 0.1419091678
H   H90       1.0  0.46880  0.16880  0.24710  1.0000 0.1491528557
H   H91       1.0  0.13340  0.90010  0.48660  1.0000 0.1143099299
H   H92       1.0  0.99680  0.09770  0.42900  1.0000 0.1193768693
H   H93       1.0  0.35720  0.21520  0.38000  1.0000 0.1193768693
H   H94       1.0  0.12110  0.96840  0.36050  1.0000 0.1193768693
H   H95       1.0  0.23670  0.96190  0.40430  1.0000 0.1193768693
H   H96       1.0  0.12170  0.03020  0.25580  1.0000 0.1419091678
H   H97       1.0  0.01080  0.05570  0.29790  1.0000 0.1419091678
H   H98       1.0  0.06180  0.11010  0.24690  1.0000 0.1491528557
H   H99       1.0  0.33450  0.10010  0.43970  1.0000 0.1193768693
H   H100      1.0  0.11300  0.32020  0.37440  1.0000 0.1193768693
H   H101      1.0  0.37410  0.59310  0.46200  1.0000 0.1193768693
H   H102      1.0  0.48420  0.49550  0.34720  1.0000 0.1193768693
H   H103      1.0  0.36300  0.53910  0.36600  1.0000 0.1193768693
H   H104      1.0  0.20010  0.43190  0.42520  1.0000 0.1193768693
H   H105      1.0  0.55470  0.40060  0.43830  1.0000 0.1193768693
H   H106      1.0  0.44050  0.41620  0.23830  1.0000 0.1491528557
H   H107      1.0  0.53160  0.39510  0.29200  1.0000 0.1419091678
H   H108      1.0  0.46880  0.33120  0.25290  1.0000 0.1491528557
H   H109      1.0  0.86660  0.40010  0.98660  1.0000 0.1143099299
H   H110      1.0  0.00320  0.59770  0.92900  1.0000 0.1193768693
H   H111      1.0  0.64280  0.71520  0.88000  1.0000 0.1193768693
H   H112      1.0  0.87890  0.46840  0.86050  1.0000 0.1193768693
H   H113      1.0  0.76330  0.46190  0.90430  1.0000 0.1193768693
H   H114      1.0  0.87830  0.53020  0.75580  1.0000 0.1419091678
H   H115      1.0  0.98920  0.55570  0.79790  1.0000 0.1419091678
H   H116      1.0  0.93820  0.61010  0.74690  1.0000 0.1491528557
H   H117      1.0  0.66550  0.60010  0.93970  1.0000 0.1193768693
H   H118      1.0  0.88700  0.82020  0.87440  1.0000 0.1193768693
H   H119      1.0  0.62590  0.09310  0.96200  1.0000 0.1193768693
H   H120      1.0  0.51580  0.99550  0.84720  1.0000 0.1193768693
H   H121      1.0  0.63700  0.03910  0.86600  1.0000 0.1193768693
H   H122      1.0  0.79990  0.93190  0.92520  1.0000 0.1193768693
H   H123      1.0  0.44530  0.90060  0.93830  1.0000 0.1193768693
H   H124      1.0  0.55950  0.91620  0.73830  1.0000 0.1491528557
H   H125      1.0  0.46840  0.89510  0.79200  1.0000 0.1419091678
H   H126      1.0  0.53120  0.83120  0.75290  1.0000 0.1491528557
H   H127      1.0  0.86660  0.09990  0.51340  1.0000 0.1143099299
H   H128      1.0  0.00320  0.90230  0.57100  1.0000 0.1193768693
H   H129      1.0  0.64280  0.78480  0.62000  1.0000 0.1193768693
H   H130      1.0  0.87890  0.03160  0.63950  1.0000 0.1193768693
H   H131      1.0  0.76330  0.03810  0.59570  1.0000 0.1193768693
H   H132      1.0  0.87830  0.96980  0.74420  1.0000 0.1419091678
H   H133      1.0  0.98920  0.94430  0.70210  1.0000 0.1419091678
H   H134      1.0  0.93820  0.88990  0.75310  1.0000 0.1491528557
H   H135      1.0  0.66550  0.89990  0.56030  1.0000 0.1193768693
H   H136      1.0  0.88700  0.67980  0.62560  1.0000 0.1193768693
H   H137      1.0  0.62590  0.40690  0.53800  1.0000 0.1193768693
H   H138      1.0  0.51580  0.50450  0.65280  1.0000 0.1193768693
H   H139      1.0  0.63700  0.46090  0.63400  1.0000 0.1193768693
H   H140      1.0  0.79990  0.56810  0.57480  1.0000 0.1193768693
H   H141      1.0  0.44530  0.59940  0.56170  1.0000 0.1193768693
H   H142      1.0  0.55950  0.58380  0.76170  1.0000 0.1491528557
H   H143      1.0  0.46840  0.60490  0.70800  1.0000 0.1419091678
H   H144      1.0  0.53120  0.66880  0.74710  1.0000 0.1491528557
C   C1        1.0  0.42030  0.55919  0.99200  1.0000 -0.180440717
C   C2        1.0  0.32670  0.39554  0.82123  1.0000 0.307844565
C   C3        1.0  0.50100  0.44166  0.95742  1.0000 -0.1666895046
C   C4        1.0  0.19380  0.32534  0.86979  1.0000 -0.0673838848
C   C5        1.0  0.41930  0.50112  0.94924  1.0000 0.0856032452
C   C6        1.0  0.14840  0.12122  0.81402  1.0000 0.307844565
C   C7        1.0  0.33450  0.50688  0.89382  1.0000 -0.180440717
C   C8        1.0  0.41590  0.42770  0.77654  1.0000 -0.5498754897
C   C9        1.0  0.20610  0.38854  0.90306  1.0000 -0.1264156805
C   C10       1.0  0.31540  0.15400  0.86280  1.0000 -0.0819480525
C   C11       1.0  0.04440  0.00395  0.94000  1.0000 0.0817803821
C   C12       1.0  0.07500  0.94510  0.97710  1.0000 -0.1666895046
C   C13       1.0  0.08760  0.00560  0.87420  1.0000 -0.180440717
C   C14       1.0  0.26690  0.09250  0.89094  1.0000 -0.1097751402
C   C15       1.0  0.96820  0.05890  0.96310  1.0000 -0.1666895046
C   C16       1.0  0.04260  0.11950  0.77050  1.0000 -0.5443618887
C   C17       1.0  0.42030  0.94081  0.50800  1.0000 -0.180440717
C   C18       1.0  0.32670  0.10446  0.67877  1.0000 0.307844565
C   C19       1.0  0.50100  0.05834  0.54258  1.0000 -0.1666895046
C   C20       1.0  0.19380  0.17466  0.63021  1.0000 -0.0673838848
C   C21       1.0  0.41930  0.99888  0.55076  1.0000 0.0856032452
C   C22       1.0  0.14840  0.37878  0.68598  1.0000 0.307844565
C   C23       1.0  0.33450  0.99312  0.60618  1.0000 -0.180440717
C   C24       1.0  0.41590  0.07230  0.72346  1.0000 -0.5498754897
C   C25       1.0  0.20610  0.11146  0.59694  1.0000 -0.1264156805
C   C26       1.0  0.31540  0.34600  0.63720  1.0000 -0.0819480525
C   C27       1.0  0.04440  0.49605  0.56000  1.0000 0.0817803821
C   C28       1.0  0.07500  0.55490  0.52290  1.0000 -0.1666895046
C   C29       1.0  0.08760  0.49440  0.62580  1.0000 -0.180440717
C   C30       1.0  0.26690  0.40750  0.60906  1.0000 -0.1097751402
C   C31       1.0  0.96820  0.44110  0.53690  1.0000 -0.1666895046
C   C32       1.0  0.04260  0.38050  0.72950  1.0000 -0.5443618887
C   C33       1.0  0.57970  0.44081  0.00800  1.0000 -0.180440717
C   C34       1.0  0.67330  0.60446  0.17877  1.0000 0.307844565
C   C35       1.0  0.49900  0.55834  0.04258  1.0000 -0.1666895046
C   C36       1.0  0.80620  0.67466  0.13021  1.0000 -0.0673838848
C   C37       1.0  0.58070  0.49888  0.05076  1.0000 0.0856032452
C   C38       1.0  0.85160  0.87878  0.18598  1.0000 0.307844565
C   C39       1.0  0.66550  0.49312  0.10618  1.0000 -0.180440717
C   C40       1.0  0.58410  0.57230  0.22346  1.0000 -0.5498754897
C   C41       1.0  0.79390  0.61146  0.09694  1.0000 -0.1264156805
C   C42       1.0  0.68460  0.84600  0.13720  1.0000 -0.0819480525
C   C43       1.0  0.95560  0.99605  0.06000  1.0000 0.0817803821
C   C44       1.0  0.92500  0.05490  0.02290  1.0000 -0.1666895046
C   C45       1.0  0.91240  0.99440  0.12580  1.0000 -0.180440717
C   C46       1.0  0.73310  0.90750  0.10906  1.0000 -0.1097751402
C   C47       1.0  0.03180  0.94110  0.03690  1.0000 -0.1666895046
C   C48       1.0  0.95740  0.88050  0.22950  1.0000 -0.5443618887
C   C49       1.0  0.57970  0.05919  0.49200  1.0000 -0.180440717
C   C50       1.0  0.67330  0.89554  0.32123  1.0000 0.307844565
C   C51       1.0  0.49900  0.94166  0.45742  1.0000 -0.1666895046
C   C52       1.0  0.80620  0.82534  0.36979  1.0000 -0.0673838848
C   C53       1.0  0.58070  0.00112  0.44924  1.0000 0.0856032452
C   C54       1.0  0.85160  0.62122  0.31402  1.0000 0.307844565
C   C55       1.0  0.66550  0.00688  0.39382  1.0000 -0.180440717
C   C56       1.0  0.58410  0.92770  0.27654  1.0000 -0.5498754897
C   C57       1.0  0.79390  0.88854  0.40306  1.0000 -0.1264156805
C   C58       1.0  0.68460  0.65400  0.36280  1.0000 -0.0819480525
C   C59       1.0  0.95560  0.50395  0.44000  1.0000 0.0817803821
C   C60       1.0  0.92500  0.44510  0.47710  1.0000 -0.1666895046
C   C61       1.0  0.91240  0.50560  0.37420  1.0000 -0.180440717
C   C62       1.0  0.73310  0.59250  0.39094  1.0000 -0.1097751402
C   C63       1.0  0.03180  0.55890  0.46310  1.0000 -0.1666895046
C   C64       1.0  0.95740  0.61950  0.27050  1.0000 -0.5443618887
C   C65       1.0  0.07970  0.55919  0.00800  1.0000 -0.180440717
C   C66       1.0  0.17330  0.39554  0.17877  1.0000 0.307844565
C   C67       1.0  0.99900  0.44166  0.04258  1.0000 -0.1666895046
C   C68       1.0  0.30620  0.32534  0.13021  1.0000 -0.0673838848
C   C69       1.0  0.08070  0.50112  0.05076  1.0000 0.0856032452
C   C70       1.0  0.35160  0.12122  0.18598  1.0000 0.307844565
C   C71       1.0  0.16550  0.50688  0.10618  1.0000 -0.180440717
C   C72       1.0  0.08410  0.42770  0.22346  1.0000 -0.5498754897
C   C73       1.0  0.29390  0.38854  0.09694  1.0000 -0.1264156805
C   C74       1.0  0.18460  0.15400  0.13720  1.0000 -0.0819480525
C   C75       1.0  0.45560  0.00395  0.06000  1.0000 0.0817803821
C   C76       1.0  0.42500  0.94510  0.02290  1.0000 -0.1666895046
C   C77       1.0  0.41240  0.00560  0.12580  1.0000 -0.180440717
C   C78       1.0  0.23310  0.09250  0.10906  1.0000 -0.1097751402
C   C79       1.0  0.53180  0.05890  0.03690  1.0000 -0.1666895046
C   C80       1.0  0.45740  0.11950  0.22950  1.0000 -0.5443618887
C   C81       1.0  0.07970  0.94081  0.49200  1.0000 -0.180440717
C   C82       1.0  0.17330  0.10446  0.32123  1.0000 0.307844565
C   C83       1.0  0.99900  0.05834  0.45742  1.0000 -0.1666895046
C   C84       1.0  0.30620  0.17466  0.36979  1.0000 -0.0673838848
C   C85       1.0  0.08070  0.99888  0.44924  1.0000 0.0856032452
C   C86       1.0  0.35160  0.37878  0.31402  1.0000 0.307844565
C   C87       1.0  0.16550  0.99312  0.39382  1.0000 -0.180440717
C   C88       1.0  0.08410  0.07230  0.27654  1.0000 -0.5498754897
C   C89       1.0  0.29390  0.11146  0.40306  1.0000 -0.1264156805
C   C90       1.0  0.18460  0.34600  0.36280  1.0000 -0.0819480525
C   C91       1.0  0.45560  0.49605  0.44000  1.0000 0.0817803821
C   C92       1.0  0.42500  0.55490  0.47710  1.0000 -0.1666895046
C   C93       1.0  0.41240  0.49440  0.37420  1.0000 -0.180440717
C   C94       1.0  0.23310  0.40750  0.39094  1.0000 -0.1097751402
C   C95       1.0  0.53180  0.44110  0.46310  1.0000 -0.1666895046
C   C96       1.0  0.45740  0.38050  0.27050  1.0000 -0.5443618887
C   C97       1.0  0.92030  0.44081  0.99200  1.0000 -0.180440717
C   C98       1.0  0.82670  0.60446  0.82123  1.0000 0.307844565
C   C99       1.0  0.00100  0.55834  0.95742  1.0000 -0.1666895046
C   C100      1.0  0.69380  0.67466  0.86979  1.0000 -0.0673838848
C   C101      1.0  0.91930  0.49888  0.94924  1.0000 0.0856032452
C   C102      1.0  0.64840  0.87878  0.81402  1.0000 0.307844565
C   C103      1.0  0.83450  0.49312  0.89382  1.0000 -0.180440717
C   C104      1.0  0.91590  0.57230  0.77654  1.0000 -0.5498754897
C   C105      1.0  0.70610  0.61146  0.90306  1.0000 -0.1264156805
C   C106      1.0  0.81540  0.84600  0.86280  1.0000 -0.0819480525
C   C107      1.0  0.54440  0.99605  0.94000  1.0000 0.0817803821
C   C108      1.0  0.57500  0.05490  0.97710  1.0000 -0.1666895046
C   C109      1.0  0.58760  0.99440  0.87420  1.0000 -0.180440717
C   C110      1.0  0.76690  0.90750  0.89094  1.0000 -0.1097751402
C   C111      1.0  0.46820  0.94110  0.96310  1.0000 -0.1666895046
C   C112      1.0  0.54260  0.88050  0.77050  1.0000 -0.5443618887
C   C113      1.0  0.92030  0.05919  0.50800  1.0000 -0.180440717
C   C114      1.0  0.82670  0.89554  0.67877  1.0000 0.307844565
C   C115      1.0  0.00100  0.94166  0.54258  1.0000 -0.1666895046
C   C116      1.0  0.69380  0.82534  0.63021  1.0000 -0.0673838848
C   C117      1.0  0.91930  0.00112  0.55076  1.0000 0.0856032452
C   C118      1.0  0.64840  0.62122  0.68598  1.0000 0.307844565
C   C119      1.0  0.83450  0.00688  0.60618  1.0000 -0.180440717
C   C120      1.0  0.91590  0.92770  0.72346  1.0000 -0.5498754897
C   C121      1.0  0.70610  0.88854  0.59694  1.0000 -0.1264156805
C   C122      1.0  0.81540  0.65400  0.63720  1.0000 -0.0819480525
C   C123      1.0  0.54440  0.50395  0.56000  1.0000 0.0817803821
C   C124      1.0  0.57500  0.44510  0.52290  1.0000 -0.1666895046
C   C125      1.0  0.58760  0.50560  0.62580  1.0000 -0.180440717
C   C126      1.0  0.76690  0.59250  0.60906  1.0000 -0.1097751402
C   C127      1.0  0.46820  0.55890  0.53690  1.0000 -0.1666895046
C   C128      1.0  0.54260  0.61950  0.72950  1.0000 -0.5443618887
N   N1        1.0  0.23860  0.17121  0.81346  1.0000 -0.3264954084
N   N2        1.0  0.16200  0.07282  0.86060  1.0000 -0.0132070755
N   N3        1.0  0.26860  0.32945  0.81797  1.0000 -0.3375398212
N   N4        1.0  0.29040  0.43327  0.87255  1.0000 -0.025670416
N   N5        1.0  0.23860  0.32879  0.68654  1.0000 -0.3264954084
N   N6        1.0  0.16200  0.42718  0.63940  1.0000 -0.0132070755
N   N7        1.0  0.26860  0.17055  0.68203  1.0000 -0.3375398212
N   N8        1.0  0.29040  0.06673  0.62745  1.0000 -0.025670416
N   N9        1.0  0.76140  0.82879  0.18654  1.0000 -0.3264954084
N   N10       1.0  0.83800  0.92718  0.13940  1.0000 -0.0132070755
N   N11       1.0  0.73140  0.67055  0.18203  1.0000 -0.3375398212
N   N12       1.0  0.70960  0.56673  0.12745  1.0000 -0.025670416
N   N13       1.0  0.76140  0.67121  0.31346  1.0000 -0.3264954084
N   N14       1.0  0.83800  0.57282  0.36060  1.0000 -0.0132070755
N   N15       1.0  0.73140  0.82945  0.31797  1.0000 -0.3375398212
N   N16       1.0  0.70960  0.93327  0.37255  1.0000 -0.025670416
N   N17       1.0  0.26140  0.17121  0.18654  1.0000 -0.3264954084
N   N18       1.0  0.33800  0.07282  0.13940  1.0000 -0.0132070755
N   N19       1.0  0.23140  0.32945  0.18203  1.0000 -0.3375398212
N   N20       1.0  0.20960  0.43327  0.12745  1.0000 -0.025670416
N   N21       1.0  0.26140  0.32879  0.31346  1.0000 -0.3264954084
N   N22       1.0  0.33800  0.42718  0.36060  1.0000 -0.0132070755
N   N23       1.0  0.23140  0.17055  0.31797  1.0000 -0.3375398212
N   N24       1.0  0.20960  0.06673  0.37255  1.0000 -0.025670416
N   N25       1.0  0.73860  0.82879  0.81346  1.0000 -0.3264954084
N   N26       1.0  0.66200  0.92718  0.86060  1.0000 -0.0132070755
N   N27       1.0  0.76860  0.67055  0.81797  1.0000 -0.3375398212
N   N28       1.0  0.79040  0.56673  0.87255  1.0000 -0.025670416
N   N29       1.0  0.73860  0.67121  0.68654  1.0000 -0.3264954084
N   N30       1.0  0.66200  0.57282  0.63940  1.0000 -0.0132070755
N   N31       1.0  0.76860  0.82945  0.68203  1.0000 -0.3375398212
N   N32       1.0  0.79040  0.93327  0.62745  1.0000 -0.025670416
