# DDEC6 charges by PACMAN v1.1 (https://github.com/mtap-research/PACMAN-charge/)
data_2018[Cu][fmj]3[ASR]2
_chemical_formula_sum              "Cu12 H80 C168 Cl8 O48"
_cell_length_a       26.1202
_cell_length_b       26.1202
_cell_length_c       26.1202
_cell_angle_alpha    134.022
_cell_angle_beta     98.7739
_cell_angle_gamma    98.7739

_symmetry_space_group_name_H-M    "P 1"
_symmetry_Int_Tables_number       1

loop_
  _symmetry_equiv_pos_as_xyz
  'x, y, z'

loop_
  _atom_site_type_symbol
  _atom_site_label
  _atom_site_symmetry_multiplicity
  _atom_site_fract_x
  _atom_site_fract_y
  _atom_site_fract_z
  _atom_site_occupancy
  _atom_site_charge
Cu  Cu1       1.0  0.99985  0.05855  0.56726  1.0000 0.8417771509
Cu  Cu2       1.0  0.00015  0.56741  0.05870  1.0000 0.8417771509
Cu  Cu3       1.0  0.49129  0.43259  0.43274  1.0000 0.8417771509
Cu  Cu4       1.0  0.50871  0.94145  0.94130  1.0000 0.8417771509
Cu  Cu5       1.0  0.00015  0.94145  0.43274  1.0000 0.8417771509
Cu  Cu6       1.0  0.99985  0.43259  0.94130  1.0000 0.8417771509
Cu  Cu7       1.0  0.50871  0.56741  0.56726  1.0000 0.8417771509
Cu  Cu8       1.0  0.49129  0.05855  0.05870  1.0000 0.8417771509
Cu  Cu9       1.0  0.53850  0.53850  0.00000  1.0000 0.8417771509
Cu  Cu10      1.0  0.46150  0.46150  0.00000  1.0000 0.8417771509
Cu  Cu11      1.0  0.96088  0.50000  0.46088  1.0000 0.8514919807
Cu  Cu12      1.0  0.03912  0.50000  0.53912  1.0000 0.8514919807
H   H1        1.0  0.65310  0.69180  0.22750  1.0000 0.1300344265
H   H2        1.0  0.96640  0.26860  0.42060  1.0000 0.1300344265
H   H3        1.0  0.84290  0.77540  0.31510  1.0000 0.1300344265
H   H4        1.0  0.75240  0.69580  0.27060  1.0000 0.1129901598
H   H5        1.0  0.73200  0.87510  0.46030  1.0000 0.1129901598
H   H6        1.0  0.82270  0.94430  0.50380  1.0000 0.1300344265
H   H7        1.0  0.91250  0.04230  0.27340  1.0000 0.1129901598
H   H8        1.0  0.95940  0.18260  0.52600  1.0000 0.1300344265
H   H9        1.0  0.94370  0.99260  0.31330  1.0000 0.1300344265
H   H10       1.0  0.92700  0.23000  0.48400  1.0000 0.1162488689
H   H11       1.0  0.34690  0.57440  0.03870  1.0000 0.1300344265
H   H12       1.0  0.03360  0.45420  0.30220  1.0000 0.1300344265
H   H13       1.0  0.15710  0.47220  0.93250  1.0000 0.1300344265
H   H14       1.0  0.24760  0.51820  0.94340  1.0000 0.1129901598
H   H15       1.0  0.26800  0.72830  0.14310  1.0000 0.1129901598
H   H16       1.0  0.17730  0.68110  0.12160  1.0000 0.1300344265
H   H17       1.0  0.08750  0.36090  0.12980  1.0000 0.1129901598
H   H18       1.0  0.04060  0.56660  0.22320  1.0000 0.1300344265
H   H19       1.0  0.05630  0.36960  0.04890  1.0000 0.1300344265
H   H20       1.0  0.07300  0.55700  0.30300  1.0000 0.1162488689
H   H21       1.0  0.46430  0.42560  0.77250  1.0000 0.1300344265
H   H22       1.0  0.84800  0.54580  0.57940  1.0000 0.1300344265
H   H23       1.0  0.46030  0.52780  0.68490  1.0000 0.1300344265
H   H24       1.0  0.42520  0.48180  0.72940  1.0000 0.1129901598
H   H25       1.0  0.41480  0.27170  0.53970  1.0000 0.1129901598
H   H26       1.0  0.44050  0.31890  0.49620  1.0000 0.1300344265
H   H27       1.0  0.76890  0.63910  0.72660  1.0000 0.1129901598
H   H28       1.0  0.65660  0.43340  0.47400  1.0000 0.1300344265
H   H29       1.0  0.67930  0.63040  0.68670  1.0000 0.1300344265
H   H30       1.0  0.74600  0.44300  0.51600  1.0000 0.1162488689
H   H31       1.0  0.53570  0.30820  0.96130  1.0000 0.1300344265
H   H32       1.0  0.15200  0.73140  0.69780  1.0000 0.1300344265
H   H33       1.0  0.53970  0.22460  0.06750  1.0000 0.1300344265
H   H34       1.0  0.57480  0.30420  0.05660  1.0000 0.1129901598
H   H35       1.0  0.58520  0.12490  0.85690  1.0000 0.1129901598
H   H36       1.0  0.55950  0.05570  0.87840  1.0000 0.1300344265
H   H37       1.0  0.23110  0.95770  0.87020  1.0000 0.1129901598
H   H38       1.0  0.34340  0.81740  0.77680  1.0000 0.1300344265
H   H39       1.0  0.32070  0.00740  0.95110  1.0000 0.1300344265
H   H40       1.0  0.25400  0.77000  0.69700  1.0000 0.1162488689
H   H41       1.0  0.34690  0.30820  0.77250  1.0000 0.1300344265
H   H42       1.0  0.03360  0.73140  0.57940  1.0000 0.1300344265
H   H43       1.0  0.15710  0.22460  0.68490  1.0000 0.1300344265
H   H44       1.0  0.24760  0.30420  0.72940  1.0000 0.1129901598
H   H45       1.0  0.26800  0.12490  0.53970  1.0000 0.1129901598
H   H46       1.0  0.17730  0.05570  0.49620  1.0000 0.1300344265
H   H47       1.0  0.08750  0.95770  0.72660  1.0000 0.1129901598
H   H48       1.0  0.04060  0.81740  0.47400  1.0000 0.1300344265
H   H49       1.0  0.05630  0.00740  0.68670  1.0000 0.1300344265
H   H50       1.0  0.07300  0.77000  0.51600  1.0000 0.1162488689
H   H51       1.0  0.65310  0.42560  0.96130  1.0000 0.1300344265
H   H52       1.0  0.96640  0.54580  0.69780  1.0000 0.1300344265
H   H53       1.0  0.84290  0.52780  0.06750  1.0000 0.1300344265
H   H54       1.0  0.75240  0.48180  0.05660  1.0000 0.1129901598
H   H55       1.0  0.73200  0.27170  0.85690  1.0000 0.1129901598
H   H56       1.0  0.82270  0.31890  0.87840  1.0000 0.1300344265
H   H57       1.0  0.91250  0.63910  0.87020  1.0000 0.1129901598
H   H58       1.0  0.95940  0.43340  0.77680  1.0000 0.1300344265
H   H59       1.0  0.94370  0.63040  0.95110  1.0000 0.1300344265
H   H60       1.0  0.92700  0.44300  0.69700  1.0000 0.1162488689
H   H61       1.0  0.53570  0.57440  0.22750  1.0000 0.1300344265
H   H62       1.0  0.15200  0.45420  0.42060  1.0000 0.1300344265
H   H63       1.0  0.53970  0.47220  0.31510  1.0000 0.1300344265
H   H64       1.0  0.57480  0.51820  0.27060  1.0000 0.1129901598
H   H65       1.0  0.58520  0.72830  0.46030  1.0000 0.1129901598
H   H66       1.0  0.55950  0.68110  0.50380  1.0000 0.1300344265
H   H67       1.0  0.23110  0.36090  0.27340  1.0000 0.1129901598
H   H68       1.0  0.34340  0.56660  0.52600  1.0000 0.1300344265
H   H69       1.0  0.32070  0.36960  0.31330  1.0000 0.1300344265
H   H70       1.0  0.25400  0.55700  0.48400  1.0000 0.1162488689
H   H71       1.0  0.46430  0.69180  0.03870  1.0000 0.1300344265
H   H72       1.0  0.84800  0.26860  0.30220  1.0000 0.1300344265
H   H73       1.0  0.46030  0.77540  0.93250  1.0000 0.1300344265
H   H74       1.0  0.42520  0.69580  0.94340  1.0000 0.1129901598
H   H75       1.0  0.41480  0.87510  0.14310  1.0000 0.1129901598
H   H76       1.0  0.44050  0.94430  0.12160  1.0000 0.1300344265
H   H77       1.0  0.76890  0.04230  0.12980  1.0000 0.1129901598
H   H78       1.0  0.65660  0.18260  0.22320  1.0000 0.1300344265
H   H79       1.0  0.67930  0.99260  0.04890  1.0000 0.1300344265
H   H80       1.0  0.74600  0.23000  0.30300  1.0000 0.1162488689
C   C1        1.0  0.90151  0.92662  0.45429  1.0000 0.5769951897
C   C2        1.0  0.64079  0.68302  0.25317  1.0000 -0.1485378948
C   C3        1.0  0.93086  0.24481  0.38525  1.0000 -0.1685766405
C   C4        1.0  0.84250  0.87202  0.41848  1.0000 -0.0414957371
C   C5        1.0  0.73262  0.77966  0.36316  1.0000 0.0639641765
C   C6        1.0  0.91698  0.13947  0.37291  1.0000 0.0727218584
C   C7        1.0  0.67593  0.72465  0.32948  1.0000 0.0025346277
C   C8        1.0  0.89646  0.17151  0.34755  1.0000 0.0025346277
C   C9        1.0  0.82105  0.79478  0.34507  1.0000 -0.0976347583
C   C10       1.0  0.76630  0.74722  0.31748  1.0000 -0.1485378948
C   C11       1.0  0.75345  0.85256  0.43049  1.0000 -0.1185983489
C   C12       1.0  0.97156  0.05187  0.45189  1.0000 0.5737128395
C   C13       1.0  0.80845  0.89420  0.45505  1.0000 -0.0901488365
C   C14       1.0  0.92188  0.07069  0.32459  1.0000 -0.13484808
C   C15       1.0  0.95392  0.08391  0.42521  1.0000 -0.0322082363
C   C16       1.0  0.94951  0.15358  0.47453  1.0000 -0.0820103529
C   C17       1.0  0.94044  0.04018  0.34786  1.0000 -0.0820103529
C   C18       1.0  0.93058  0.18255  0.44983  1.0000 -0.1485378948
C   C19       1.0  0.09849  0.55278  0.02511  1.0000 0.5769951897
C   C20       1.0  0.35921  0.61238  0.04223  1.0000 -0.1485378948
C   C21       1.0  0.06914  0.45439  0.31395  1.0000 -0.1685766405
C   C22       1.0  0.15750  0.57598  0.02952  1.0000 -0.0414957371
C   C23       1.0  0.26738  0.63054  0.04704  1.0000 0.0639641765
C   C24       1.0  0.08302  0.45593  0.22249  1.0000 0.0727218584
C   C25       1.0  0.32407  0.65355  0.04872  1.0000 0.0025346277
C   C26       1.0  0.10354  0.45109  0.27505  1.0000 0.0025346277
C   C27       1.0  0.17895  0.52402  0.97373  1.0000 -0.0976347583
C   C28       1.0  0.23370  0.55118  0.98092  1.0000 -0.1485378948
C   C29       1.0  0.24655  0.67704  0.09911  1.0000 -0.1185983489
C   C30       1.0  0.02844  0.48033  0.08031  1.0000 0.5737128395
C   C31       1.0  0.19155  0.64660  0.08575  1.0000 -0.0901488365
C   C32       1.0  0.07812  0.40271  0.14881  1.0000 -0.1369706461
C   C33       1.0  0.04608  0.47129  0.12999  1.0000 -0.0322082363
C   C34       1.0  0.05049  0.52502  0.20407  1.0000 -0.0820103529
C   C35       1.0  0.05956  0.40742  0.09974  1.0000 -0.0820103529
C   C36       1.0  0.06942  0.51925  0.25197  1.0000 -0.1485378948
C   C37       1.0  0.47233  0.44722  0.54571  1.0000 0.5769951897
C   C38       1.0  0.42985  0.38762  0.74683  1.0000 -0.1485378948
C   C39       1.0  0.85956  0.54561  0.61475  1.0000 -0.1685766405
C   C40       1.0  0.45354  0.42402  0.58152  1.0000 -0.0414957371
C   C41       1.0  0.41650  0.36946  0.63684  1.0000 0.0639641765
C   C42       1.0  0.76656  0.54407  0.62709  1.0000 0.0727218584
C   C43       1.0  0.39517  0.34645  0.67052  1.0000 0.0025346277
C   C44       1.0  0.82396  0.54891  0.65245  1.0000 0.0025346277
C   C45       1.0  0.44971  0.47598  0.65493  1.0000 -0.0976347583
C   C46       1.0  0.42974  0.44882  0.68252  1.0000 -0.1485378948
C   C47       1.0  0.42207  0.32296  0.56951  1.0000 -0.1185983489
C   C48       1.0  0.59998  0.51967  0.54811  1.0000 0.5737128395
C   C49       1.0  0.43915  0.35340  0.54495  1.0000 -0.0901488365
C   C50       1.0  0.74610  0.59729  0.67541  1.0000 -0.1369706461
C   C51       1.0  0.65870  0.52871  0.57479  1.0000 -0.0322082363
C   C52       1.0  0.67905  0.47498  0.52547  1.0000 -0.0820103529
C   C53       1.0  0.69232  0.59258  0.65214  1.0000 -0.0820103529
C   C54       1.0  0.73272  0.48075  0.55017  1.0000 -0.1485378948
C   C55       1.0  0.52767  0.07338  0.97489  1.0000 0.5769951897
C   C56       1.0  0.57015  0.31698  0.95777  1.0000 -0.1485378948
C   C57       1.0  0.14044  0.75519  0.68605  1.0000 -0.1685766405
C   C58       1.0  0.54646  0.12798  0.97048  1.0000 -0.0414957371
C   C59       1.0  0.58350  0.22034  0.95296  1.0000 0.0639641765
C   C60       1.0  0.23344  0.86053  0.77751  1.0000 0.0753520683
C   C61       1.0  0.60483  0.27535  0.95128  1.0000 0.0025346277
C   C62       1.0  0.17604  0.82849  0.72495  1.0000 0.0025346277
C   C63       1.0  0.55029  0.20522  0.02627  1.0000 -0.0976347583
C   C64       1.0  0.57026  0.25278  0.01908  1.0000 -0.1485378948
C   C65       1.0  0.57793  0.14744  0.90089  1.0000 -0.1185983489
C   C66       1.0  0.40002  0.94813  0.91969  1.0000 0.5737128395
C   C67       1.0  0.56085  0.10580  0.91425  1.0000 -0.0901488365
C   C68       1.0  0.25390  0.92931  0.85119  1.0000 -0.1369706461
C   C69       1.0  0.34130  0.91609  0.87001  1.0000 -0.0322082363
C   C70       1.0  0.32095  0.84642  0.79593  1.0000 -0.0820103529
C   C71       1.0  0.30768  0.95982  0.90026  1.0000 -0.0820103529
C   C72       1.0  0.26728  0.81745  0.74803  1.0000 -0.1485378948
C   C73       1.0  0.09849  0.07338  0.54571  1.0000 0.5769951897
C   C74       1.0  0.35921  0.31698  0.74683  1.0000 -0.1485378948
C   C75       1.0  0.06914  0.75519  0.61475  1.0000 -0.1685766405
C   C76       1.0  0.15750  0.12798  0.58152  1.0000 -0.0414957371
C   C77       1.0  0.26738  0.22034  0.63684  1.0000 0.0639641765
C   C78       1.0  0.08302  0.86053  0.62709  1.0000 0.0753520683
C   C79       1.0  0.32407  0.27535  0.67052  1.0000 0.0025346277
C   C80       1.0  0.10354  0.82849  0.65245  1.0000 0.0025346277
C   C81       1.0  0.17895  0.20522  0.65493  1.0000 -0.0976347583
C   C82       1.0  0.23370  0.25278  0.68252  1.0000 -0.1485378948
C   C83       1.0  0.24655  0.14744  0.56951  1.0000 -0.1185983489
C   C84       1.0  0.02844  0.94813  0.54811  1.0000 0.5737128395
C   C85       1.0  0.19155  0.10580  0.54495  1.0000 -0.0901488365
C   C86       1.0  0.07812  0.92931  0.67541  1.0000 -0.1369706461
C   C87       1.0  0.04608  0.91609  0.57479  1.0000 -0.0322082363
C   C88       1.0  0.05049  0.84642  0.52547  1.0000 -0.0820103529
C   C89       1.0  0.05956  0.95982  0.65214  1.0000 -0.0820103529
C   C90       1.0  0.06942  0.81745  0.55017  1.0000 -0.1485378948
C   C91       1.0  0.90151  0.44722  0.97489  1.0000 0.5769951897
C   C92       1.0  0.64079  0.38762  0.95777  1.0000 -0.1485378948
C   C93       1.0  0.93086  0.54561  0.68605  1.0000 -0.1685766405
C   C94       1.0  0.84250  0.42402  0.97048  1.0000 -0.0414957371
C   C95       1.0  0.73262  0.36946  0.95296  1.0000 0.0639641765
C   C96       1.0  0.91698  0.54407  0.77751  1.0000 0.0753520683
C   C97       1.0  0.67593  0.34645  0.95128  1.0000 0.0025346277
C   C98       1.0  0.89646  0.54891  0.72495  1.0000 0.0025346277
C   C99       1.0  0.82105  0.47598  0.02627  1.0000 -0.0976347583
C   C100      1.0  0.76630  0.44882  0.01908  1.0000 -0.1485378948
C   C101      1.0  0.75345  0.32296  0.90089  1.0000 -0.1185983489
C   C102      1.0  0.97156  0.51967  0.91969  1.0000 0.5737128395
C   C103      1.0  0.80845  0.35340  0.91425  1.0000 -0.0901488365
C   C104      1.0  0.92188  0.59729  0.85119  1.0000 -0.1369706461
C   C105      1.0  0.95392  0.52871  0.87001  1.0000 -0.0322082363
C   C106      1.0  0.94951  0.47498  0.79593  1.0000 -0.0820103529
C   C107      1.0  0.94044  0.59258  0.90026  1.0000 -0.0820103529
C   C108      1.0  0.93058  0.48075  0.74803  1.0000 -0.1485378948
C   C109      1.0  0.52767  0.55278  0.45429  1.0000 0.5737128395
C   C110      1.0  0.57015  0.61238  0.25317  1.0000 -0.1485378948
C   C111      1.0  0.14044  0.45439  0.38525  1.0000 -0.1685766405
C   C112      1.0  0.54646  0.57598  0.41848  1.0000 -0.0414957371
C   C113      1.0  0.58350  0.63054  0.36316  1.0000 0.0639641765
C   C114      1.0  0.23344  0.45593  0.37291  1.0000 0.0727218584
C   C115      1.0  0.60483  0.65355  0.32948  1.0000 0.0025346277
C   C116      1.0  0.17604  0.45109  0.34755  1.0000 0.0025346277
C   C117      1.0  0.55029  0.52402  0.34507  1.0000 -0.0976347583
C   C118      1.0  0.57026  0.55118  0.31748  1.0000 -0.1485378948
C   C119      1.0  0.57793  0.67704  0.43049  1.0000 -0.1185983489
C   C120      1.0  0.40002  0.48033  0.45189  1.0000 0.5737128395
C   C121      1.0  0.56085  0.64660  0.45505  1.0000 -0.0901488365
C   C122      1.0  0.25390  0.40271  0.32459  1.0000 -0.13484808
C   C123      1.0  0.34130  0.47129  0.42521  1.0000 -0.0322082363
C   C124      1.0  0.32095  0.52502  0.47453  1.0000 -0.0820103529
C   C125      1.0  0.30768  0.40742  0.34786  1.0000 -0.0820103529
C   C126      1.0  0.26728  0.51925  0.44983  1.0000 -0.1485378948
C   C127      1.0  0.47233  0.92662  0.02511  1.0000 0.5769951897
C   C128      1.0  0.42985  0.68302  0.04223  1.0000 -0.1485378948
C   C129      1.0  0.85956  0.24481  0.31395  1.0000 -0.1685766405
C   C130      1.0  0.45354  0.87202  0.02952  1.0000 -0.0414957371
C   C131      1.0  0.41650  0.77966  0.04704  1.0000 0.0639641765
C   C132      1.0  0.76656  0.13947  0.22249  1.0000 0.0727218584
C   C133      1.0  0.39517  0.72465  0.04872  1.0000 0.0025346277
C   C134      1.0  0.82396  0.17151  0.27505  1.0000 0.0025346277
C   C135      1.0  0.44971  0.79478  0.97373  1.0000 -0.0976347583
C   C136      1.0  0.42974  0.74722  0.98092  1.0000 -0.1485378948
C   C137      1.0  0.42207  0.85256  0.09911  1.0000 -0.1185983489
C   C138      1.0  0.59998  0.05187  0.08031  1.0000 0.5737128395
C   C139      1.0  0.43915  0.89420  0.08575  1.0000 -0.0901488365
C   C140      1.0  0.74610  0.07069  0.14881  1.0000 -0.13484808
C   C141      1.0  0.65870  0.08391  0.12999  1.0000 -0.0322082363
C   C142      1.0  0.67905  0.15358  0.20407  1.0000 -0.0820103529
C   C143      1.0  0.69232  0.04018  0.09974  1.0000 -0.0820103529
C   C144      1.0  0.73272  0.18255  0.25197  1.0000 -0.1485378948
C   C145      1.0  0.58950  0.63080  0.22030  1.0000 0.0025346277
C   C146      1.0  0.55404  0.58490  0.13894  1.0000 0.5769951897
C   C147      1.0  0.65570  0.70660  0.36230  1.0000 0.0727218584
C   C148      1.0  0.41050  0.63080  0.04130  1.0000 0.0025346277
C   C149      1.0  0.44596  0.58490  0.03086  1.0000 0.5769951897
C   C150      1.0  0.34430  0.70660  0.05090  1.0000 0.0727218584
C   C151      1.0  0.41050  0.36920  0.77970  1.0000 0.0025346277
C   C152      1.0  0.44596  0.41510  0.86106  1.0000 0.5769951897
C   C153      1.0  0.34430  0.29340  0.63770  1.0000 0.0727218584
C   C154      1.0  0.58950  0.36920  0.95870  1.0000 0.0025346277
C   C155      1.0  0.55404  0.41510  0.96914  1.0000 0.5769951897
C   C156      1.0  0.65570  0.29340  0.94910  1.0000 0.0727218584
C   C157      1.0  0.91152  0.28102  0.36950  1.0000 -0.0028400109
C   C158      1.0  0.84431  0.13851  0.29420  1.0000 0.0727218584
C   C159      1.0  0.94695  0.36305  0.41610  1.0000 0.5737128395
C   C160      1.0  0.08848  0.45798  0.36950  1.0000 -0.0028400109
C   C161      1.0  0.15569  0.44989  0.29420  1.0000 0.0727218584
C   C162      1.0  0.05305  0.46915  0.41610  1.0000 0.5737128395
C   C163      1.0  0.91152  0.54202  0.63050  1.0000 -0.0028400109
C   C164      1.0  0.84431  0.55011  0.70580  1.0000 0.0727218584
C   C165      1.0  0.94695  0.53085  0.58390  1.0000 0.5737128395
C   C166      1.0  0.08848  0.71898  0.63050  1.0000 -0.0028400109
C   C167      1.0  0.15569  0.86149  0.70580  1.0000 0.0727218584
C   C168      1.0  0.05305  0.63695  0.58390  1.0000 0.5737128395
Cl  Cl1       1.0  0.70001  0.75023  0.45024  1.0000 -0.0976347583
Cl  Cl2       1.0  0.29999  0.75023  0.05022  1.0000 -0.0976347583
Cl  Cl3       1.0  0.29999  0.24977  0.54976  1.0000 -0.0976347583
Cl  Cl4       1.0  0.70001  0.24977  0.94978  1.0000 -0.0976347583
Cl  Cl5       1.0  0.80002  0.05107  0.25105  1.0000 -0.0901488365
Cl  Cl6       1.0  0.19998  0.45103  0.25105  1.0000 -0.0901488365
Cl  Cl7       1.0  0.80002  0.54897  0.74895  1.0000 -0.0901488365
Cl  Cl8       1.0  0.19998  0.94893  0.74895  1.0000 -0.0901488365
O   O1        1.0  0.57522  0.59963  0.10839  1.0000 -0.5186084578
O   O2        1.0  0.92238  0.89528  0.40830  1.0000 -0.4373883004
O   O3        1.0  0.92120  0.99551  0.52369  1.0000 -0.541297316
O   O4        1.0  0.92683  0.39270  0.40045  1.0000 -0.5186084578
O   O5        1.0  0.97946  0.08954  0.51986  1.0000 -0.5186084578
O   O6        1.0  0.97828  0.98864  0.40356  1.0000 -0.5186084578
O   O7        1.0  0.42478  0.53317  0.02441  1.0000 -0.5186084578
O   O8        1.0  0.07762  0.48592  0.97290  1.0000 -0.4373883004
O   O9        1.0  0.07880  0.60249  0.07431  1.0000 -0.541297316
O   O10       1.0  0.07317  0.47362  0.46587  1.0000 -0.5186084578
O   O11       1.0  0.02054  0.54040  0.11008  1.0000 -0.5186084578
O   O12       1.0  0.02172  0.42528  0.01036  1.0000 -0.5186084578
O   O13       1.0  0.49124  0.46683  0.89161  1.0000 -0.5186084578
O   O14       1.0  0.48698  0.51408  0.59170  1.0000 -0.4373883004
O   O15       1.0  0.47182  0.39751  0.47631  1.0000 -0.541297316
O   O16       1.0  0.99225  0.52638  0.59955  1.0000 -0.5186084578
O   O17       1.0  0.56968  0.45960  0.48014  1.0000 -0.5186084578
O   O18       1.0  0.58508  0.57472  0.59644  1.0000 -0.5186084578
O   O19       1.0  0.50876  0.40037  0.97559  1.0000 -0.5186084578
O   O20       1.0  0.51302  0.10472  0.02710  1.0000 -0.4373883004
O   O21       1.0  0.52818  0.00449  0.92569  1.0000 -0.541297316
O   O22       1.0  0.00775  0.60730  0.53413  1.0000 -0.5186084578
O   O23       1.0  0.43032  0.91046  0.88992  1.0000 -0.5186084578
O   O24       1.0  0.41492  0.01136  0.98964  1.0000 -0.5186084578
O   O25       1.0  0.42478  0.40037  0.89161  1.0000 -0.5186084578
O   O26       1.0  0.07762  0.10472  0.59170  1.0000 -0.4373883004
O   O27       1.0  0.07880  0.00449  0.47631  1.0000 -0.541297316
O   O28       1.0  0.07317  0.60730  0.59955  1.0000 -0.5186084578
O   O29       1.0  0.02054  0.91046  0.48014  1.0000 -0.5186084578
O   O30       1.0  0.02172  0.01136  0.59644  1.0000 -0.5186084578
O   O31       1.0  0.57522  0.46683  0.97559  1.0000 -0.5186084578
O   O32       1.0  0.92238  0.51408  0.02710  1.0000 -0.4373883004
O   O33       1.0  0.92120  0.39751  0.92569  1.0000 -0.541297316
O   O34       1.0  0.92683  0.52638  0.53413  1.0000 -0.5186084578
O   O35       1.0  0.97946  0.45960  0.88992  1.0000 -0.5186084578
O   O36       1.0  0.97828  0.57472  0.98964  1.0000 -0.5186084578
O   O37       1.0  0.50876  0.53317  0.10839  1.0000 -0.5186084578
O   O38       1.0  0.51302  0.48592  0.40830  1.0000 -0.4373883004
O   O39       1.0  0.52818  0.60249  0.52369  1.0000 -0.541297316
O   O40       1.0  0.00775  0.47362  0.40045  1.0000 -0.5186084578
O   O41       1.0  0.43032  0.54040  0.51986  1.0000 -0.5186084578
O   O42       1.0  0.41492  0.42528  0.40356  1.0000 -0.5186084578
O   O43       1.0  0.49124  0.59963  0.02441  1.0000 -0.5186084578
O   O44       1.0  0.48698  0.89528  0.97290  1.0000 -0.4373883004
O   O45       1.0  0.47182  0.99551  0.07431  1.0000 -0.541297316
O   O46       1.0  0.99225  0.39270  0.46587  1.0000 -0.5186084578
O   O47       1.0  0.56968  0.08954  0.11008  1.0000 -0.5186084578
O   O48       1.0  0.58508  0.98864  0.01036  1.0000 -0.5186084578
