# DDEC6 charges by PACMAN v1.1 (https://github.com/mtap-research/PACMAN-charge/)
data_2018[Dy][flu]3[ASR]1
_chemical_formula_sum              "Dy2 H16 C26 N4 O14"
_cell_length_a       9.0777
_cell_length_b       9.658
_cell_length_c       12.3025
_cell_angle_alpha    64.5813
_cell_angle_beta     72.4054
_cell_angle_gamma    71.459

_symmetry_space_group_name_H-M    "P 1"
_symmetry_Int_Tables_number       1

loop_
  _symmetry_equiv_pos_as_xyz
  'x, y, z'

loop_
  _atom_site_type_symbol
  _atom_site_label
  _atom_site_symmetry_multiplicity
  _atom_site_fract_x
  _atom_site_fract_y
  _atom_site_fract_z
  _atom_site_occupancy
  _atom_site_charge
Dy  Dy1       1.0  0.71958  0.03790  0.99302  1.0000 2.0898367305
Dy  Dy2       1.0  0.28042  0.96210  0.00698  1.0000 2.0898367305
H   H1        1.0  0.92030  0.82760  0.17210  1.0000 0.3873332878
H   H2        1.0  0.64550  0.41330  0.04000  1.0000 0.1751040806
H   H3        1.0  0.10120  0.44700  0.18530  1.0000 0.1533035029
H   H4        1.0  0.12090  0.27770  0.18860  1.0000 0.1533035029
H   H5        1.0  0.74600  0.10690  0.56490  1.0000 0.1387765248
H   H6        1.0  0.12750  0.39740  0.38450  1.0000 0.1387765248
H   H7        1.0  0.04030  0.31220  0.59190  1.0000 0.1387765248
H   H8        1.0  0.82710  0.19640  0.35680  1.0000 0.1320649822
H   H9        1.0  0.07970  0.17240  0.82790  1.0000 0.3873332878
H   H10       1.0  0.35450  0.58670  0.96000  1.0000 0.1751040806
H   H11       1.0  0.89880  0.55300  0.81470  1.0000 0.1533035029
H   H12       1.0  0.87910  0.72230  0.81140  1.0000 0.1533035029
H   H13       1.0  0.25400  0.89310  0.43510  1.0000 0.1387765248
H   H14       1.0  0.87250  0.60260  0.61550  1.0000 0.1387765248
H   H15       1.0  0.95970  0.68780  0.40810  1.0000 0.1387765248
H   H16       1.0  0.17290  0.80360  0.64320  1.0000 0.1320649822
C   C1        1.0  0.56220  0.70930  0.07120  1.0000 0.6229082485
C   C2        1.0  0.69310  0.56940  0.09530  1.0000 0.0563921285
C   C3        1.0  0.71370  0.43590  0.07030  1.0000 -0.2206938799
C   C4        1.0  0.94420  0.19860  0.07690  1.0000 0.6319809099
C   C5        1.0  0.85580  0.34560  0.10020  1.0000 -0.0033897116
C   C6        1.0  0.87880  0.20390  0.60090  1.0000 -0.0274886723
C   C7        1.0  0.81780  0.15590  0.73510  1.0000 0.5835888525
C   C8        1.0  0.04630  0.36370  0.21010  1.0000 -0.1864882271
C   C9        1.0  0.98570  0.30790  0.34680  1.0000 0.121009319
C   C10       1.0  0.82100  0.16820  0.52880  1.0000 -0.0779415528
C   C11       1.0  0.04860  0.34000  0.42000  1.0000 -0.1487857908
C   C12       1.0  0.99600  0.28910  0.54430  1.0000 -0.0779415528
C   C13       1.0  0.87100  0.22020  0.40380  1.0000 -0.1487857908
C   C14       1.0  0.43780  0.29070  0.92880  1.0000 0.6229082485
C   C15       1.0  0.30690  0.43060  0.90470  1.0000 0.0563921285
C   C16       1.0  0.28630  0.56410  0.92970  1.0000 -0.2206938799
C   C17       1.0  0.05580  0.80140  0.92310  1.0000 0.6319809099
C   C18       1.0  0.14420  0.65440  0.89980  1.0000 -0.0033897116
C   C19       1.0  0.12120  0.79610  0.39910  1.0000 -0.0274886723
C   C20       1.0  0.18220  0.84410  0.26490  1.0000 0.5835888525
C   C21       1.0  0.95370  0.63630  0.78990  1.0000 -0.1864882271
C   C22       1.0  0.01430  0.69210  0.65320  1.0000 0.121009319
C   C23       1.0  0.17900  0.83180  0.47120  1.0000 -0.0779415528
C   C24       1.0  0.95140  0.66000  0.58000  1.0000 -0.1487857908
C   C25       1.0  0.00400  0.71090  0.45570  1.0000 -0.0779415528
C   C26       1.0  0.12900  0.77980  0.59620  1.0000 -0.1487857908
N   N1        1.0  0.81220  0.55960  0.14270  1.0000 -0.1487857908
N   N2        1.0  0.91330  0.42230  0.14500  1.0000 0.1671600927
N   N3        1.0  0.18780  0.44040  0.85730  1.0000 -0.1487857908
N   N4        1.0  0.08670  0.57770  0.85500  1.0000 0.1671600927
O   O1        1.0  0.58070  0.84490  0.04740  1.0000 -0.6890419583
O   O2        1.0  0.86390  0.13450  0.05290  1.0000 -0.6495595436
O   O3        1.0  0.88450  0.17830  0.80290  1.0000 -0.6176276664
O   O4        1.0  0.70210  0.08850  0.78360  1.0000 -0.5952311615
O   O5        1.0  0.42900  0.69130  0.07070  1.0000 -0.6290560822
O   O6        1.0  0.82160  0.82550  0.17250  1.0000 -0.8637527685
O   O7        1.0  0.08820  0.15160  0.07950  1.0000 -0.6052783589
O   O8        1.0  0.41930  0.15510  0.95260  1.0000 -0.6890419583
O   O9        1.0  0.13610  0.86550  0.94710  1.0000 -0.6495595436
O   O10       1.0  0.11550  0.82170  0.19710  1.0000 -0.6176276664
O   O11       1.0  0.29790  0.91150  0.21640  1.0000 -0.5946854214
O   O12       1.0  0.57100  0.30870  0.92930  1.0000 -0.6290560822
O   O13       1.0  0.17840  0.17450  0.82750  1.0000 -0.8652319173
O   O14       1.0  0.91180  0.84840  0.92050  1.0000 -0.6052783589
