# DDEC6 charges by PACMAN v1.1 (https://github.com/mtap-research/PACMAN-charge/)
data_2018[Ce][nan]3[ASR]2
_chemical_formula_sum              "Ce4 H4 C10 O24"
_cell_length_a       6.33
_cell_length_b       8.742
_cell_length_c       12.993
_cell_angle_alpha    105.57
_cell_angle_beta     90.451
_cell_angle_gamma    105.192

_symmetry_space_group_name_H-M    "P 1"
_symmetry_Int_Tables_number       1

loop_
  _symmetry_equiv_pos_as_xyz
  'x, y, z'

loop_
  _atom_site_type_symbol
  _atom_site_label
  _atom_site_symmetry_multiplicity
  _atom_site_fract_x
  _atom_site_fract_y
  _atom_site_fract_z
  _atom_site_occupancy
  _atom_site_charge
Ce  Ce1       1.0  0.19048  0.33311  0.92485  1.0000 1.9848110938
Ce  Ce2       1.0  0.43982  0.96985  0.74275  1.0000 1.9383085037
Ce  Ce3       1.0  0.80952  0.66689  0.07515  1.0000 1.9902709985
Ce  Ce4       1.0  0.56018  0.03015  0.25725  1.0000 1.9383085037
H   H1        1.0  0.13500  0.16200  0.66500  1.0000 0.3722033763
H   H2        1.0  0.01900  0.02700  0.69000  1.0000 0.3555928731
H   H3        1.0  0.86500  0.83800  0.33500  1.0000 0.3722033763
H   H4        1.0  0.98100  0.97300  0.31000  1.0000 0.3555928731
C   C1        1.0  0.45710  0.69570  0.86970  1.0000 0.5110661948
C   C2        1.0  0.71290  0.29100  0.86940  1.0000 0.8352656627
C   C3        1.0  0.26680  0.60130  0.78020  1.0000 0.5110661948
C   C4        1.0  0.59570  0.07940  0.52130  1.0000 0.4841881806
C   C5        1.0  0.94520  0.04950  0.04580  1.0000 0.5240220691
C   C6        1.0  0.54290  0.30430  0.13030  1.0000 0.5110661948
C   C7        1.0  0.28710  0.70900  0.13060  1.0000 0.834522214
C   C8        1.0  0.73320  0.39870  0.21980  1.0000 0.5110661948
C   C9        1.0  0.40430  0.92060  0.47870  1.0000 0.4841881806
C   C10       1.0  0.05480  0.95050  0.95420  1.0000 0.5240220691
O   O1        1.0  0.82950  0.97150  0.10320  1.0000 -0.6348145938
O   O2        1.0  0.13940  0.10220  0.70640  1.0000 -0.7385736441
O   O3        1.0  0.51280  0.26810  0.84000  1.0000 -0.7337984478
O   O4        1.0  0.84060  0.43160  0.92410  1.0000 -0.7385736441
O   O5        1.0  0.49200  0.61370  0.93220  1.0000 -0.62377936
O   O6        1.0  0.79650  0.16840  0.83900  1.0000 -0.746461842
O   O7        1.0  0.68630  0.14930  0.45520  1.0000 -0.5703078246
O   O8        1.0  0.98160  0.20050  0.05520  1.0000 -0.5294469531
O   O9        1.0  0.23380  0.68070  0.71620  1.0000 -0.581939671
O   O10       1.0  0.55730  0.83820  0.87290  1.0000 -0.5424287057
O   O11       1.0  0.16550  0.45860  0.77570  1.0000 -0.5294469531
O   O12       1.0  0.64540  0.12840  0.62000  1.0000 -0.5516909992
O   O13       1.0  0.17050  0.02850  0.89680  1.0000 -0.6348145938
O   O14       1.0  0.86060  0.89780  0.29360  1.0000 -0.7385736441
O   O15       1.0  0.48720  0.73190  0.16000  1.0000 -0.7337984478
O   O16       1.0  0.15940  0.56840  0.07590  1.0000 -0.7385736441
O   O17       1.0  0.50800  0.38630  0.06780  1.0000 -0.62377936
O   O18       1.0  0.20350  0.83160  0.16100  1.0000 -0.746461842
O   O19       1.0  0.31370  0.85070  0.54480  1.0000 -0.5703078246
O   O20       1.0  0.01840  0.79950  0.94480  1.0000 -0.5294469531
O   O21       1.0  0.76620  0.31930  0.28380  1.0000 -0.581939671
O   O22       1.0  0.44270  0.16180  0.12710  1.0000 -0.5424287057
O   O23       1.0  0.83450  0.54140  0.22430  1.0000 -0.5246864295
O   O24       1.0  0.35460  0.87160  0.38000  1.0000 -0.5516909992
