# DDEC6 charges by PACMAN v1.1 (https://github.com/mtap-research/PACMAN-charge/)
data_2018[Zn][pcu]3[ASR]7
_chemical_formula_sum              "Zn2 H24 C24 N36"
_cell_length_a       13.4301
_cell_length_b       13.4301
_cell_length_c       13.4301
_cell_angle_alpha    47.8845
_cell_angle_beta     47.8845
_cell_angle_gamma    47.8845

_symmetry_space_group_name_H-M    "P 1"
_symmetry_Int_Tables_number       1

loop_
  _symmetry_equiv_pos_as_xyz
  'x, y, z'

loop_
  _atom_site_type_symbol
  _atom_site_label
  _atom_site_symmetry_multiplicity
  _atom_site_fract_x
  _atom_site_fract_y
  _atom_site_fract_z
  _atom_site_occupancy
  _atom_site_charge
Zn  Zn1       1.0  0.00000  0.00000  0.00000  1.0000 0.5577753495
Zn  Zn2       1.0  0.50000  0.50000  0.50000  1.0000 0.5577753495
H   H1        1.0  0.49710  0.85630  0.93310  1.0000 0.1182761146
H   H2        1.0  0.23220  0.14620  0.72420  1.0000 0.1182761146
H   H3        1.0  0.58560  0.07660  0.49800  1.0000 0.1182761146
H   H4        1.0  0.42510  0.22010  0.77900  1.0000 0.1271531594
H   H5        1.0  0.85630  0.93310  0.49710  1.0000 0.1182761146
H   H6        1.0  0.14620  0.72420  0.23220  1.0000 0.1182761146
H   H7        1.0  0.07660  0.49800  0.58560  1.0000 0.1182761146
H   H8        1.0  0.22010  0.77900  0.42510  1.0000 0.1271531594
H   H9        1.0  0.93310  0.49710  0.85630  1.0000 0.1182761146
H   H10       1.0  0.72420  0.23220  0.14620  1.0000 0.1182761146
H   H11       1.0  0.49800  0.58560  0.07660  1.0000 0.1182761146
H   H12       1.0  0.77900  0.42510  0.22010  1.0000 0.1271531594
H   H13       1.0  0.50290  0.14370  0.06690  1.0000 0.1182761146
H   H14       1.0  0.76780  0.85380  0.27580  1.0000 0.1182761146
H   H15       1.0  0.41440  0.92340  0.50200  1.0000 0.1182761146
H   H16       1.0  0.57490  0.77990  0.22100  1.0000 0.1271531594
H   H17       1.0  0.14370  0.06690  0.50290  1.0000 0.1182761146
H   H18       1.0  0.85380  0.27580  0.76780  1.0000 0.1182761146
H   H19       1.0  0.92340  0.50200  0.41440  1.0000 0.1182761146
H   H20       1.0  0.77990  0.22100  0.57490  1.0000 0.1271531594
H   H21       1.0  0.06690  0.50290  0.14370  1.0000 0.1182761146
H   H22       1.0  0.27580  0.76780  0.85380  1.0000 0.1182761146
H   H23       1.0  0.50200  0.41440  0.92340  1.0000 0.1182761146
H   H24       1.0  0.22100  0.57490  0.77990  1.0000 0.1271531594
C   C1        1.0  0.41791  0.90601  0.90891  1.0000 -0.009705361
C   C2        1.0  0.27352  0.06452  0.79462  1.0000 0.0360544894
C   C3        1.0  0.56409  0.12949  0.53799  1.0000 -0.009705361
C   C4        1.0  0.47614  0.20734  0.69194  1.0000 0.0236065704
C   C5        1.0  0.90601  0.90891  0.41791  1.0000 -0.009705361
C   C6        1.0  0.06452  0.79462  0.27352  1.0000 0.0360544894
C   C7        1.0  0.12949  0.53799  0.56409  1.0000 -0.009705361
C   C8        1.0  0.20734  0.69194  0.47614  1.0000 0.0236065704
C   C9        1.0  0.90891  0.41791  0.90601  1.0000 -0.009705361
C   C10       1.0  0.79462  0.27352  0.06452  1.0000 0.0360544894
C   C11       1.0  0.53799  0.56409  0.12949  1.0000 -0.009705361
C   C12       1.0  0.69194  0.47614  0.20734  1.0000 0.0236065704
C   C13       1.0  0.58209  0.09399  0.09109  1.0000 -0.009705361
C   C14       1.0  0.72648  0.93548  0.20538  1.0000 0.0345951405
C   C15       1.0  0.43591  0.87051  0.46201  1.0000 -0.009705361
C   C16       1.0  0.52386  0.79266  0.30806  1.0000 0.0236065704
C   C17       1.0  0.09399  0.09109  0.58209  1.0000 -0.009705361
C   C18       1.0  0.93548  0.20538  0.72648  1.0000 0.0360544894
C   C19       1.0  0.87051  0.46201  0.43591  1.0000 -0.009705361
C   C20       1.0  0.79266  0.30806  0.52386  1.0000 0.0236065704
C   C21       1.0  0.09109  0.58209  0.09399  1.0000 -0.0047775928
C   C22       1.0  0.20538  0.72648  0.93548  1.0000 0.0345951405
C   C23       1.0  0.46201  0.43591  0.87051  1.0000 -0.009705361
C   C24       1.0  0.30806  0.52386  0.79266  1.0000 0.0236065704
N   N1        1.0  0.22030  0.96830  0.91250  1.0000 -0.1784599635
N   N2        1.0  0.31213  0.86603  0.98663  1.0000 -0.2437213648
N   N3        1.0  0.39812  0.02992  0.78772  1.0000 0.058736401
N   N4        1.0  0.55252  0.27972  0.56352  1.0000 -0.1784599635
N   N5        1.0  0.60906  0.23066  0.46436  1.0000 -0.2208492967
N   N6        1.0  0.48122  0.11062  0.68122  1.0000 0.058736401
N   N7        1.0  0.96830  0.91250  0.22030  1.0000 -0.1784599635
N   N8        1.0  0.86603  0.98663  0.31213  1.0000 -0.2437213648
N   N9        1.0  0.02992  0.78772  0.39812  1.0000 0.0533675817
N   N10       1.0  0.27972  0.56352  0.55252  1.0000 -0.1784599635
N   N11       1.0  0.23066  0.46436  0.60906  1.0000 -0.2208492967
N   N12       1.0  0.11062  0.68122  0.48122  1.0000 0.058736401
N   N13       1.0  0.91250  0.22030  0.96830  1.0000 -0.1784599635
N   N14       1.0  0.98663  0.31213  0.86603  1.0000 -0.2437213648
N   N15       1.0  0.78772  0.39812  0.02992  1.0000 0.0533675817
N   N16       1.0  0.56352  0.55252  0.27972  1.0000 -0.1784599635
N   N17       1.0  0.46436  0.60906  0.23066  1.0000 -0.2208492967
N   N18       1.0  0.68122  0.48122  0.11062  1.0000 0.058736401
N   N19       1.0  0.77970  0.03170  0.08750  1.0000 -0.1784599635
N   N20       1.0  0.68787  0.13397  0.01337  1.0000 -0.2437213648
N   N21       1.0  0.60188  0.97008  0.21228  1.0000 0.0533675817
N   N22       1.0  0.44748  0.72028  0.43648  1.0000 -0.1784599635
N   N23       1.0  0.39094  0.76934  0.53564  1.0000 -0.2208492967
N   N24       1.0  0.51878  0.88938  0.31878  1.0000 0.058736401
N   N25       1.0  0.03170  0.08750  0.77970  1.0000 -0.1784599635
N   N26       1.0  0.13397  0.01337  0.68787  1.0000 -0.2437213648
N   N27       1.0  0.97008  0.21228  0.60188  1.0000 0.0533675817
N   N28       1.0  0.72028  0.43648  0.44748  1.0000 -0.1784599635
N   N29       1.0  0.76934  0.53564  0.39094  1.0000 -0.2208492967
N   N30       1.0  0.88938  0.31878  0.51878  1.0000 0.058736401
N   N31       1.0  0.08750  0.77970  0.03170  1.0000 -0.1784599635
N   N32       1.0  0.01337  0.68787  0.13397  1.0000 -0.2437213648
N   N33       1.0  0.21228  0.60188  0.97008  1.0000 0.0533675817
N   N34       1.0  0.43648  0.44748  0.72028  1.0000 -0.1784599635
N   N35       1.0  0.53564  0.39094  0.76934  1.0000 -0.2208492967
N   N36       1.0  0.31878  0.51878  0.88938  1.0000 0.058736401
