# DDEC6 charges by PACMAN v1.1 (https://github.com/mtap-research/PACMAN-charge/)
data_2018[Tb][nan]3[ASR]6
_chemical_formula_sum              "Tb6 H18 C42 N6 O30"
_cell_length_a       11.7782
_cell_length_b       11.7782
_cell_length_c       15.6393
_cell_angle_alpha    90
_cell_angle_beta     90
_cell_angle_gamma    120

_symmetry_space_group_name_H-M    "P 1"
_symmetry_Int_Tables_number       1

loop_
  _symmetry_equiv_pos_as_xyz
  'x, y, z'

loop_
  _atom_site_type_symbol
  _atom_site_label
  _atom_site_symmetry_multiplicity
  _atom_site_fract_x
  _atom_site_fract_y
  _atom_site_fract_z
  _atom_site_occupancy
  _atom_site_charge
Tb  Tb1       1.0  0.82288  0.17712  0.08333  1.0000 2.0476427292
Tb  Tb2       1.0  0.35424  0.17712  0.41667  1.0000 2.0476427292
Tb  Tb3       1.0  0.82288  0.64576  0.75000  1.0000 2.0476427292
Tb  Tb4       1.0  0.17712  0.82288  0.58333  1.0000 2.0476427292
Tb  Tb5       1.0  0.64576  0.82288  0.91667  1.0000 2.0476427292
Tb  Tb6       1.0  0.17712  0.35424  0.25000  1.0000 2.0476427292
H   H1        1.0  0.78152  0.41994  0.98415  1.0000 0.1112531221
H   H2        1.0  0.63842  0.21848  0.31749  1.0000 0.1112531221
H   H3        1.0  0.58006  0.36158  0.65082  1.0000 0.1112531221
H   H4        1.0  0.21848  0.58006  0.48415  1.0000 0.1112531221
H   H5        1.0  0.36158  0.78152  0.81749  1.0000 0.1112531221
H   H6        1.0  0.41994  0.63842  0.15082  1.0000 0.1112531221
H   H7        1.0  0.36158  0.58006  0.01585  1.0000 0.1112531221
H   H8        1.0  0.41994  0.78152  0.68251  1.0000 0.1112531221
H   H9        1.0  0.21848  0.63842  0.34918  1.0000 0.1112531221
H   H10       1.0  0.63842  0.41994  0.51585  1.0000 0.1112531221
H   H11       1.0  0.58006  0.21848  0.18251  1.0000 0.1112531221
H   H12       1.0  0.78152  0.36158  0.84918  1.0000 0.1112531221
H   H13       1.0  0.51206  0.48795  0.08333  1.0000 0.137560677
H   H14       1.0  0.97589  0.48795  0.41667  1.0000 0.137560677
H   H15       1.0  0.51206  0.02411  0.75000  1.0000 0.137560677
H   H16       1.0  0.48795  0.51206  0.58333  1.0000 0.137560677
H   H17       1.0  0.02411  0.51206  0.91667  1.0000 0.137560677
H   H18       1.0  0.48795  0.97589  0.25000  1.0000 0.137560677
C   C1        1.0  0.71601  0.40000  0.02463  1.0000 0.0795817719
C   C2        1.0  0.65001  0.46700  0.02153  1.0000 -0.0748695468
C   C3        1.0  0.66801  0.55500  0.94743  1.0000 0.6383112038
C   C4        1.0  0.68399  0.28399  0.35797  1.0000 0.0795817719
C   C5        1.0  0.81699  0.34999  0.35487  1.0000 -0.0753426288
C   C6        1.0  0.88699  0.33199  0.28077  1.0000 0.6383112038
C   C7        1.0  0.60000  0.31601  0.69130  1.0000 0.0795817719
C   C8        1.0  0.53300  0.18301  0.68820  1.0000 -0.0753426288
C   C9        1.0  0.44500  0.11301  0.61410  1.0000 0.6383112038
C   C10       1.0  0.28399  0.60000  0.52463  1.0000 0.0795817719
C   C11       1.0  0.34999  0.53300  0.52153  1.0000 -0.0753426288
C   C12       1.0  0.33199  0.44500  0.44743  1.0000 0.6383112038
C   C13       1.0  0.31601  0.71601  0.85797  1.0000 0.0795817719
C   C14       1.0  0.18301  0.65001  0.85487  1.0000 -0.0753426288
C   C15       1.0  0.11301  0.66801  0.78077  1.0000 0.6383112038
C   C16       1.0  0.40000  0.68399  0.19130  1.0000 0.0795817719
C   C17       1.0  0.46700  0.81699  0.18820  1.0000 -0.0753426288
C   C18       1.0  0.55500  0.88699  0.11410  1.0000 0.6383112038
C   C19       1.0  0.31601  0.60000  0.97537  1.0000 0.0795817719
C   C20       1.0  0.18301  0.53300  0.97847  1.0000 -0.0753426288
C   C21       1.0  0.11301  0.44500  0.05257  1.0000 0.6383112038
C   C22       1.0  0.40000  0.71601  0.64203  1.0000 0.0795817719
C   C23       1.0  0.46700  0.65001  0.64513  1.0000 -0.0753426288
C   C24       1.0  0.55500  0.66801  0.71923  1.0000 0.6383112038
C   C25       1.0  0.28399  0.68399  0.30870  1.0000 0.0795817719
C   C26       1.0  0.34999  0.81699  0.31180  1.0000 -0.0753426288
C   C27       1.0  0.33199  0.88699  0.38590  1.0000 0.6383112038
C   C28       1.0  0.68399  0.40000  0.47537  1.0000 0.0795817719
C   C29       1.0  0.81699  0.46700  0.47847  1.0000 -0.0753426288
C   C30       1.0  0.88699  0.55500  0.55257  1.0000 0.6383112038
C   C31       1.0  0.60000  0.28399  0.14203  1.0000 0.0795817719
C   C32       1.0  0.53300  0.34999  0.14513  1.0000 -0.0753426288
C   C33       1.0  0.44500  0.33199  0.21923  1.0000 0.6383112038
C   C34       1.0  0.71601  0.31601  0.80870  1.0000 0.0795817719
C   C35       1.0  0.65001  0.18301  0.81180  1.0000 -0.0753426288
C   C36       1.0  0.66801  0.11301  0.88590  1.0000 0.6383112038
C   C37       1.0  0.55750  0.44249  0.08333  1.0000 -0.0477660364
C   C38       1.0  0.88499  0.44249  0.41667  1.0000 -0.0477660364
C   C39       1.0  0.55751  0.11501  0.75000  1.0000 -0.0477660364
C   C40       1.0  0.44250  0.55751  0.58333  1.0000 -0.0477660364
C   C41       1.0  0.11501  0.55751  0.91667  1.0000 -0.0477660364
C   C42       1.0  0.44249  0.88499  0.25000  1.0000 -0.0477660364
N   N1        1.0  0.69300  0.30700  0.08333  1.0000 -0.3245605414
N   N2        1.0  0.61399  0.30700  0.41667  1.0000 -0.3261298125
N   N3        1.0  0.69300  0.38601  0.75000  1.0000 -0.3245605414
N   N4        1.0  0.30700  0.69300  0.58333  1.0000 -0.3261298125
N   N5        1.0  0.38601  0.69300  0.91667  1.0000 -0.3245605414
N   N6        1.0  0.30700  0.61399  0.25000  1.0000 -0.3261298125
O   O1        1.0  0.74921  0.56620  0.89063  1.0000 -0.6110163217
O   O2        1.0  0.59951  0.61030  0.94453  1.0000 -0.6292704379
O   O3        1.0  0.81699  0.25079  0.22397  1.0000 -0.6110163217
O   O4        1.0  0.01079  0.40049  0.27787  1.0000 -0.6292704379
O   O5        1.0  0.43380  0.18301  0.55730  1.0000 -0.6110163217
O   O6        1.0  0.38970  0.98921  0.61120  1.0000 -0.6292704379
O   O7        1.0  0.25079  0.43380  0.39063  1.0000 -0.6110163217
O   O8        1.0  0.40049  0.38970  0.44453  1.0000 -0.6292704379
O   O9        1.0  0.18301  0.74921  0.72397  1.0000 -0.6110163217
O   O10       1.0  0.98921  0.59951  0.77787  1.0000 -0.6292704379
O   O11       1.0  0.56620  0.81699  0.05730  1.0000 -0.6110163217
O   O12       1.0  0.61030  0.01079  0.11120  1.0000 -0.6292704379
O   O13       1.0  0.18301  0.43380  0.10937  1.0000 -0.6110163217
O   O14       1.0  0.98921  0.38970  0.05547  1.0000 -0.6292704379
O   O15       1.0  0.56620  0.74921  0.77603  1.0000 -0.6110163217
O   O16       1.0  0.61030  0.59951  0.72213  1.0000 -0.6292704379
O   O17       1.0  0.25079  0.81699  0.44270  1.0000 -0.6110163217
O   O18       1.0  0.40049  0.01079  0.38880  1.0000 -0.6292704379
O   O19       1.0  0.81699  0.56620  0.60937  1.0000 -0.6110163217
O   O20       1.0  0.01079  0.61030  0.55547  1.0000 -0.6292704379
O   O21       1.0  0.43380  0.25079  0.27603  1.0000 -0.6110163217
O   O22       1.0  0.38970  0.40049  0.22213  1.0000 -0.6292704379
O   O23       1.0  0.74921  0.18301  0.94270  1.0000 -0.6110163217
O   O24       1.0  0.59951  0.98921  0.88880  1.0000 -0.6292704379
O   O25       1.0  0.83201  0.00000  0.00000  1.0000 -0.848171163
O   O26       1.0  0.16799  0.16799  0.33333  1.0000 -0.8373207633
O   O27       1.0  0.00000  0.83201  0.66667  1.0000 -0.8321214502
O   O28       1.0  0.16799  0.00000  0.50000  1.0000 -0.8373207633
O   O29       1.0  0.83201  0.83201  0.83333  1.0000 -0.848171163
O   O30       1.0  0.00000  0.16799  0.16667  1.0000 -0.8321214502
