# DDEC6 charges by PACMAN v1.1 (https://github.com/mtap-research/PACMAN-charge/)
data_2018[Fe][nuc]3[ASR]1
_chemical_formula_sum              "Fe12 H56 C120 O52"
_cell_length_a       10.96
_cell_length_b       10.96
_cell_length_c       47.094
_cell_angle_alpha    90
_cell_angle_beta     90
_cell_angle_gamma    90

_symmetry_space_group_name_H-M    "P 1"
_symmetry_Int_Tables_number       1

loop_
  _symmetry_equiv_pos_as_xyz
  'x, y, z'

loop_
  _atom_site_type_symbol
  _atom_site_label
  _atom_site_symmetry_multiplicity
  _atom_site_fract_x
  _atom_site_fract_y
  _atom_site_fract_z
  _atom_site_occupancy
  _atom_site_charge
Fe  Fe1       1.0  0.53115  0.66051  0.52743  1.0000 1.1796967684
Fe  Fe2       1.0  0.46885  0.33949  0.02743  1.0000 1.1796967684
Fe  Fe3       1.0  0.83949  0.03115  0.77743  1.0000 1.1796967684
Fe  Fe4       1.0  0.16051  0.96885  0.27743  1.0000 1.1796967684
Fe  Fe5       1.0  0.96885  0.16051  0.72257  1.0000 1.1796967684
Fe  Fe6       1.0  0.03115  0.83949  0.22257  1.0000 1.1796967684
Fe  Fe7       1.0  0.66051  0.53115  0.47257  1.0000 1.1796967684
Fe  Fe8       1.0  0.33949  0.46885  0.97257  1.0000 1.1796967684
Fe  Fe9       1.0  0.40943  0.40943  0.50000  1.0000 1.1983371376
Fe  Fe10      1.0  0.59057  0.59057  0.00000  1.0000 1.2077050009
Fe  Fe11      1.0  0.09057  0.90943  0.75000  1.0000 1.2077050009
Fe  Fe12      1.0  0.90943  0.09057  0.25000  1.0000 1.2077050009
H   H1        1.0  0.03290  0.56530  0.50600  1.0000 0.1400880328
H   H2        1.0  0.85130  0.72160  0.57050  1.0000 0.1287347831
H   H3        1.0  0.21670  0.72390  0.56950  1.0000 0.1287347831
H   H4        1.0  0.89500  0.89730  0.59780  1.0000 0.1194189948
H   H5        1.0  0.90260  0.99530  0.64090  1.0000 0.1287347831
H   H6        1.0  0.16980  0.77150  0.66580  1.0000 0.1287347831
H   H7        1.0  0.18130  0.69490  0.61960  1.0000 0.1194189948
H   H8        1.0  0.96710  0.43470  0.00600  1.0000 0.1400880328
H   H9        1.0  0.14870  0.27840  0.07050  1.0000 0.1287347831
H   H10       1.0  0.78330  0.27610  0.06950  1.0000 0.1287347831
H   H11       1.0  0.10500  0.10270  0.09780  1.0000 0.1194189948
H   H12       1.0  0.09740  0.00470  0.14090  1.0000 0.1287347831
H   H13       1.0  0.83020  0.22850  0.16580  1.0000 0.1287347831
H   H14       1.0  0.81870  0.30510  0.11960  1.0000 0.1194189948
H   H15       1.0  0.93470  0.53290  0.75600  1.0000 0.1400880328
H   H16       1.0  0.77840  0.35130  0.82050  1.0000 0.1287347831
H   H17       1.0  0.77610  0.71670  0.81950  1.0000 0.1287347831
H   H18       1.0  0.60270  0.39500  0.84780  1.0000 0.1194189948
H   H19       1.0  0.50470  0.40260  0.89090  1.0000 0.1287347831
H   H20       1.0  0.72850  0.66980  0.91580  1.0000 0.1287347831
H   H21       1.0  0.80510  0.68130  0.86960  1.0000 0.1194189948
H   H22       1.0  0.06530  0.46710  0.25600  1.0000 0.1400880328
H   H23       1.0  0.22160  0.64870  0.32050  1.0000 0.1287347831
H   H24       1.0  0.22390  0.28330  0.31950  1.0000 0.1287347831
H   H25       1.0  0.39730  0.60500  0.34780  1.0000 0.1194189948
H   H26       1.0  0.49530  0.59740  0.39090  1.0000 0.1287347831
H   H27       1.0  0.27150  0.33020  0.41580  1.0000 0.1287347831
H   H28       1.0  0.19490  0.31870  0.36960  1.0000 0.1194189948
H   H29       1.0  0.46710  0.06530  0.74400  1.0000 0.1400880328
H   H30       1.0  0.64870  0.22160  0.67950  1.0000 0.1287347831
H   H31       1.0  0.28330  0.22390  0.68050  1.0000 0.1287347831
H   H32       1.0  0.60500  0.39730  0.65220  1.0000 0.1194189948
H   H33       1.0  0.59740  0.49530  0.60910  1.0000 0.1287347831
H   H34       1.0  0.33020  0.27150  0.58420  1.0000 0.1287347831
H   H35       1.0  0.31870  0.19490  0.63040  1.0000 0.1194189948
H   H36       1.0  0.53290  0.93470  0.24400  1.0000 0.1400880328
H   H37       1.0  0.35130  0.77840  0.17950  1.0000 0.1287347831
H   H38       1.0  0.71670  0.77610  0.18050  1.0000 0.1287347831
H   H39       1.0  0.39500  0.60270  0.15220  1.0000 0.1194189948
H   H40       1.0  0.40260  0.50470  0.10910  1.0000 0.1287347831
H   H41       1.0  0.66980  0.72850  0.08420  1.0000 0.1287347831
H   H42       1.0  0.68130  0.80510  0.13040  1.0000 0.1194189948
H   H43       1.0  0.56530  0.03290  0.49400  1.0000 0.1400880328
H   H44       1.0  0.72160  0.85130  0.42950  1.0000 0.1287347831
H   H45       1.0  0.72390  0.21670  0.43050  1.0000 0.1287347831
H   H46       1.0  0.89730  0.89500  0.40220  1.0000 0.1194189948
H   H47       1.0  0.99530  0.90260  0.35910  1.0000 0.1287347831
H   H48       1.0  0.77150  0.16980  0.33420  1.0000 0.1287347831
H   H49       1.0  0.69490  0.18130  0.38040  1.0000 0.1194189948
H   H50       1.0  0.43470  0.96710  0.99400  1.0000 0.1400880328
H   H51       1.0  0.27840  0.14870  0.92950  1.0000 0.1287347831
H   H52       1.0  0.27610  0.78330  0.93050  1.0000 0.1287347831
H   H53       1.0  0.10270  0.10500  0.90220  1.0000 0.1194189948
H   H54       1.0  0.00470  0.09740  0.85910  1.0000 0.1287347831
H   H55       1.0  0.22850  0.83020  0.83420  1.0000 0.1287347831
H   H56       1.0  0.30510  0.81870  0.88040  1.0000 0.1194189948
C   C1        1.0  0.14130  0.63990  0.53591  1.0000 -0.0070940102
C   C2        1.0  0.03280  0.60820  0.52306  1.0000 -0.110974407
C   C3        1.0  0.92390  0.64090  0.53575  1.0000 -0.0230774573
C   C4        1.0  0.92480  0.69970  0.56206  1.0000 -0.1497598573
C   C5        1.0  0.03500  0.72590  0.57585  1.0000 0.0642330589
C   C6        1.0  0.14260  0.70020  0.56164  1.0000 -0.1436905288
C   C7        1.0  0.03360  0.78510  0.60441  1.0000 0.0788250415
C   C8        1.0  0.95280  0.87350  0.61110  1.0000 -0.1436905288
C   C9        1.0  0.95420  0.92960  0.63754  1.0000 -0.0788958062
C   C10       1.0  0.03040  0.89000  0.65890  1.0000 -0.0694710899
C   C11       1.0  0.11580  0.79940  0.65200  1.0000 -0.0694710899
C   C12       1.0  0.12050  0.75030  0.62450  1.0000 -0.1497598573
C   C13       1.0  0.26350  0.61320  0.52166  1.0000 0.5985469817
C   C14       1.0  0.80270  0.61540  0.52208  1.0000 0.5985469817
C   C15       1.0  0.02860  0.94610  0.68713  1.0000 0.5985469817
C   C16       1.0  0.85870  0.36010  0.03591  1.0000 -0.0070940102
C   C17       1.0  0.96720  0.39180  0.02306  1.0000 -0.110974407
C   C18       1.0  0.07610  0.35910  0.03575  1.0000 -0.0230774573
C   C19       1.0  0.07520  0.30030  0.06206  1.0000 -0.1497598573
C   C20       1.0  0.96500  0.27410  0.07585  1.0000 0.0642330589
C   C21       1.0  0.85740  0.29980  0.06164  1.0000 -0.1436905288
C   C22       1.0  0.96640  0.21490  0.10441  1.0000 0.0788250415
C   C23       1.0  0.04720  0.12650  0.11110  1.0000 -0.1436905288
C   C24       1.0  0.04580  0.07040  0.13754  1.0000 -0.0788958062
C   C25       1.0  0.96960  0.11000  0.15890  1.0000 -0.0694710899
C   C26       1.0  0.88420  0.20060  0.15200  1.0000 -0.0788958062
C   C27       1.0  0.87950  0.24970  0.12450  1.0000 -0.1497598573
C   C28       1.0  0.73650  0.38680  0.02166  1.0000 0.5985469817
C   C29       1.0  0.19730  0.38460  0.02208  1.0000 0.5985469817
C   C30       1.0  0.97140  0.05390  0.18713  1.0000 0.5985469817
C   C31       1.0  0.86010  0.64130  0.78591  1.0000 -0.0070940102
C   C32       1.0  0.89180  0.53280  0.77306  1.0000 -0.110974407
C   C33       1.0  0.85910  0.42390  0.78575  1.0000 -0.0230774573
C   C34       1.0  0.80030  0.42480  0.81206  1.0000 -0.1497598573
C   C35       1.0  0.77410  0.53500  0.82585  1.0000 0.0642330589
C   C36       1.0  0.79980  0.64260  0.81164  1.0000 -0.1436905288
C   C37       1.0  0.71490  0.53360  0.85441  1.0000 0.0788250415
C   C38       1.0  0.62650  0.45280  0.86110  1.0000 -0.1436905288
C   C39       1.0  0.57040  0.45420  0.88754  1.0000 -0.0788958062
C   C40       1.0  0.61000  0.53040  0.90890  1.0000 -0.0694710899
C   C41       1.0  0.70060  0.61580  0.90200  1.0000 -0.0788958062
C   C42       1.0  0.74970  0.62050  0.87450  1.0000 -0.1497598573
C   C43       1.0  0.88680  0.76350  0.77166  1.0000 0.5985469817
C   C44       1.0  0.88460  0.30270  0.77208  1.0000 0.5985469817
C   C45       1.0  0.55390  0.52860  0.93713  1.0000 0.5985469817
C   C46       1.0  0.13990  0.35870  0.28591  1.0000 -0.0070940102
C   C47       1.0  0.10820  0.46720  0.27306  1.0000 -0.110974407
C   C48       1.0  0.14090  0.57610  0.28575  1.0000 -0.0230774573
C   C49       1.0  0.19970  0.57520  0.31206  1.0000 -0.1497598573
C   C50       1.0  0.22590  0.46500  0.32585  1.0000 0.0642330589
C   C51       1.0  0.20020  0.35740  0.31164  1.0000 -0.1436905288
C   C52       1.0  0.28510  0.46640  0.35441  1.0000 0.0788250415
C   C53       1.0  0.37350  0.54720  0.36110  1.0000 -0.1497598573
C   C54       1.0  0.42960  0.54580  0.38754  1.0000 -0.0788958062
C   C55       1.0  0.39000  0.46960  0.40890  1.0000 -0.0694710899
C   C56       1.0  0.29940  0.38420  0.40200  1.0000 -0.0694710899
C   C57       1.0  0.25030  0.37950  0.37450  1.0000 -0.1497598573
C   C58       1.0  0.11320  0.23650  0.27166  1.0000 0.5985469817
C   C59       1.0  0.11540  0.69730  0.27208  1.0000 0.5985469817
C   C60       1.0  0.44610  0.47140  0.43713  1.0000 0.5985469817
C   C61       1.0  0.35870  0.13990  0.71409  1.0000 -0.0070940102
C   C62       1.0  0.46720  0.10820  0.72694  1.0000 -0.110974407
C   C63       1.0  0.57610  0.14090  0.71425  1.0000 -0.0230774573
C   C64       1.0  0.57520  0.19970  0.68794  1.0000 -0.1497598573
C   C65       1.0  0.46500  0.22590  0.67415  1.0000 0.0642330589
C   C66       1.0  0.35740  0.20020  0.68836  1.0000 -0.1436905288
C   C67       1.0  0.46640  0.28510  0.64559  1.0000 0.0788250415
C   C68       1.0  0.54720  0.37350  0.63890  1.0000 -0.1497598573
C   C69       1.0  0.54580  0.42960  0.61246  1.0000 -0.0788958062
C   C70       1.0  0.46960  0.39000  0.59110  1.0000 -0.0694710899
C   C71       1.0  0.38420  0.29940  0.59800  1.0000 -0.0694710899
C   C72       1.0  0.37950  0.25030  0.62550  1.0000 -0.1497598573
C   C73       1.0  0.23650  0.11320  0.72834  1.0000 0.5948750375
C   C74       1.0  0.69730  0.11540  0.72792  1.0000 0.5985469817
C   C75       1.0  0.47140  0.44610  0.56287  1.0000 0.5985469817
C   C76       1.0  0.64130  0.86010  0.21409  1.0000 -0.0070940102
C   C77       1.0  0.53280  0.89180  0.22694  1.0000 -0.110974407
C   C78       1.0  0.42390  0.85910  0.21425  1.0000 -0.0230774573
C   C79       1.0  0.42480  0.80030  0.18794  1.0000 -0.1497598573
C   C80       1.0  0.53500  0.77410  0.17415  1.0000 0.0642330589
C   C81       1.0  0.64260  0.79980  0.18836  1.0000 -0.1436905288
C   C82       1.0  0.53360  0.71490  0.14559  1.0000 0.0788250415
C   C83       1.0  0.45280  0.62650  0.13890  1.0000 -0.1436905288
C   C84       1.0  0.45420  0.57040  0.11246  1.0000 -0.0788958062
C   C85       1.0  0.53040  0.61000  0.09110  1.0000 -0.0694710899
C   C86       1.0  0.61580  0.70060  0.09800  1.0000 -0.0788958062
C   C87       1.0  0.62050  0.74970  0.12550  1.0000 -0.1497598573
C   C88       1.0  0.76350  0.88680  0.22834  1.0000 0.5985469817
C   C89       1.0  0.30270  0.88460  0.22792  1.0000 0.5985469817
C   C90       1.0  0.52860  0.55390  0.06287  1.0000 0.5985469817
C   C91       1.0  0.63990  0.14130  0.46409  1.0000 -0.0070940102
C   C92       1.0  0.60820  0.03280  0.47694  1.0000 -0.110974407
C   C93       1.0  0.64090  0.92390  0.46425  1.0000 -0.0230774573
C   C94       1.0  0.69970  0.92480  0.43794  1.0000 -0.1497598573
C   C95       1.0  0.72590  0.03500  0.42415  1.0000 0.0642330589
C   C96       1.0  0.70020  0.14260  0.43836  1.0000 -0.1436905288
C   C97       1.0  0.78510  0.03360  0.39559  1.0000 0.0788250415
C   C98       1.0  0.87350  0.95280  0.38890  1.0000 -0.1436905288
C   C99       1.0  0.92960  0.95420  0.36246  1.0000 -0.0788958062
C   C100      1.0  0.89000  0.03040  0.34110  1.0000 -0.0694710899
C   C101      1.0  0.79940  0.11580  0.34800  1.0000 -0.0694710899
C   C102      1.0  0.75030  0.12050  0.37550  1.0000 -0.1497598573
C   C103      1.0  0.61320  0.26350  0.47834  1.0000 0.5985469817
C   C104      1.0  0.61540  0.80270  0.47792  1.0000 0.5985469817
C   C105      1.0  0.94610  0.02860  0.31287  1.0000 0.5985469817
C   C106      1.0  0.36010  0.85870  0.96409  1.0000 -0.0070940102
C   C107      1.0  0.39180  0.96720  0.97694  1.0000 -0.110974407
C   C108      1.0  0.35910  0.07610  0.96425  1.0000 -0.0230774573
C   C109      1.0  0.30030  0.07520  0.93794  1.0000 -0.1497598573
C   C110      1.0  0.27410  0.96500  0.92415  1.0000 0.0642330589
C   C111      1.0  0.29980  0.85740  0.93836  1.0000 -0.1436905288
C   C112      1.0  0.21490  0.96640  0.89559  1.0000 0.0788250415
C   C113      1.0  0.12650  0.04720  0.88890  1.0000 -0.1436905288
C   C114      1.0  0.07040  0.04580  0.86246  1.0000 -0.0788958062
C   C115      1.0  0.11000  0.96960  0.84110  1.0000 -0.0694710899
C   C116      1.0  0.20060  0.88420  0.84800  1.0000 -0.0788958062
C   C117      1.0  0.24970  0.87950  0.87550  1.0000 -0.1497598573
C   C118      1.0  0.38680  0.73650  0.97834  1.0000 0.5985469817
C   C119      1.0  0.38460  0.19730  0.97792  1.0000 0.5985469817
C   C120      1.0  0.05390  0.97140  0.81287  1.0000 0.5985469817
O   O1        1.0  0.26360  0.52690  0.50449  1.0000 -0.5398739205
O   O2        1.0  0.34890  0.67680  0.52943  1.0000 -0.5228801296
O   O3        1.0  0.79880  0.54390  0.50079  1.0000 -0.5398739205
O   O4        1.0  0.71260  0.66680  0.53276  1.0000 -0.5398739205
O   O5        1.0  0.97450  0.04300  0.69079  1.0000 -0.5103888513
O   O6        1.0  0.08720  0.89130  0.70648  1.0000 -0.5516156854
O   O7        1.0  0.73640  0.47310  0.00449  1.0000 -0.5398739205
O   O8        1.0  0.65110  0.32320  0.02943  1.0000 -0.5228801296
O   O9        1.0  0.20120  0.45610  0.00079  1.0000 -0.5398739205
O   O10       1.0  0.28740  0.33320  0.03276  1.0000 -0.5398739205
O   O11       1.0  0.02550  0.95700  0.19079  1.0000 -0.5103888513
O   O12       1.0  0.91280  0.10870  0.20648  1.0000 -0.5516156854
O   O13       1.0  0.97310  0.76360  0.75449  1.0000 -0.5398739205
O   O14       1.0  0.82320  0.84890  0.77943  1.0000 -0.5228801296
O   O15       1.0  0.95610  0.29880  0.75079  1.0000 -0.5398739205
O   O16       1.0  0.83320  0.21260  0.78276  1.0000 -0.5398739205
O   O17       1.0  0.45700  0.47450  0.94079  1.0000 -0.5103888513
O   O18       1.0  0.60870  0.58720  0.95648  1.0000 -0.5516156854
O   O19       1.0  0.02690  0.23640  0.25449  1.0000 -0.5398739205
O   O20       1.0  0.17680  0.15110  0.27943  1.0000 -0.5228801296
O   O21       1.0  0.04390  0.70120  0.25079  1.0000 -0.5398739205
O   O22       1.0  0.16680  0.78740  0.28276  1.0000 -0.5398739205
O   O23       1.0  0.54300  0.52550  0.44079  1.0000 -0.5103888513
O   O24       1.0  0.39130  0.41280  0.45648  1.0000 -0.5516156854
O   O25       1.0  0.23640  0.02690  0.74551  1.0000 -0.5398739205
O   O26       1.0  0.15110  0.17680  0.72057  1.0000 -0.5228801296
O   O27       1.0  0.70120  0.04390  0.74921  1.0000 -0.5398739205
O   O28       1.0  0.78740  0.16680  0.71724  1.0000 -0.5398739205
O   O29       1.0  0.52550  0.54300  0.55921  1.0000 -0.5103888513
O   O30       1.0  0.41280  0.39130  0.54352  1.0000 -0.5516156854
O   O31       1.0  0.76360  0.97310  0.24551  1.0000 -0.5398739205
O   O32       1.0  0.84890  0.82320  0.22057  1.0000 -0.5228801296
O   O33       1.0  0.29880  0.95610  0.24921  1.0000 -0.5398739205
O   O34       1.0  0.21260  0.83320  0.21724  1.0000 -0.5398739205
O   O35       1.0  0.47450  0.45700  0.05921  1.0000 -0.5103888513
O   O36       1.0  0.58720  0.60870  0.04352  1.0000 -0.5516156854
O   O37       1.0  0.52690  0.26360  0.49551  1.0000 -0.5398739205
O   O38       1.0  0.67680  0.34890  0.47057  1.0000 -0.5228801296
O   O39       1.0  0.54390  0.79880  0.49921  1.0000 -0.5398739205
O   O40       1.0  0.66680  0.71260  0.46724  1.0000 -0.5398739205
O   O41       1.0  0.04300  0.97450  0.30921  1.0000 -0.5103888513
O   O42       1.0  0.89130  0.08720  0.29352  1.0000 -0.5516156854
O   O43       1.0  0.47310  0.73640  0.99551  1.0000 -0.5398739205
O   O44       1.0  0.32320  0.65110  0.97057  1.0000 -0.5228801296
O   O45       1.0  0.45610  0.20120  0.99921  1.0000 -0.5398739205
O   O46       1.0  0.33320  0.28740  0.96724  1.0000 -0.5398739205
O   O47       1.0  0.95700  0.02550  0.80921  1.0000 -0.5103888513
O   O48       1.0  0.10870  0.91280  0.79352  1.0000 -0.5516156854
O   O49       1.0  0.53480  0.53480  0.50000  1.0000 -0.9137286545
O   O50       1.0  0.46520  0.46520  0.00000  1.0000 -0.9163910946
O   O51       1.0  0.96520  0.03480  0.75000  1.0000 -0.9163910946
O   O52       1.0  0.03480  0.96520  0.25000  1.0000 -0.9163910946
