# DDEC6 charges by PACMAN v1.1 (https://github.com/mtap-research/PACMAN-charge/)
data_2018[Mn][nan]3[ASR]4
_chemical_formula_sum              "Mn8 H104 C192 N16 O32"
_cell_length_a       7.0992
_cell_length_b       26.338
_cell_length_c       29.8637
_cell_angle_alpha    90
_cell_angle_beta     97.1002
_cell_angle_gamma    90

_symmetry_space_group_name_H-M    "P 1"
_symmetry_Int_Tables_number       1

loop_
  _symmetry_equiv_pos_as_xyz
  'x, y, z'

loop_
  _atom_site_type_symbol
  _atom_site_label
  _atom_site_symmetry_multiplicity
  _atom_site_fract_x
  _atom_site_fract_y
  _atom_site_fract_z
  _atom_site_occupancy
  _atom_site_charge
Mn  Mn1       1.0  0.15256  0.05247  0.24300  1.0000 1.0444008047
Mn  Mn2       1.0  0.29738  0.91097  0.74724  1.0000 0.9604853178
Mn  Mn3       1.0  0.84744  0.55247  0.25700  1.0000 1.0453561479
Mn  Mn4       1.0  0.70262  0.41097  0.75276  1.0000 0.9604853178
Mn  Mn5       1.0  0.84744  0.94753  0.75700  1.0000 1.0453561479
Mn  Mn6       1.0  0.70262  0.08903  0.25276  1.0000 0.9604853178
Mn  Mn7       1.0  0.15256  0.44753  0.74300  1.0000 1.0453561479
Mn  Mn8       1.0  0.29738  0.58903  0.24724  1.0000 0.9604853178
H   H1        1.0  0.24991  0.34056  0.70511  1.0000 0.1297384758
H   H2        1.0  0.77577  0.29837  0.62457  1.0000 0.1204456626
H   H3        1.0  0.72643  0.26374  0.46901  1.0000 0.2706083143
H   H4        1.0  0.63486  0.22485  0.53437  1.0000 0.2706083143
H   H5        1.0  0.57642  0.18836  0.37474  1.0000 0.1204456626
H   H6        1.0  0.39650  0.22353  0.42741  1.0000 0.1204456626
H   H7        1.0  0.91661  0.17565  0.35268  1.0000 0.1297384758
H   H8        1.0  0.09456  0.13919  0.30111  1.0000 0.1204456626
H   H9        1.0  0.26649  0.14192  0.46879  1.0000 0.1297384758
H   H10       1.0  0.19029  0.10607  0.54066  1.0000 0.1204456626
H   H11       1.0  0.20675  0.13600  0.62371  1.0000 0.1204456626
H   H12       1.0  0.31649  0.06833  0.66988  1.0000 0.1297384758
H   H13       1.0  0.80797  0.99930  0.64266  1.0000 0.1297384758
H   H14       1.0  0.70018  0.06596  0.59486  1.0000 0.1204456626
H   H15       1.0  0.67042  0.14661  0.65083  1.0000 0.1297384758
H   H16       1.0  0.41133  0.20838  0.65050  1.0000 0.1297384758
H   H17       1.0  0.94823  0.27929  0.35242  1.0000 0.1297384758
H   H18       1.0  0.68638  0.34099  0.35231  1.0000 0.1297384758
H   H19       1.0  0.66585  0.42306  0.40878  1.0000 0.1204456626
H   H20       1.0  0.15346  0.35562  0.38175  1.0000 0.1204456626
H   H21       1.0  0.04699  0.42292  0.33538  1.0000 0.1204456626
H   H22       1.0  0.18506  0.38702  0.46580  1.0000 0.1204456626
H   H23       1.0  0.10763  0.35045  0.53756  1.0000 0.1297384758
H   H24       1.0  0.56219  0.48866  0.36045  1.0000 0.1297384758
H   H25       1.0  0.96206  0.26622  0.57189  1.0000 0.1204456626
H   H26       1.0  0.43501  0.30867  0.65312  1.0000 0.1297384758
H   H27       1.0  0.75009  0.84056  0.79489  1.0000 0.1297384758
H   H28       1.0  0.22423  0.79837  0.87543  1.0000 0.1204456626
H   H29       1.0  0.27357  0.76374  0.03099  1.0000 0.2706083143
H   H30       1.0  0.36514  0.72485  0.96563  1.0000 0.2706083143
H   H31       1.0  0.42358  0.68836  0.12526  1.0000 0.1204456626
H   H32       1.0  0.60350  0.72353  0.07259  1.0000 0.1204456626
H   H33       1.0  0.08339  0.67565  0.14732  1.0000 0.1297384758
H   H34       1.0  0.90544  0.63919  0.19889  1.0000 0.1204456626
H   H35       1.0  0.73351  0.64192  0.03121  1.0000 0.1297384758
H   H36       1.0  0.80971  0.60607  0.95934  1.0000 0.1204456626
H   H37       1.0  0.79325  0.63600  0.87629  1.0000 0.1204456626
H   H38       1.0  0.68351  0.56833  0.83012  1.0000 0.1297384758
H   H39       1.0  0.19203  0.49930  0.85734  1.0000 0.1297384758
H   H40       1.0  0.29982  0.56596  0.90514  1.0000 0.1204456626
H   H41       1.0  0.32958  0.64661  0.84917  1.0000 0.1297384758
H   H42       1.0  0.58867  0.70838  0.84950  1.0000 0.1297384758
H   H43       1.0  0.05177  0.77929  0.14758  1.0000 0.1297384758
H   H44       1.0  0.31362  0.84099  0.14769  1.0000 0.1297384758
H   H45       1.0  0.33415  0.92306  0.09122  1.0000 0.1204456626
H   H46       1.0  0.84654  0.85562  0.11825  1.0000 0.1204456626
H   H47       1.0  0.95301  0.92292  0.16462  1.0000 0.1204456626
H   H48       1.0  0.81494  0.88702  0.03420  1.0000 0.1204456626
H   H49       1.0  0.89237  0.85045  0.96244  1.0000 0.1297384758
H   H50       1.0  0.43781  0.98866  0.13955  1.0000 0.1297384758
H   H51       1.0  0.03794  0.76622  0.92811  1.0000 0.1204456626
H   H52       1.0  0.56499  0.80867  0.84688  1.0000 0.1297384758
H   H53       1.0  0.75009  0.65944  0.29489  1.0000 0.1297384758
H   H54       1.0  0.22423  0.70163  0.37543  1.0000 0.1204456626
H   H55       1.0  0.27357  0.73626  0.53099  1.0000 0.2706083143
H   H56       1.0  0.36514  0.77515  0.46563  1.0000 0.2706083143
H   H57       1.0  0.42358  0.81164  0.62526  1.0000 0.1204456626
H   H58       1.0  0.60350  0.77647  0.57259  1.0000 0.1204456626
H   H59       1.0  0.08339  0.82435  0.64732  1.0000 0.1297384758
H   H60       1.0  0.90544  0.86081  0.69889  1.0000 0.1204456626
H   H61       1.0  0.73351  0.85808  0.53121  1.0000 0.1297384758
H   H62       1.0  0.80971  0.89393  0.45934  1.0000 0.1204456626
H   H63       1.0  0.79325  0.86400  0.37629  1.0000 0.1204456626
H   H64       1.0  0.68351  0.93167  0.33012  1.0000 0.1297384758
H   H65       1.0  0.19203  0.00070  0.35734  1.0000 0.1297384758
H   H66       1.0  0.29982  0.93404  0.40514  1.0000 0.1204456626
H   H67       1.0  0.32958  0.85339  0.34917  1.0000 0.1297384758
H   H68       1.0  0.58867  0.79162  0.34950  1.0000 0.1297384758
H   H69       1.0  0.05177  0.72071  0.64758  1.0000 0.1297384758
H   H70       1.0  0.31362  0.65901  0.64769  1.0000 0.1297384758
H   H71       1.0  0.33415  0.57694  0.59122  1.0000 0.1204456626
H   H72       1.0  0.84654  0.64438  0.61825  1.0000 0.1204456626
H   H73       1.0  0.95301  0.57708  0.66462  1.0000 0.1204456626
H   H74       1.0  0.81494  0.61298  0.53420  1.0000 0.1204456626
H   H75       1.0  0.89237  0.64955  0.46244  1.0000 0.1297384758
H   H76       1.0  0.43781  0.51134  0.63955  1.0000 0.1297384758
H   H77       1.0  0.03794  0.73378  0.42811  1.0000 0.1204456626
H   H78       1.0  0.56499  0.69133  0.34688  1.0000 0.1297384758
H   H79       1.0  0.24991  0.15944  0.20511  1.0000 0.1297384758
H   H80       1.0  0.77577  0.20163  0.12457  1.0000 0.1204456626
H   H81       1.0  0.72643  0.23626  0.96901  1.0000 0.2706083143
H   H82       1.0  0.63486  0.27515  0.03437  1.0000 0.2706083143
H   H83       1.0  0.57642  0.31164  0.87474  1.0000 0.1204456626
H   H84       1.0  0.39650  0.27647  0.92741  1.0000 0.1204456626
H   H85       1.0  0.91661  0.32435  0.85268  1.0000 0.1297384758
H   H86       1.0  0.09456  0.36081  0.80111  1.0000 0.1204456626
H   H87       1.0  0.26649  0.35808  0.96879  1.0000 0.1297384758
H   H88       1.0  0.19029  0.39393  0.04066  1.0000 0.1204456626
H   H89       1.0  0.20675  0.36400  0.12371  1.0000 0.1204456626
H   H90       1.0  0.31649  0.43167  0.16988  1.0000 0.1297384758
H   H91       1.0  0.80797  0.50070  0.14266  1.0000 0.1297384758
H   H92       1.0  0.70018  0.43404  0.09486  1.0000 0.1204456626
H   H93       1.0  0.67042  0.35339  0.15083  1.0000 0.1297384758
H   H94       1.0  0.41133  0.29162  0.15050  1.0000 0.1297384758
H   H95       1.0  0.94823  0.22071  0.85242  1.0000 0.1297384758
H   H96       1.0  0.68638  0.15901  0.85231  1.0000 0.1297384758
H   H97       1.0  0.66585  0.07694  0.90878  1.0000 0.1204456626
H   H98       1.0  0.15346  0.14438  0.88175  1.0000 0.1204456626
H   H99       1.0  0.04699  0.07708  0.83538  1.0000 0.1204456626
H   H100      1.0  0.18506  0.11298  0.96580  1.0000 0.1204456626
H   H101      1.0  0.10763  0.14955  0.03756  1.0000 0.1297384758
H   H102      1.0  0.56219  0.01134  0.86045  1.0000 0.1297384758
H   H103      1.0  0.96206  0.23378  0.07189  1.0000 0.1204456626
H   H104      1.0  0.43501  0.19133  0.15312  1.0000 0.1297384758
C   C1        1.0  0.19106  0.32632  0.67766  1.0000 -0.1000175225
C   C2        1.0  0.34408  0.26971  0.57268  1.0000 -0.0774620117
C   C3        1.0  0.91001  0.30133  0.62991  1.0000 -0.1000175225
C   C4        1.0  0.99411  0.32484  0.66891  1.0000 -0.0302197449
C   C5        1.0  0.64938  0.31199  0.41748  1.0000 0.1740937615
C   C6        1.0  0.46695  0.13306  0.30125  1.0000 0.5794175202
C   C7        1.0  0.35233  0.15852  0.33333  1.0000 -0.0302197449
C   C8        1.0  0.44225  0.18479  0.37075  1.0000 -0.1000175225
C   C9        1.0  0.33516  0.20566  0.40206  1.0000 -0.1471519083
C   C10       1.0  0.13767  0.20052  0.39647  1.0000 0.0901310849
C   C11       1.0  0.05127  0.17713  0.35797  1.0000 -0.1313524982
C   C12       1.0  0.15702  0.15584  0.32702  1.0000 -0.0906788724
C   C13       1.0  0.01544  0.21834  0.43074  1.0000 -0.0774620117
C   C14       1.0  0.03257  0.19224  0.47167  1.0000 0.1877634087
C   C15       1.0  0.16636  0.15257  0.48496  1.0000 -0.1815180769
C   C16       1.0  0.12570  0.13309  0.52420  1.0000 -0.1879418915
C   C17       1.0  0.96407  0.16117  0.53667  1.0000 0.1877634087
C   C18       1.0  0.87177  0.15053  0.57437  1.0000 -0.0906788724
C   C19       1.0  0.94373  0.10785  0.60423  1.0000 0.0901310849
C   C20       1.0  0.12530  0.10801  0.62710  1.0000 -0.1471519083
C   C21       1.0  0.19035  0.06794  0.65495  1.0000 -0.0906788724
C   C22       1.0  0.07350  0.02782  0.66100  1.0000 -0.0201493036
C   C23       1.0  0.88956  0.02705  0.63856  1.0000 -0.1000175225
C   C24       1.0  0.82547  0.06673  0.61027  1.0000 -0.1471519083
C   C25       1.0  0.14194  0.98414  0.69104  1.0000 0.5794175202
C   C26       1.0  0.87697  0.35127  0.70007  1.0000 0.5794175202
C   C27       1.0  0.22850  0.50404  0.30990  1.0000 0.5877554351
C   C28       1.0  0.71211  0.17662  0.58571  1.0000 0.1771865683
C   C29       1.0  0.63062  0.17022  0.62752  1.0000 -0.1879418915
C   C30       1.0  0.48927  0.20371  0.62717  1.0000 -0.1879418915
C   C31       1.0  0.47515  0.23149  0.58545  1.0000 0.1740937615
C   C32       1.0  0.33197  0.29733  0.53227  1.0000 0.1975581134
C   C33       1.0  0.40230  0.32950  0.46800  1.0000 0.1771865683
C   C34       1.0  0.49195  0.33896  0.42985  1.0000 -0.0774620117
C   C35       1.0  0.88370  0.25654  0.41770  1.0000 0.1771865683
C   C36       1.0  0.87049  0.28402  0.37579  1.0000 -0.1879418915
C   C37       1.0  0.72775  0.31768  0.37575  1.0000 -0.1879418915
C   C38       1.0  0.54050  0.42241  0.39340  1.0000 -0.1471519083
C   C39       1.0  0.23722  0.38289  0.37762  1.0000 -0.1471519083
C   C40       1.0  0.17423  0.42253  0.34963  1.0000 -0.0906788724
C   C41       1.0  0.29745  0.46223  0.34215  1.0000 -0.0201493036
C   C42       1.0  0.24612  0.35900  0.48152  1.0000 -0.1815180769
C   C43       1.0  0.20434  0.33902  0.52064  1.0000 -0.1815180769
C   C44       1.0  0.47813  0.46151  0.36473  1.0000 -0.0906788724
C   C45       1.0  0.42107  0.38200  0.39997  1.0000 0.0901310849
C   C46       1.0  0.02062  0.28208  0.59862  1.0000 -0.1471519083
C   C47       1.0  0.30064  0.30732  0.64684  1.0000 -0.1313524982
C   C48       1.0  0.21770  0.28607  0.60650  1.0000 0.0901310849
C   C49       1.0  0.80894  0.82632  0.82234  1.0000 -0.1000175225
C   C50       1.0  0.65592  0.76971  0.92732  1.0000 -0.0774620117
C   C51       1.0  0.08999  0.80133  0.87009  1.0000 -0.1000175225
C   C52       1.0  0.00589  0.82484  0.83109  1.0000 -0.0302197449
C   C53       1.0  0.35062  0.81199  0.08252  1.0000 0.1740937615
C   C54       1.0  0.53305  0.63306  0.19875  1.0000 0.5794175202
C   C55       1.0  0.64767  0.65852  0.16667  1.0000 -0.0302197449
C   C56       1.0  0.55775  0.68479  0.12925  1.0000 -0.1000175225
C   C57       1.0  0.66484  0.70566  0.09794  1.0000 -0.1471519083
C   C58       1.0  0.86233  0.70052  0.10353  1.0000 0.0901310849
C   C59       1.0  0.94873  0.67713  0.14203  1.0000 -0.1313524982
C   C60       1.0  0.84298  0.65584  0.17298  1.0000 -0.0906788724
C   C61       1.0  0.98456  0.71834  0.06926  1.0000 -0.0774620117
C   C62       1.0  0.96743  0.69224  0.02833  1.0000 0.1877634087
C   C63       1.0  0.83364  0.65257  0.01504  1.0000 -0.1815180769
C   C64       1.0  0.87430  0.63309  0.97580  1.0000 -0.1879418915
C   C65       1.0  0.03593  0.66117  0.96333  1.0000 0.1877634087
C   C66       1.0  0.12823  0.65053  0.92563  1.0000 -0.0906788724
C   C67       1.0  0.05627  0.60785  0.89577  1.0000 0.0901310849
C   C68       1.0  0.87470  0.60801  0.87290  1.0000 -0.1471519083
C   C69       1.0  0.80965  0.56794  0.84505  1.0000 -0.0906788724
C   C70       1.0  0.92650  0.52782  0.83900  1.0000 -0.0201493036
C   C71       1.0  0.11044  0.52705  0.86144  1.0000 -0.1000175225
C   C72       1.0  0.17453  0.56673  0.88973  1.0000 -0.1471519083
C   C73       1.0  0.85806  0.48414  0.80896  1.0000 0.5794175202
C   C74       1.0  0.12303  0.85127  0.79993  1.0000 0.5794175202
C   C75       1.0  0.77150  0.00404  0.19010  1.0000 0.5877554351
C   C76       1.0  0.28789  0.67662  0.91429  1.0000 0.1771865683
C   C77       1.0  0.36938  0.67022  0.87248  1.0000 -0.1879418915
C   C78       1.0  0.51073  0.70371  0.87283  1.0000 -0.1879418915
C   C79       1.0  0.52485  0.73149  0.91455  1.0000 0.1740937615
C   C80       1.0  0.66803  0.79733  0.96773  1.0000 0.1975581134
C   C81       1.0  0.59770  0.82950  0.03200  1.0000 0.1771865683
C   C82       1.0  0.50805  0.83896  0.07015  1.0000 -0.0774620117
C   C83       1.0  0.11630  0.75654  0.08230  1.0000 0.1771865683
C   C84       1.0  0.12951  0.78402  0.12421  1.0000 -0.1879418915
C   C85       1.0  0.27225  0.81768  0.12425  1.0000 -0.1879418915
C   C86       1.0  0.45950  0.92241  0.10660  1.0000 -0.1471519083
C   C87       1.0  0.76278  0.88289  0.12238  1.0000 -0.1471519083
C   C88       1.0  0.82577  0.92253  0.15037  1.0000 -0.0906788724
C   C89       1.0  0.70255  0.96223  0.15785  1.0000 -0.0201493036
C   C90       1.0  0.75388  0.85900  0.01848  1.0000 -0.1815180769
C   C91       1.0  0.79566  0.83902  0.97936  1.0000 -0.1815180769
C   C92       1.0  0.52187  0.96151  0.13527  1.0000 -0.0906788724
C   C93       1.0  0.57893  0.88200  0.10003  1.0000 0.0901310849
C   C94       1.0  0.97938  0.78208  0.90138  1.0000 -0.1471519083
C   C95       1.0  0.69936  0.80732  0.85316  1.0000 -0.1313524982
C   C96       1.0  0.78230  0.78607  0.89350  1.0000 0.0901310849
C   C97       1.0  0.80894  0.67368  0.32234  1.0000 -0.1000175225
C   C98       1.0  0.65592  0.73029  0.42732  1.0000 -0.0774620117
C   C99       1.0  0.08999  0.69867  0.37009  1.0000 -0.1000175225
C   C100      1.0  0.00589  0.67516  0.33109  1.0000 -0.0302197449
C   C101      1.0  0.35062  0.68801  0.58252  1.0000 0.1740937615
C   C102      1.0  0.53305  0.86694  0.69875  1.0000 0.5794175202
C   C103      1.0  0.64767  0.84148  0.66667  1.0000 -0.0302197449
C   C104      1.0  0.55775  0.81521  0.62925  1.0000 -0.1000175225
C   C105      1.0  0.66484  0.79434  0.59794  1.0000 -0.1471519083
C   C106      1.0  0.86233  0.79948  0.60353  1.0000 0.0901310849
C   C107      1.0  0.94873  0.82287  0.64203  1.0000 -0.1313524982
C   C108      1.0  0.84298  0.84416  0.67298  1.0000 -0.0906788724
C   C109      1.0  0.98456  0.78166  0.56926  1.0000 -0.0774620117
C   C110      1.0  0.96743  0.80776  0.52833  1.0000 0.1877634087
C   C111      1.0  0.83364  0.84743  0.51504  1.0000 -0.1815180769
C   C112      1.0  0.87430  0.86691  0.47580  1.0000 -0.1879418915
C   C113      1.0  0.03593  0.83883  0.46333  1.0000 0.1877634087
C   C114      1.0  0.12823  0.84947  0.42563  1.0000 -0.0906788724
C   C115      1.0  0.05627  0.89215  0.39577  1.0000 0.0901310849
C   C116      1.0  0.87470  0.89199  0.37290  1.0000 -0.1471519083
C   C117      1.0  0.80965  0.93206  0.34505  1.0000 -0.0906788724
C   C118      1.0  0.92650  0.97218  0.33900  1.0000 -0.0201493036
C   C119      1.0  0.11044  0.97295  0.36144  1.0000 -0.1000175225
C   C120      1.0  0.17453  0.93327  0.38973  1.0000 -0.1471519083
C   C121      1.0  0.85806  0.01586  0.30896  1.0000 0.5794175202
C   C122      1.0  0.12303  0.64873  0.29993  1.0000 0.5794175202
C   C123      1.0  0.77150  0.49596  0.69010  1.0000 0.5877554351
C   C124      1.0  0.28789  0.82338  0.41429  1.0000 0.1771865683
C   C125      1.0  0.36938  0.82978  0.37248  1.0000 -0.1879418915
C   C126      1.0  0.51073  0.79629  0.37283  1.0000 -0.1879418915
C   C127      1.0  0.52485  0.76851  0.41455  1.0000 0.1740937615
C   C128      1.0  0.66803  0.70267  0.46773  1.0000 0.1975581134
C   C129      1.0  0.59770  0.67050  0.53200  1.0000 0.1771865683
C   C130      1.0  0.50805  0.66104  0.57015  1.0000 -0.0774620117
C   C131      1.0  0.11630  0.74346  0.58230  1.0000 0.1771865683
C   C132      1.0  0.12951  0.71598  0.62421  1.0000 -0.1879418915
C   C133      1.0  0.27225  0.68232  0.62425  1.0000 -0.1879418915
C   C134      1.0  0.45950  0.57759  0.60660  1.0000 -0.1471519083
C   C135      1.0  0.76278  0.61711  0.62238  1.0000 -0.1471519083
C   C136      1.0  0.82577  0.57747  0.65037  1.0000 -0.0906788724
C   C137      1.0  0.70255  0.53777  0.65785  1.0000 -0.0201493036
C   C138      1.0  0.75388  0.64100  0.51848  1.0000 -0.1815180769
C   C139      1.0  0.79566  0.66098  0.47936  1.0000 -0.1815180769
C   C140      1.0  0.52187  0.53849  0.63527  1.0000 -0.0906788724
C   C141      1.0  0.57893  0.61800  0.60003  1.0000 0.0901310849
C   C142      1.0  0.97938  0.71792  0.40138  1.0000 -0.1471519083
C   C143      1.0  0.69936  0.69268  0.35316  1.0000 -0.1313524982
C   C144      1.0  0.78230  0.71393  0.39350  1.0000 0.0901310849
C   C145      1.0  0.19106  0.17368  0.17766  1.0000 -0.1000175225
C   C146      1.0  0.34408  0.23029  0.07268  1.0000 -0.0774620117
C   C147      1.0  0.91001  0.19867  0.12991  1.0000 -0.1000175225
C   C148      1.0  0.99411  0.17516  0.16891  1.0000 -0.0302197449
C   C149      1.0  0.64938  0.18801  0.91748  1.0000 0.1740937615
C   C150      1.0  0.46695  0.36694  0.80125  1.0000 0.5794175202
C   C151      1.0  0.35233  0.34148  0.83333  1.0000 -0.0302197449
C   C152      1.0  0.44225  0.31521  0.87075  1.0000 -0.1000175225
C   C153      1.0  0.33516  0.29434  0.90206  1.0000 -0.1471519083
C   C154      1.0  0.13767  0.29948  0.89647  1.0000 0.0901310849
C   C155      1.0  0.05127  0.32287  0.85797  1.0000 -0.1313524982
C   C156      1.0  0.15702  0.34416  0.82702  1.0000 -0.0906788724
C   C157      1.0  0.01544  0.28166  0.93074  1.0000 -0.0774620117
C   C158      1.0  0.03257  0.30776  0.97167  1.0000 0.1877634087
C   C159      1.0  0.16636  0.34743  0.98496  1.0000 -0.1815180769
C   C160      1.0  0.12570  0.36691  0.02420  1.0000 -0.1879418915
C   C161      1.0  0.96407  0.33883  0.03667  1.0000 0.1877634087
C   C162      1.0  0.87177  0.34947  0.07437  1.0000 -0.0906788724
C   C163      1.0  0.94373  0.39215  0.10423  1.0000 0.0901310849
C   C164      1.0  0.12530  0.39199  0.12710  1.0000 -0.1471519083
C   C165      1.0  0.19035  0.43206  0.15495  1.0000 -0.0906788724
C   C166      1.0  0.07350  0.47218  0.16100  1.0000 -0.0201493036
C   C167      1.0  0.88956  0.47295  0.13856  1.0000 -0.1000175225
C   C168      1.0  0.82547  0.43327  0.11027  1.0000 -0.1471519083
C   C169      1.0  0.14194  0.51586  0.19104  1.0000 0.5794175202
C   C170      1.0  0.87697  0.14873  0.20007  1.0000 0.5794175202
C   C171      1.0  0.22850  0.99596  0.80990  1.0000 0.5877554351
C   C172      1.0  0.71211  0.32338  0.08571  1.0000 0.1771865683
C   C173      1.0  0.63062  0.32978  0.12752  1.0000 -0.1879418915
C   C174      1.0  0.48927  0.29629  0.12717  1.0000 -0.1879418915
C   C175      1.0  0.47515  0.26851  0.08545  1.0000 0.1740937615
C   C176      1.0  0.33197  0.20267  0.03227  1.0000 0.1975581134
C   C177      1.0  0.40230  0.17050  0.96800  1.0000 0.1771865683
C   C178      1.0  0.49195  0.16104  0.92985  1.0000 -0.0774620117
C   C179      1.0  0.88370  0.24346  0.91770  1.0000 0.1771865683
C   C180      1.0  0.87049  0.21598  0.87579  1.0000 -0.1879418915
C   C181      1.0  0.72775  0.18232  0.87575  1.0000 -0.1879418915
C   C182      1.0  0.54050  0.07759  0.89340  1.0000 -0.1471519083
C   C183      1.0  0.23722  0.11711  0.87762  1.0000 -0.1471519083
C   C184      1.0  0.17423  0.07747  0.84963  1.0000 -0.0906788724
C   C185      1.0  0.29745  0.03777  0.84215  1.0000 -0.0201493036
C   C186      1.0  0.24612  0.14100  0.98152  1.0000 -0.1815180769
C   C187      1.0  0.20434  0.16098  0.02064  1.0000 -0.1815180769
C   C188      1.0  0.47813  0.03849  0.86473  1.0000 -0.0906788724
C   C189      1.0  0.42107  0.11800  0.89997  1.0000 0.0901310849
C   C190      1.0  0.02062  0.21792  0.09862  1.0000 -0.1471519083
C   C191      1.0  0.30064  0.19268  0.14684  1.0000 -0.1313524982
C   C192      1.0  0.21770  0.21393  0.10650  1.0000 0.0901310849
N   N1        1.0  0.91247  0.19711  0.50457  1.0000 -0.4389679237
N   N2        1.0  0.44952  0.29221  0.49952  1.0000 -0.4389679237
N   N3        1.0  0.74746  0.27443  0.44216  1.0000 -0.2814000165
N   N4        1.0  0.61343  0.21396  0.56113  1.0000 -0.2814000165
N   N5        1.0  0.08753  0.69711  0.99543  1.0000 -0.4389679237
N   N6        1.0  0.55048  0.79221  0.00048  1.0000 -0.4389679237
N   N7        1.0  0.25254  0.77443  0.05784  1.0000 -0.2814000165
N   N8        1.0  0.38657  0.71396  0.93887  1.0000 -0.2814000165
N   N9        1.0  0.08753  0.80289  0.49543  1.0000 -0.4389679237
N   N10       1.0  0.55048  0.70779  0.50048  1.0000 -0.4389679237
N   N11       1.0  0.25254  0.72557  0.55784  1.0000 -0.2814000165
N   N12       1.0  0.38657  0.78604  0.43887  1.0000 -0.2814000165
N   N13       1.0  0.91247  0.30289  0.00457  1.0000 -0.4389679237
N   N14       1.0  0.44952  0.20779  0.99952  1.0000 -0.4389679237
N   N15       1.0  0.74746  0.22557  0.94216  1.0000 -0.2814000165
N   N16       1.0  0.61343  0.28604  0.06113  1.0000 -0.2814000165
O   O1        1.0  0.02351  0.95156  0.70131  1.0000 -0.5799509054
O   O2        1.0  0.70310  0.34448  0.69790  1.0000 -0.5122230714
O   O3        1.0  0.31465  0.98032  0.70515  1.0000 -0.5122230714
O   O4        1.0  0.06098  0.50240  0.29158  1.0000 -0.5799509054
O   O5        1.0  0.39036  0.10285  0.27086  1.0000 -0.5900960332
O   O6        1.0  0.64264  0.14101  0.30484  1.0000 -0.5158205098
O   O7        1.0  0.96162  0.38245  0.72862  1.0000 -0.5900960332
O   O8        1.0  0.34679  0.53929  0.30379  1.0000 -0.5508282846
O   O9        1.0  0.97649  0.45156  0.79869  1.0000 -0.5799509054
O   O10       1.0  0.29690  0.84448  0.80210  1.0000 -0.5122230714
O   O11       1.0  0.68535  0.48032  0.79485  1.0000 -0.5122230714
O   O12       1.0  0.93902  0.00240  0.20842  1.0000 -0.5799509054
O   O13       1.0  0.60964  0.60285  0.22914  1.0000 -0.5900960332
O   O14       1.0  0.35736  0.64101  0.19516  1.0000 -0.5158205098
O   O15       1.0  0.03838  0.88245  0.77138  1.0000 -0.5900960332
O   O16       1.0  0.65321  0.03929  0.19621  1.0000 -0.5508282846
O   O17       1.0  0.97649  0.04844  0.29869  1.0000 -0.5799509054
O   O18       1.0  0.29690  0.65552  0.30210  1.0000 -0.5122230714
O   O19       1.0  0.68535  0.01968  0.29485  1.0000 -0.5122230714
O   O20       1.0  0.93902  0.49760  0.70842  1.0000 -0.5799509054
O   O21       1.0  0.60964  0.89715  0.72914  1.0000 -0.5900960332
O   O22       1.0  0.35736  0.85899  0.69516  1.0000 -0.5158205098
O   O23       1.0  0.03838  0.61755  0.27138  1.0000 -0.5900960332
O   O24       1.0  0.65321  0.46071  0.69621  1.0000 -0.5508282846
O   O25       1.0  0.02351  0.54844  0.20131  1.0000 -0.5799509054
O   O26       1.0  0.70310  0.15552  0.19790  1.0000 -0.5122230714
O   O27       1.0  0.31465  0.51968  0.20515  1.0000 -0.5122230714
O   O28       1.0  0.06098  0.99760  0.79158  1.0000 -0.5799509054
O   O29       1.0  0.39036  0.39715  0.77086  1.0000 -0.5900960332
O   O30       1.0  0.64264  0.35899  0.80484  1.0000 -0.5158205098
O   O31       1.0  0.96162  0.11755  0.22862  1.0000 -0.5900960332
O   O32       1.0  0.34679  0.96071  0.80379  1.0000 -0.5508282846
