# DDEC6 charges by PACMAN v1.1 (https://github.com/mtap-research/PACMAN-charge/)
data_2018[Zn][apo]3[ASR]1
_chemical_formula_sum              "Zn8 P8 H104 C168 O56"
_cell_length_a       14.589
_cell_length_b       16.293
_cell_length_c       23.545
_cell_angle_alpha    90
_cell_angle_beta     90
_cell_angle_gamma    90

_symmetry_space_group_name_H-M    "P 1"
_symmetry_Int_Tables_number       1

loop_
  _symmetry_equiv_pos_as_xyz
  'x, y, z'

loop_
  _atom_site_type_symbol
  _atom_site_label
  _atom_site_symmetry_multiplicity
  _atom_site_fract_x
  _atom_site_fract_y
  _atom_site_fract_z
  _atom_site_occupancy
  _atom_site_charge
Zn  Zn1       1.0  0.31592  0.93218  0.64669  1.0000 0.9488481945
Zn  Zn2       1.0  0.81592  0.56782  0.85331  1.0000 0.9488481945
Zn  Zn3       1.0  0.18408  0.06782  0.64669  1.0000 0.9488481945
Zn  Zn4       1.0  0.68408  0.43218  0.85331  1.0000 0.9488481945
Zn  Zn5       1.0  0.68408  0.06782  0.35331  1.0000 0.9488481945
Zn  Zn6       1.0  0.18408  0.43218  0.14669  1.0000 0.9488481945
Zn  Zn7       1.0  0.81592  0.93218  0.35331  1.0000 0.9488481945
Zn  Zn8       1.0  0.31592  0.56782  0.14669  1.0000 0.9488481945
P   P1        1.0  0.42379  0.76366  0.61069  1.0000 0.8534246004
P   P2        1.0  0.92379  0.73634  0.88931  1.0000 0.8534246004
P   P3        1.0  0.07621  0.23634  0.61069  1.0000 0.8534246004
P   P4        1.0  0.57621  0.26366  0.88931  1.0000 0.8534246004
P   P5        1.0  0.57621  0.23634  0.38931  1.0000 0.8534246004
P   P6        1.0  0.07621  0.26366  0.11069  1.0000 0.8534246004
P   P7        1.0  0.92379  0.76366  0.38931  1.0000 0.8534246004
P   P8        1.0  0.42379  0.73634  0.11069  1.0000 0.8534246004
H   H1        1.0  0.05550  0.51540  0.46520  1.0000 0.3468454434
H   H2        1.0  0.38400  0.67590  0.50570  1.0000 0.121511833
H   H3        1.0  0.25880  0.59960  0.47390  1.0000 0.121511833
H   H4        1.0  0.12960  0.63770  0.62270  1.0000 0.121511833
H   H5        1.0  0.25210  0.71650  0.65470  1.0000 0.1281170339
H   H6        1.0  0.38780  0.87320  0.52080  1.0000 0.121511833
H   H7        1.0  0.47630  0.93770  0.45150  1.0000 0.121511833
H   H8        1.0  0.69770  0.80510  0.49970  1.0000 0.1137736853
H   H9        1.0  0.61040  0.73990  0.56930  1.0000 0.1137736853
H   H10       1.0  0.44620  0.58670  0.63070  1.0000 0.1137736853
H   H11       1.0  0.53370  0.51250  0.69680  1.0000 0.1281170339
H   H12       1.0  0.64490  0.72290  0.75400  1.0000 0.1281170339
H   H13       1.0  0.55830  0.79650  0.68970  1.0000 0.1281170339
H   H14       1.0  0.55550  0.98460  0.03480  1.0000 0.3468454434
H   H15       1.0  0.88400  0.82410  0.99430  1.0000 0.121511833
H   H16       1.0  0.75880  0.90040  0.02610  1.0000 0.121511833
H   H17       1.0  0.62960  0.86230  0.87730  1.0000 0.121511833
H   H18       1.0  0.75210  0.78350  0.84530  1.0000 0.1281170339
H   H19       1.0  0.88780  0.62680  0.97920  1.0000 0.121511833
H   H20       1.0  0.97630  0.56230  0.04850  1.0000 0.121511833
H   H21       1.0  0.19770  0.69490  0.00030  1.0000 0.1137736853
H   H22       1.0  0.11040  0.76010  0.93070  1.0000 0.1137736853
H   H23       1.0  0.94620  0.91330  0.86930  1.0000 0.1137736853
H   H24       1.0  0.03370  0.98750  0.80320  1.0000 0.1281170339
H   H25       1.0  0.14490  0.77710  0.74600  1.0000 0.1281170339
H   H26       1.0  0.05830  0.70350  0.81030  1.0000 0.1281170339
H   H27       1.0  0.44450  0.48460  0.46520  1.0000 0.3468454434
H   H28       1.0  0.11600  0.32410  0.50570  1.0000 0.121511833
H   H29       1.0  0.24120  0.40040  0.47390  1.0000 0.121511833
H   H30       1.0  0.37040  0.36230  0.62270  1.0000 0.121511833
H   H31       1.0  0.24790  0.28350  0.65470  1.0000 0.1281170339
H   H32       1.0  0.11220  0.12680  0.52080  1.0000 0.121511833
H   H33       1.0  0.02370  0.06230  0.45150  1.0000 0.121511833
H   H34       1.0  0.80230  0.19490  0.49970  1.0000 0.1137736853
H   H35       1.0  0.88960  0.26010  0.56930  1.0000 0.1137736853
H   H36       1.0  0.05380  0.41330  0.63070  1.0000 0.1137736853
H   H37       1.0  0.96630  0.48750  0.69680  1.0000 0.1281170339
H   H38       1.0  0.85510  0.27710  0.75400  1.0000 0.1281170339
H   H39       1.0  0.94170  0.20350  0.68970  1.0000 0.1281170339
H   H40       1.0  0.94450  0.01540  0.03480  1.0000 0.3468454434
H   H41       1.0  0.61600  0.17590  0.99430  1.0000 0.121511833
H   H42       1.0  0.74120  0.09960  0.02610  1.0000 0.121511833
H   H43       1.0  0.87040  0.13770  0.87730  1.0000 0.121511833
H   H44       1.0  0.74790  0.21650  0.84530  1.0000 0.1281170339
H   H45       1.0  0.61220  0.37320  0.97920  1.0000 0.121511833
H   H46       1.0  0.52370  0.43770  0.04850  1.0000 0.121511833
H   H47       1.0  0.30230  0.30510  0.00030  1.0000 0.1137736853
H   H48       1.0  0.38960  0.23990  0.93070  1.0000 0.1137736853
H   H49       1.0  0.55380  0.08670  0.86930  1.0000 0.1137736853
H   H50       1.0  0.46630  0.01250  0.80320  1.0000 0.1281170339
H   H51       1.0  0.35510  0.22290  0.74600  1.0000 0.121511833
H   H52       1.0  0.44170  0.29650  0.81030  1.0000 0.1281170339
H   H53       1.0  0.94450  0.48460  0.53480  1.0000 0.3468454434
H   H54       1.0  0.61600  0.32410  0.49430  1.0000 0.121511833
H   H55       1.0  0.74120  0.40040  0.52610  1.0000 0.121511833
H   H56       1.0  0.87040  0.36230  0.37730  1.0000 0.121511833
H   H57       1.0  0.74790  0.28350  0.34530  1.0000 0.1281170339
H   H58       1.0  0.61220  0.12680  0.47920  1.0000 0.121511833
H   H59       1.0  0.52370  0.06230  0.54850  1.0000 0.121511833
H   H60       1.0  0.30230  0.19490  0.50030  1.0000 0.1137736853
H   H61       1.0  0.38960  0.26010  0.43070  1.0000 0.1137736853
H   H62       1.0  0.55380  0.41330  0.36930  1.0000 0.1137736853
H   H63       1.0  0.46630  0.48750  0.30320  1.0000 0.1281170339
H   H64       1.0  0.35510  0.27710  0.24600  1.0000 0.1281170339
H   H65       1.0  0.44170  0.20350  0.31030  1.0000 0.1281170339
H   H66       1.0  0.44450  0.01540  0.96520  1.0000 0.3468454434
H   H67       1.0  0.11600  0.17590  0.00570  1.0000 0.121511833
H   H68       1.0  0.24120  0.09960  0.97390  1.0000 0.121511833
H   H69       1.0  0.37040  0.13770  0.12270  1.0000 0.121511833
H   H70       1.0  0.24790  0.21650  0.15470  1.0000 0.1281170339
H   H71       1.0  0.11220  0.37320  0.02080  1.0000 0.121511833
H   H72       1.0  0.02370  0.43770  0.95150  1.0000 0.121511833
H   H73       1.0  0.80230  0.30510  0.99970  1.0000 0.1137736853
H   H74       1.0  0.88960  0.23990  0.06930  1.0000 0.1137736853
H   H75       1.0  0.05380  0.08670  0.13070  1.0000 0.1137736853
H   H76       1.0  0.96630  0.01250  0.19680  1.0000 0.1281170339
H   H77       1.0  0.85510  0.22290  0.25400  1.0000 0.1281170339
H   H78       1.0  0.94170  0.29650  0.18970  1.0000 0.1281170339
H   H79       1.0  0.55550  0.51540  0.53480  1.0000 0.3468454434
H   H80       1.0  0.88400  0.67590  0.49430  1.0000 0.121511833
H   H81       1.0  0.75880  0.59960  0.52610  1.0000 0.121511833
H   H82       1.0  0.62960  0.63770  0.37730  1.0000 0.121511833
H   H83       1.0  0.75210  0.71650  0.34530  1.0000 0.1281170339
H   H84       1.0  0.88780  0.87320  0.47920  1.0000 0.121511833
H   H85       1.0  0.97630  0.93770  0.54850  1.0000 0.121511833
H   H86       1.0  0.19770  0.80510  0.50030  1.0000 0.1137736853
H   H87       1.0  0.11040  0.73990  0.43070  1.0000 0.1137736853
H   H88       1.0  0.94620  0.58670  0.36930  1.0000 0.1137736853
H   H89       1.0  0.03370  0.51250  0.30320  1.0000 0.1281170339
H   H90       1.0  0.14490  0.72290  0.24600  1.0000 0.1281170339
H   H91       1.0  0.05830  0.79650  0.31030  1.0000 0.1281170339
H   H92       1.0  0.05550  0.98460  0.96520  1.0000 0.3468454434
H   H93       1.0  0.38400  0.82410  0.00570  1.0000 0.121511833
H   H94       1.0  0.25880  0.90040  0.97390  1.0000 0.121511833
H   H95       1.0  0.12960  0.86230  0.12270  1.0000 0.121511833
H   H96       1.0  0.25210  0.78350  0.15470  1.0000 0.1281170339
H   H97       1.0  0.38780  0.62680  0.02080  1.0000 0.121511833
H   H98       1.0  0.47630  0.56230  0.95150  1.0000 0.121511833
H   H99       1.0  0.69770  0.69490  0.99970  1.0000 0.1137736853
H   H100      1.0  0.61040  0.76010  0.06930  1.0000 0.1137736853
H   H101      1.0  0.44620  0.91330  0.13070  1.0000 0.1137736853
H   H102      1.0  0.53370  0.98750  0.19680  1.0000 0.1281170339
H   H103      1.0  0.64490  0.77710  0.25400  1.0000 0.1281170339
H   H104      1.0  0.55830  0.70350  0.18970  1.0000 0.1281170339
C   C1        1.0  0.33031  0.70362  0.58306  1.0000 -0.1419559055
C   C2        1.0  0.33210  0.66860  0.52952  1.0000 -0.0914060435
C   C3        1.0  0.25800  0.62300  0.51089  1.0000 -0.0984967928
C   C4        1.0  0.18270  0.61130  0.54582  1.0000 -0.0282057581
C   C5        1.0  0.10230  0.56320  0.52497  1.0000 0.5526872492
C   C6        1.0  0.18130  0.64580  0.59878  1.0000 -0.0914060435
C   C7        1.0  0.25400  0.69230  0.61795  1.0000 -0.0697997445
C   C8        1.0  0.49109  0.80161  0.55267  1.0000 -0.1575047233
C   C9        1.0  0.45100  0.85997  0.51694  1.0000 -0.0779850789
C   C10       1.0  0.50360  0.89838  0.47601  1.0000 -0.0984967928
C   C11       1.0  0.59650  0.88006  0.47032  1.0000 -0.0086864438
C   C12       1.0  0.65440  0.92558  0.42793  1.0000 0.5816079593
C   C13       1.0  0.63510  0.81960  0.50465  1.0000 -0.0984967928
C   C14       1.0  0.58340  0.78069  0.54580  1.0000 -0.0914060435
C   C15       1.0  0.49350  0.69920  0.65446  1.0000 -0.1518366197
C   C16       1.0  0.48610  0.61459  0.65605  1.0000 -0.0914060435
C   C17       1.0  0.53830  0.57064  0.69546  1.0000 -0.0914060435
C   C18       1.0  0.59590  0.61067  0.73228  1.0000 -0.0086864438
C   C19       1.0  0.65010  0.56421  0.77638  1.0000 0.5885398901
C   C20       1.0  0.60390  0.69500  0.72937  1.0000 -0.0984967928
C   C21       1.0  0.55280  0.73840  0.69108  1.0000 -0.0779850789
C   C22       1.0  0.83031  0.79638  0.91694  1.0000 -0.1419559055
C   C23       1.0  0.83210  0.83140  0.97048  1.0000 -0.0914060435
C   C24       1.0  0.75800  0.87700  0.98911  1.0000 -0.0984967928
C   C25       1.0  0.68270  0.88870  0.95418  1.0000 -0.0282057581
C   C26       1.0  0.60230  0.93680  0.97503  1.0000 0.5526872492
C   C27       1.0  0.68130  0.85420  0.90122  1.0000 -0.0914060435
C   C28       1.0  0.75400  0.80770  0.88205  1.0000 -0.0697997445
C   C29       1.0  0.99109  0.69839  0.94733  1.0000 -0.1575047233
C   C30       1.0  0.95100  0.64003  0.98306  1.0000 -0.0779850789
C   C31       1.0  0.00360  0.60162  0.02399  1.0000 -0.0984967928
C   C32       1.0  0.09650  0.61994  0.02968  1.0000 -0.0086864438
C   C33       1.0  0.15440  0.57442  0.07207  1.0000 0.5816079593
C   C34       1.0  0.13510  0.68040  0.99535  1.0000 -0.0984967928
C   C35       1.0  0.08340  0.71931  0.95420  1.0000 -0.0914060435
C   C36       1.0  0.99350  0.80080  0.84554  1.0000 -0.1518366197
C   C37       1.0  0.98610  0.88541  0.84395  1.0000 -0.0914060435
C   C38       1.0  0.03830  0.92936  0.80454  1.0000 -0.0914060435
C   C39       1.0  0.09590  0.88933  0.76772  1.0000 -0.0086864438
C   C40       1.0  0.15010  0.93579  0.72362  1.0000 0.5885398901
C   C41       1.0  0.10390  0.80500  0.77063  1.0000 -0.0984967928
C   C42       1.0  0.05280  0.76160  0.80892  1.0000 -0.0779850789
C   C43       1.0  0.16969  0.29638  0.58306  1.0000 -0.1419559055
C   C44       1.0  0.16790  0.33140  0.52952  1.0000 -0.0914060435
C   C45       1.0  0.24200  0.37700  0.51089  1.0000 -0.0984967928
C   C46       1.0  0.31730  0.38870  0.54582  1.0000 -0.0282057581
C   C47       1.0  0.39770  0.43680  0.52497  1.0000 0.5526872492
C   C48       1.0  0.31870  0.35420  0.59878  1.0000 -0.0914060435
C   C49       1.0  0.24600  0.30770  0.61795  1.0000 -0.0697997445
C   C50       1.0  0.00891  0.19839  0.55267  1.0000 -0.1575047233
C   C51       1.0  0.04900  0.14003  0.51694  1.0000 -0.0779850789
C   C52       1.0  0.99640  0.10162  0.47601  1.0000 -0.0984967928
C   C53       1.0  0.90350  0.11994  0.47032  1.0000 -0.0086864438
C   C54       1.0  0.84560  0.07442  0.42793  1.0000 0.5816079593
C   C55       1.0  0.86490  0.18040  0.50465  1.0000 -0.0984967928
C   C56       1.0  0.91660  0.21931  0.54580  1.0000 -0.0914060435
C   C57       1.0  0.00650  0.30080  0.65446  1.0000 -0.1518366197
C   C58       1.0  0.01390  0.38541  0.65605  1.0000 -0.0914060435
C   C59       1.0  0.96170  0.42936  0.69546  1.0000 -0.0914060435
C   C60       1.0  0.90410  0.38933  0.73228  1.0000 -0.0086864438
C   C61       1.0  0.84990  0.43579  0.77638  1.0000 0.5885398901
C   C62       1.0  0.89610  0.30500  0.72937  1.0000 -0.0984967928
C   C63       1.0  0.94720  0.26160  0.69108  1.0000 -0.0779850789
C   C64       1.0  0.66969  0.20362  0.91694  1.0000 -0.1419559055
C   C65       1.0  0.66790  0.16860  0.97048  1.0000 -0.0914060435
C   C66       1.0  0.74200  0.12300  0.98911  1.0000 -0.0984967928
C   C67       1.0  0.81730  0.11130  0.95418  1.0000 -0.0282057581
C   C68       1.0  0.89770  0.06320  0.97503  1.0000 0.5526872492
C   C69       1.0  0.81870  0.14580  0.90122  1.0000 -0.0914060435
C   C70       1.0  0.74600  0.19230  0.88205  1.0000 -0.0697997445
C   C71       1.0  0.50891  0.30161  0.94733  1.0000 -0.1575047233
C   C72       1.0  0.54900  0.35997  0.98306  1.0000 -0.0779850789
C   C73       1.0  0.49640  0.39838  0.02399  1.0000 -0.0984967928
C   C74       1.0  0.40350  0.38006  0.02968  1.0000 -0.0086864438
C   C75       1.0  0.34560  0.42558  0.07207  1.0000 0.5816079593
C   C76       1.0  0.36490  0.31960  0.99535  1.0000 -0.0984967928
C   C77       1.0  0.41660  0.28069  0.95420  1.0000 -0.0914060435
C   C78       1.0  0.50650  0.19920  0.84554  1.0000 -0.1518366197
C   C79       1.0  0.51390  0.11459  0.84395  1.0000 -0.0914060435
C   C80       1.0  0.46170  0.07064  0.80454  1.0000 -0.0914060435
C   C81       1.0  0.40410  0.11067  0.76772  1.0000 -0.0086864438
C   C82       1.0  0.34990  0.06421  0.72362  1.0000 0.5885398901
C   C83       1.0  0.39610  0.19500  0.77063  1.0000 -0.0984967928
C   C84       1.0  0.44720  0.23840  0.80892  1.0000 -0.0779850789
C   C85       1.0  0.66969  0.29638  0.41694  1.0000 -0.1419559055
C   C86       1.0  0.66790  0.33140  0.47048  1.0000 -0.0914060435
C   C87       1.0  0.74200  0.37700  0.48911  1.0000 -0.0984967928
C   C88       1.0  0.81730  0.38870  0.45418  1.0000 -0.0282057581
C   C89       1.0  0.89770  0.43680  0.47503  1.0000 0.5526872492
C   C90       1.0  0.81870  0.35420  0.40122  1.0000 -0.0914060435
C   C91       1.0  0.74600  0.30770  0.38205  1.0000 -0.0697997445
C   C92       1.0  0.50891  0.19839  0.44733  1.0000 -0.1575047233
C   C93       1.0  0.54900  0.14003  0.48306  1.0000 -0.0779850789
C   C94       1.0  0.49640  0.10162  0.52399  1.0000 -0.0984967928
C   C95       1.0  0.40350  0.11994  0.52968  1.0000 -0.0086864438
C   C96       1.0  0.34560  0.07442  0.57207  1.0000 0.5816079593
C   C97       1.0  0.36490  0.18040  0.49535  1.0000 -0.0984967928
C   C98       1.0  0.41660  0.21931  0.45420  1.0000 -0.0914060435
C   C99       1.0  0.50650  0.30080  0.34554  1.0000 -0.1518366197
C   C100      1.0  0.51390  0.38541  0.34395  1.0000 -0.0914060435
C   C101      1.0  0.46170  0.42936  0.30454  1.0000 -0.0914060435
C   C102      1.0  0.40410  0.38933  0.26772  1.0000 -0.0086864438
C   C103      1.0  0.34990  0.43579  0.22362  1.0000 0.5885398901
C   C104      1.0  0.39610  0.30500  0.27063  1.0000 -0.0984967928
C   C105      1.0  0.44720  0.26160  0.30892  1.0000 -0.0779850789
C   C106      1.0  0.16969  0.20362  0.08306  1.0000 -0.1419559055
C   C107      1.0  0.16790  0.16860  0.02952  1.0000 -0.0914060435
C   C108      1.0  0.24200  0.12300  0.01089  1.0000 -0.0984967928
C   C109      1.0  0.31730  0.11130  0.04582  1.0000 -0.0282057581
C   C110      1.0  0.39770  0.06320  0.02497  1.0000 0.5526872492
C   C111      1.0  0.31870  0.14580  0.09878  1.0000 -0.0914060435
C   C112      1.0  0.24600  0.19230  0.11795  1.0000 -0.0697997445
C   C113      1.0  0.00891  0.30161  0.05267  1.0000 -0.1575047233
C   C114      1.0  0.04900  0.35997  0.01694  1.0000 -0.0779850789
C   C115      1.0  0.99640  0.39838  0.97601  1.0000 -0.0984967928
C   C116      1.0  0.90350  0.38006  0.97032  1.0000 -0.0086864438
C   C117      1.0  0.84560  0.42558  0.92793  1.0000 0.5816079593
C   C118      1.0  0.86490  0.31960  0.00465  1.0000 -0.0984967928
C   C119      1.0  0.91660  0.28069  0.04580  1.0000 -0.0914060435
C   C120      1.0  0.00650  0.19920  0.15446  1.0000 -0.1518366197
C   C121      1.0  0.01390  0.11459  0.15605  1.0000 -0.0914060435
C   C122      1.0  0.96170  0.07064  0.19546  1.0000 -0.0914060435
C   C123      1.0  0.90410  0.11067  0.23228  1.0000 -0.0086864438
C   C124      1.0  0.84990  0.06421  0.27638  1.0000 0.5885398901
C   C125      1.0  0.89610  0.19500  0.22937  1.0000 -0.0984967928
C   C126      1.0  0.94720  0.23840  0.19108  1.0000 -0.0779850789
C   C127      1.0  0.83031  0.70362  0.41694  1.0000 -0.1419559055
C   C128      1.0  0.83210  0.66860  0.47048  1.0000 -0.0914060435
C   C129      1.0  0.75800  0.62300  0.48911  1.0000 -0.0984967928
C   C130      1.0  0.68270  0.61130  0.45418  1.0000 -0.0282057581
C   C131      1.0  0.60230  0.56320  0.47503  1.0000 0.5526872492
C   C132      1.0  0.68130  0.64580  0.40122  1.0000 -0.0914060435
C   C133      1.0  0.75400  0.69230  0.38205  1.0000 -0.0697997445
C   C134      1.0  0.99109  0.80161  0.44733  1.0000 -0.1575047233
C   C135      1.0  0.95100  0.85997  0.48306  1.0000 -0.0779850789
C   C136      1.0  0.00360  0.89838  0.52399  1.0000 -0.0984967928
C   C137      1.0  0.09650  0.88006  0.52968  1.0000 -0.0086864438
C   C138      1.0  0.15440  0.92558  0.57207  1.0000 0.5816079593
C   C139      1.0  0.13510  0.81960  0.49535  1.0000 -0.0984967928
C   C140      1.0  0.08340  0.78069  0.45420  1.0000 -0.0914060435
C   C141      1.0  0.99350  0.69920  0.34554  1.0000 -0.1518366197
C   C142      1.0  0.98610  0.61459  0.34395  1.0000 -0.0914060435
C   C143      1.0  0.03830  0.57064  0.30454  1.0000 -0.0914060435
C   C144      1.0  0.09590  0.61067  0.26772  1.0000 -0.0086864438
C   C145      1.0  0.15010  0.56421  0.22362  1.0000 0.5885398901
C   C146      1.0  0.10390  0.69500  0.27063  1.0000 -0.0984967928
C   C147      1.0  0.05280  0.73840  0.30892  1.0000 -0.0779850789
C   C148      1.0  0.33031  0.79638  0.08306  1.0000 -0.1419559055
C   C149      1.0  0.33210  0.83140  0.02952  1.0000 -0.0914060435
C   C150      1.0  0.25800  0.87700  0.01089  1.0000 -0.0984967928
C   C151      1.0  0.18270  0.88870  0.04582  1.0000 -0.0282057581
C   C152      1.0  0.10230  0.93680  0.02497  1.0000 0.5526872492
C   C153      1.0  0.18130  0.85420  0.09878  1.0000 -0.0914060435
C   C154      1.0  0.25400  0.80770  0.11795  1.0000 -0.0697997445
C   C155      1.0  0.49109  0.69839  0.05267  1.0000 -0.1575047233
C   C156      1.0  0.45100  0.64003  0.01694  1.0000 -0.0779850789
C   C157      1.0  0.50360  0.60162  0.97601  1.0000 -0.0984967928
C   C158      1.0  0.59650  0.61994  0.97032  1.0000 -0.0086864438
C   C159      1.0  0.65440  0.57442  0.92793  1.0000 0.5816079593
C   C160      1.0  0.63510  0.68040  0.00465  1.0000 -0.0984967928
C   C161      1.0  0.58340  0.71931  0.04580  1.0000 -0.0914060435
C   C162      1.0  0.49350  0.80080  0.15446  1.0000 -0.1518366197
C   C163      1.0  0.48610  0.88541  0.15605  1.0000 -0.0914060435
C   C164      1.0  0.53830  0.92936  0.19546  1.0000 -0.0914060435
C   C165      1.0  0.59590  0.88933  0.23228  1.0000 -0.0086864438
C   C166      1.0  0.65010  0.93579  0.27638  1.0000 0.5885398901
C   C167      1.0  0.60390  0.80500  0.22937  1.0000 -0.0984967928
C   C168      1.0  0.55280  0.76160  0.19108  1.0000 -0.0779850789
O   O1        1.0  0.39107  0.83291  0.64747  1.0000 -0.6130275213
O   O2        1.0  0.10340  0.54184  0.47279  1.0000 -0.4310281807
O   O3        1.0  0.03940  0.54600  0.55857  1.0000 -0.5290880659
O   O4        1.0  0.61682  0.98417  0.40203  1.0000 -0.5417423481
O   O5        1.0  0.73574  0.90218  0.42172  1.0000 -0.5574193382
O   O6        1.0  0.63028  0.48978  0.78379  1.0000 -0.5290880659
O   O7        1.0  0.71051  0.60413  0.80227  1.0000 -0.5574193382
O   O8        1.0  0.89107  0.66709  0.85253  1.0000 -0.6130275213
O   O9        1.0  0.60340  0.95816  0.02721  1.0000 -0.4310281807
O   O10       1.0  0.53940  0.95400  0.94143  1.0000 -0.5290880659
O   O11       1.0  0.11682  0.51583  0.09797  1.0000 -0.5417423481
O   O12       1.0  0.23574  0.59782  0.07828  1.0000 -0.5574193382
O   O13       1.0  0.13028  0.01022  0.71621  1.0000 -0.5290880659
O   O14       1.0  0.21051  0.89587  0.69773  1.0000 -0.5574193382
O   O15       1.0  0.10893  0.16709  0.64747  1.0000 -0.6130275213
O   O16       1.0  0.39660  0.45816  0.47279  1.0000 -0.4310281807
O   O17       1.0  0.46060  0.45400  0.55857  1.0000 -0.5290880659
O   O18       1.0  0.88318  0.01583  0.40203  1.0000 -0.5417423481
O   O19       1.0  0.76426  0.09782  0.42172  1.0000 -0.5574193382
O   O20       1.0  0.86972  0.51022  0.78379  1.0000 -0.5290880659
O   O21       1.0  0.78949  0.39587  0.80227  1.0000 -0.5574193382
O   O22       1.0  0.60893  0.33291  0.85253  1.0000 -0.6130275213
O   O23       1.0  0.89660  0.04184  0.02721  1.0000 -0.4310281807
O   O24       1.0  0.96060  0.04600  0.94143  1.0000 -0.5290880659
O   O25       1.0  0.38318  0.48417  0.09797  1.0000 -0.5417423481
O   O26       1.0  0.26426  0.40218  0.07828  1.0000 -0.5574193382
O   O27       1.0  0.36972  0.98978  0.71621  1.0000 -0.5290880659
O   O28       1.0  0.28949  0.10413  0.69773  1.0000 -0.5574193382
O   O29       1.0  0.60893  0.16709  0.35253  1.0000 -0.6130275213
O   O30       1.0  0.89660  0.45816  0.52721  1.0000 -0.4310281807
O   O31       1.0  0.96060  0.45400  0.44143  1.0000 -0.5290880659
O   O32       1.0  0.38318  0.01583  0.59797  1.0000 -0.5417423481
O   O33       1.0  0.26426  0.09782  0.57828  1.0000 -0.5574193382
O   O34       1.0  0.36972  0.51022  0.21621  1.0000 -0.5290880659
O   O35       1.0  0.28949  0.39587  0.19773  1.0000 -0.5574193382
O   O36       1.0  0.10893  0.33291  0.14747  1.0000 -0.6130275213
O   O37       1.0  0.39660  0.04184  0.97279  1.0000 -0.4310281807
O   O38       1.0  0.46060  0.04600  0.05857  1.0000 -0.5290880659
O   O39       1.0  0.88318  0.48417  0.90203  1.0000 -0.5417423481
O   O40       1.0  0.76426  0.40218  0.92172  1.0000 -0.5574193382
O   O41       1.0  0.86972  0.98978  0.28379  1.0000 -0.5290880659
O   O42       1.0  0.78949  0.10413  0.30227  1.0000 -0.5574193382
O   O43       1.0  0.89107  0.83291  0.35253  1.0000 -0.6130275213
O   O44       1.0  0.60340  0.54184  0.52721  1.0000 -0.4310281807
O   O45       1.0  0.53940  0.54600  0.44143  1.0000 -0.5290880659
O   O46       1.0  0.11682  0.98417  0.59797  1.0000 -0.5417423481
O   O47       1.0  0.23574  0.90218  0.57828  1.0000 -0.5574193382
O   O48       1.0  0.13028  0.48978  0.21621  1.0000 -0.5290880659
O   O49       1.0  0.21051  0.60413  0.19773  1.0000 -0.5574193382
O   O50       1.0  0.39107  0.66709  0.14747  1.0000 -0.6130275213
O   O51       1.0  0.10340  0.95816  0.97279  1.0000 -0.4310281807
O   O52       1.0  0.03940  0.95400  0.05857  1.0000 -0.5290880659
O   O53       1.0  0.61682  0.51583  0.90203  1.0000 -0.5417423481
O   O54       1.0  0.73574  0.59782  0.92172  1.0000 -0.5574193382
O   O55       1.0  0.63028  0.01022  0.28379  1.0000 -0.5290880659
O   O56       1.0  0.71051  0.89587  0.30227  1.0000 -0.5574193382
