# DDEC6 charges by PACMAN v1.1 (https://github.com/mtap-research/PACMAN-charge/)
data_2018[Cu][sql]2[ASR]6
_chemical_formula_sum              "Cu8 H88 C168 N8 O48"
_cell_length_a       14.5945
_cell_length_b       16.1441
_cell_length_c       25.267
_cell_angle_alpha    90
_cell_angle_beta     90
_cell_angle_gamma    90

_symmetry_space_group_name_H-M    "P 1"
_symmetry_Int_Tables_number       1

loop_
  _symmetry_equiv_pos_as_xyz
  'x, y, z'

loop_
  _atom_site_type_symbol
  _atom_site_label
  _atom_site_symmetry_multiplicity
  _atom_site_fract_x
  _atom_site_fract_y
  _atom_site_fract_z
  _atom_site_occupancy
  _atom_site_charge
Cu  Cu1       1.0  0.82232  0.29720  0.15020  1.0000 0.8223655497
Cu  Cu2       1.0  0.67768  0.20280  0.15020  1.0000 0.8223655497
Cu  Cu3       1.0  0.82232  0.70280  0.65020  1.0000 0.8223655497
Cu  Cu4       1.0  0.67768  0.79720  0.65020  1.0000 0.8223655497
Cu  Cu5       1.0  0.17768  0.29720  0.34980  1.0000 0.8223655497
Cu  Cu6       1.0  0.32232  0.20280  0.34980  1.0000 0.8223655497
Cu  Cu7       1.0  0.17768  0.70280  0.84980  1.0000 0.8223655497
Cu  Cu8       1.0  0.32232  0.79720  0.84980  1.0000 0.8223655497
H   H1        1.0  0.34580  0.12040  0.00400  1.0000 0.3395287891
H   H2        1.0  0.98600  0.16440  0.03680  1.0000 0.1380297862
H   H3        1.0  0.78770  0.01780  0.92600  1.0000 0.1297863948
H   H4        1.0  0.73620  0.07400  0.00470  1.0000 0.1297863948
H   H5        1.0  0.16510  0.14880  0.99000  1.0000 0.123202517
H   H6        1.0  0.26510  0.04020  0.85940  1.0000 0.1297863948
H   H7        1.0  0.12590  0.99370  0.83600  1.0000 0.1297863948
H   H8        1.0  0.00650  0.87380  0.86170  1.0000 0.1380297862
H   H9        1.0  0.94640  0.80120  0.79090  1.0000 0.1297863948
H   H10       1.0  0.77690  0.98860  0.75800  1.0000 0.1297863948
H   H11       1.0  0.83940  0.06420  0.82690  1.0000 0.1380297862
H   H12       1.0  0.15420  0.37960  0.00400  1.0000 0.3395287891
H   H13       1.0  0.51400  0.33560  0.03680  1.0000 0.1380297862
H   H14       1.0  0.71230  0.48220  0.92600  1.0000 0.1297863948
H   H15       1.0  0.76380  0.42600  0.00470  1.0000 0.1297863948
H   H16       1.0  0.33490  0.35120  0.99000  1.0000 0.123202517
H   H17       1.0  0.23490  0.45980  0.85940  1.0000 0.1297863948
H   H18       1.0  0.37410  0.50630  0.83600  1.0000 0.1297863948
H   H19       1.0  0.49350  0.62620  0.86170  1.0000 0.1380297862
H   H20       1.0  0.55360  0.69880  0.79090  1.0000 0.1297863948
H   H21       1.0  0.72310  0.51140  0.75800  1.0000 0.1297863948
H   H22       1.0  0.66060  0.43580  0.82690  1.0000 0.1380297862
H   H23       1.0  0.34580  0.87960  0.50400  1.0000 0.3395287891
H   H24       1.0  0.98600  0.83560  0.53680  1.0000 0.1380297862
H   H25       1.0  0.78770  0.98220  0.42600  1.0000 0.1297863948
H   H26       1.0  0.73620  0.92600  0.50470  1.0000 0.1297863948
H   H27       1.0  0.16510  0.85120  0.49000  1.0000 0.123202517
H   H28       1.0  0.26510  0.95980  0.35940  1.0000 0.1297863948
H   H29       1.0  0.12590  0.00630  0.33600  1.0000 0.1297863948
H   H30       1.0  0.00650  0.12620  0.36170  1.0000 0.1380297862
H   H31       1.0  0.94640  0.19880  0.29090  1.0000 0.1297863948
H   H32       1.0  0.77690  0.01140  0.25800  1.0000 0.1297863948
H   H33       1.0  0.83940  0.93580  0.32690  1.0000 0.1380297862
H   H34       1.0  0.15420  0.62040  0.50400  1.0000 0.3395287891
H   H35       1.0  0.51400  0.66440  0.53680  1.0000 0.1380297862
H   H36       1.0  0.71230  0.51780  0.42600  1.0000 0.1297863948
H   H37       1.0  0.76380  0.57400  0.50470  1.0000 0.1297863948
H   H38       1.0  0.33490  0.64880  0.49000  1.0000 0.123202517
H   H39       1.0  0.23490  0.54020  0.35940  1.0000 0.1297863948
H   H40       1.0  0.37410  0.49370  0.33600  1.0000 0.1297863948
H   H41       1.0  0.49350  0.37380  0.36170  1.0000 0.1380297862
H   H42       1.0  0.55360  0.30120  0.29090  1.0000 0.1297863948
H   H43       1.0  0.72310  0.48860  0.25800  1.0000 0.1297863948
H   H44       1.0  0.66060  0.56420  0.32690  1.0000 0.1380297862
H   H45       1.0  0.65420  0.12040  0.49600  1.0000 0.3395287891
H   H46       1.0  0.01400  0.16440  0.46320  1.0000 0.1380297862
H   H47       1.0  0.21230  0.01780  0.57400  1.0000 0.1297863948
H   H48       1.0  0.26380  0.07400  0.49530  1.0000 0.1297863948
H   H49       1.0  0.83490  0.14880  0.51000  1.0000 0.123202517
H   H50       1.0  0.73490  0.04020  0.64060  1.0000 0.1297863948
H   H51       1.0  0.87410  0.99370  0.66400  1.0000 0.1297863948
H   H52       1.0  0.99350  0.87380  0.63830  1.0000 0.1380297862
H   H53       1.0  0.05360  0.80120  0.70910  1.0000 0.1297863948
H   H54       1.0  0.22310  0.98860  0.74200  1.0000 0.1297863948
H   H55       1.0  0.16060  0.06420  0.67310  1.0000 0.1380297862
H   H56       1.0  0.84580  0.37960  0.49600  1.0000 0.3395287891
H   H57       1.0  0.48600  0.33560  0.46320  1.0000 0.1380297862
H   H58       1.0  0.28770  0.48220  0.57400  1.0000 0.1297863948
H   H59       1.0  0.23620  0.42600  0.49530  1.0000 0.1297863948
H   H60       1.0  0.66510  0.35120  0.51000  1.0000 0.123202517
H   H61       1.0  0.76510  0.45980  0.64060  1.0000 0.1297863948
H   H62       1.0  0.62590  0.50630  0.66400  1.0000 0.1297863948
H   H63       1.0  0.50650  0.62620  0.63830  1.0000 0.1380297862
H   H64       1.0  0.44640  0.69880  0.70910  1.0000 0.1297863948
H   H65       1.0  0.27690  0.51140  0.74200  1.0000 0.1297863948
H   H66       1.0  0.33940  0.43580  0.67310  1.0000 0.1380297862
H   H67       1.0  0.65420  0.87960  0.99600  1.0000 0.3395287891
H   H68       1.0  0.01400  0.83560  0.96320  1.0000 0.1380297862
H   H69       1.0  0.21230  0.98220  0.07400  1.0000 0.1297863948
H   H70       1.0  0.26380  0.92600  0.99530  1.0000 0.1297863948
H   H71       1.0  0.83490  0.85120  0.01000  1.0000 0.123202517
H   H72       1.0  0.73490  0.95980  0.14060  1.0000 0.1297863948
H   H73       1.0  0.87410  0.00630  0.16400  1.0000 0.1297863948
H   H74       1.0  0.99350  0.12620  0.13830  1.0000 0.1380297862
H   H75       1.0  0.05360  0.19880  0.20910  1.0000 0.1297863948
H   H76       1.0  0.22310  0.01140  0.24200  1.0000 0.1297863948
H   H77       1.0  0.16060  0.93580  0.17310  1.0000 0.1380297862
H   H78       1.0  0.84580  0.62040  0.99600  1.0000 0.3395287891
H   H79       1.0  0.48600  0.66440  0.96320  1.0000 0.1380297862
H   H80       1.0  0.28770  0.51780  0.07400  1.0000 0.1297863948
H   H81       1.0  0.23620  0.57400  0.99530  1.0000 0.1297863948
H   H82       1.0  0.66510  0.64880  0.01000  1.0000 0.123202517
H   H83       1.0  0.76510  0.54020  0.14060  1.0000 0.1297863948
H   H84       1.0  0.62590  0.49370  0.16400  1.0000 0.1297863948
H   H85       1.0  0.50650  0.37380  0.13830  1.0000 0.1380297862
H   H86       1.0  0.44640  0.30120  0.20910  1.0000 0.1297863948
H   H87       1.0  0.27690  0.48860  0.24200  1.0000 0.1297863948
H   H88       1.0  0.33940  0.56420  0.17310  1.0000 0.1380297862
C   C1        1.0  0.81860  0.16440  0.07693  1.0000 0.5588344609
C   C2        1.0  0.85650  0.12480  0.02810  1.0000 -0.023275417
C   C3        1.0  0.94710  0.13400  0.01504  1.0000 -0.1411746244
C   C4        1.0  0.98040  0.09740  0.96910  1.0000 -0.0083023085
C   C5        1.0  0.91770  0.05430  0.93640  1.0000 0.123202517
C   C6        1.0  0.82760  0.04590  0.94840  1.0000 -0.1821700294
C   C7        1.0  0.79720  0.08030  0.99500  1.0000 -0.0915915972
C   C8        1.0  0.06990  0.09120  0.94520  1.0000 -0.0083023085
C   C9        1.0  0.15670  0.11830  0.95920  1.0000 -0.1411746244
C   C10       1.0  0.23200  0.09960  0.92670  1.0000 -0.112720315
C   C11       1.0  0.21550  0.05280  0.88100  1.0000 -0.0582108671
C   C12       1.0  0.13320  0.02530  0.86650  1.0000 -0.1748310781
C   C13       1.0  0.05780  0.04510  0.89860  1.0000 0.1380297862
C   C14       1.0  0.32140  0.13010  0.93880  1.0000 0.5231272181
C   C15       1.0  0.92880  0.97640  0.85024  1.0000 0.1670582195
C   C16       1.0  0.96120  0.89710  0.84050  1.0000 -0.1821700294
C   C17       1.0  0.92440  0.85400  0.79851  1.0000 -0.0784630651
C   C18       1.0  0.85570  0.88690  0.76739  1.0000 -0.0376369512
C   C19       1.0  0.82350  0.96590  0.77850  1.0000 -0.0915915972
C   C20       1.0  0.86050  0.01100  0.81970  1.0000 -0.1927815402
C   C21       1.0  0.81700  0.83860  0.72216  1.0000 0.5588344609
C   C22       1.0  0.68140  0.33560  0.07693  1.0000 0.5588344609
C   C23       1.0  0.64350  0.37520  0.02810  1.0000 -0.023275417
C   C24       1.0  0.55290  0.36600  0.01504  1.0000 -0.1411746244
C   C25       1.0  0.51960  0.40260  0.96910  1.0000 -0.0083023085
C   C26       1.0  0.58230  0.44570  0.93640  1.0000 0.123202517
C   C27       1.0  0.67240  0.45410  0.94840  1.0000 -0.1821700294
C   C28       1.0  0.70280  0.41970  0.99500  1.0000 -0.0915915972
C   C29       1.0  0.43010  0.40880  0.94520  1.0000 -0.0083023085
C   C30       1.0  0.34330  0.38170  0.95920  1.0000 -0.1411746244
C   C31       1.0  0.26800  0.40040  0.92670  1.0000 -0.112720315
C   C32       1.0  0.28450  0.44720  0.88100  1.0000 -0.0582108671
C   C33       1.0  0.36680  0.47470  0.86650  1.0000 -0.1748310781
C   C34       1.0  0.44220  0.45490  0.89860  1.0000 0.1380297862
C   C35       1.0  0.17860  0.36990  0.93880  1.0000 0.5231272181
C   C36       1.0  0.57120  0.52360  0.85024  1.0000 0.1670582195
C   C37       1.0  0.53880  0.60290  0.84050  1.0000 -0.1821700294
C   C38       1.0  0.57560  0.64600  0.79851  1.0000 -0.0784630651
C   C39       1.0  0.64430  0.61310  0.76739  1.0000 -0.0376369512
C   C40       1.0  0.67650  0.53410  0.77850  1.0000 -0.0915915972
C   C41       1.0  0.63950  0.48900  0.81970  1.0000 -0.1927815402
C   C42       1.0  0.68300  0.66140  0.72216  1.0000 0.5588344609
C   C43       1.0  0.81860  0.83560  0.57693  1.0000 0.5588344609
C   C44       1.0  0.85650  0.87520  0.52810  1.0000 -0.023275417
C   C45       1.0  0.94710  0.86600  0.51504  1.0000 -0.1411746244
C   C46       1.0  0.98040  0.90260  0.46910  1.0000 -0.0083023085
C   C47       1.0  0.91770  0.94570  0.43640  1.0000 0.123202517
C   C48       1.0  0.82760  0.95410  0.44840  1.0000 -0.1821700294
C   C49       1.0  0.79720  0.91970  0.49500  1.0000 -0.0915915972
C   C50       1.0  0.06990  0.90880  0.44520  1.0000 -0.0083023085
C   C51       1.0  0.15670  0.88170  0.45920  1.0000 -0.1411746244
C   C52       1.0  0.23200  0.90040  0.42670  1.0000 -0.112720315
C   C53       1.0  0.21550  0.94720  0.38100  1.0000 -0.0582108671
C   C54       1.0  0.13320  0.97470  0.36650  1.0000 -0.1748310781
C   C55       1.0  0.05780  0.95490  0.39860  1.0000 0.1380297862
C   C56       1.0  0.32140  0.86990  0.43880  1.0000 0.5231272181
C   C57       1.0  0.92880  0.02360  0.35024  1.0000 0.1670582195
C   C58       1.0  0.96120  0.10290  0.34050  1.0000 -0.1821700294
C   C59       1.0  0.92440  0.14600  0.29851  1.0000 -0.0784630651
C   C60       1.0  0.85570  0.11310  0.26739  1.0000 -0.0376369512
C   C61       1.0  0.82350  0.03410  0.27850  1.0000 -0.0915915972
C   C62       1.0  0.86050  0.98900  0.31970  1.0000 -0.1927815402
C   C63       1.0  0.81700  0.16140  0.22216  1.0000 0.5588344609
C   C64       1.0  0.68140  0.66440  0.57693  1.0000 0.5588344609
C   C65       1.0  0.64350  0.62480  0.52810  1.0000 -0.023275417
C   C66       1.0  0.55290  0.63400  0.51504  1.0000 -0.1411746244
C   C67       1.0  0.51960  0.59740  0.46910  1.0000 -0.0083023085
C   C68       1.0  0.58230  0.55430  0.43640  1.0000 0.123202517
C   C69       1.0  0.67240  0.54590  0.44840  1.0000 -0.1821700294
C   C70       1.0  0.70280  0.58030  0.49500  1.0000 -0.0915915972
C   C71       1.0  0.43010  0.59120  0.44520  1.0000 -0.0083023085
C   C72       1.0  0.34330  0.61830  0.45920  1.0000 -0.1411746244
C   C73       1.0  0.26800  0.59960  0.42670  1.0000 -0.112720315
C   C74       1.0  0.28450  0.55280  0.38100  1.0000 -0.0582108671
C   C75       1.0  0.36680  0.52530  0.36650  1.0000 -0.1748310781
C   C76       1.0  0.44220  0.54510  0.39860  1.0000 0.1380297862
C   C77       1.0  0.17860  0.63010  0.43880  1.0000 0.5231272181
C   C78       1.0  0.57120  0.47640  0.35024  1.0000 0.1670582195
C   C79       1.0  0.53880  0.39710  0.34050  1.0000 -0.1821700294
C   C80       1.0  0.57560  0.35400  0.29851  1.0000 -0.0784630651
C   C81       1.0  0.64430  0.38690  0.26739  1.0000 -0.0376369512
C   C82       1.0  0.67650  0.46590  0.27850  1.0000 -0.0915915972
C   C83       1.0  0.63950  0.51100  0.31970  1.0000 -0.1927815402
C   C84       1.0  0.68300  0.33860  0.22216  1.0000 0.5588344609
C   C85       1.0  0.18140  0.16440  0.42307  1.0000 0.5588344609
C   C86       1.0  0.14350  0.12480  0.47190  1.0000 -0.023275417
C   C87       1.0  0.05290  0.13400  0.48496  1.0000 -0.1411746244
C   C88       1.0  0.01960  0.09740  0.53090  1.0000 -0.0083023085
C   C89       1.0  0.08230  0.05430  0.56360  1.0000 0.123202517
C   C90       1.0  0.17240  0.04590  0.55160  1.0000 -0.1821700294
C   C91       1.0  0.20280  0.08030  0.50500  1.0000 -0.0915915972
C   C92       1.0  0.93010  0.09120  0.55480  1.0000 -0.0083023085
C   C93       1.0  0.84330  0.11830  0.54080  1.0000 -0.1411746244
C   C94       1.0  0.76800  0.09960  0.57330  1.0000 -0.112720315
C   C95       1.0  0.78450  0.05280  0.61900  1.0000 -0.0582108671
C   C96       1.0  0.86680  0.02530  0.63350  1.0000 -0.1748310781
C   C97       1.0  0.94220  0.04510  0.60140  1.0000 0.1380297862
C   C98       1.0  0.67860  0.13010  0.56120  1.0000 0.5231272181
C   C99       1.0  0.07120  0.97640  0.64976  1.0000 0.1670582195
C   C100      1.0  0.03880  0.89710  0.65950  1.0000 -0.1821700294
C   C101      1.0  0.07560  0.85400  0.70149  1.0000 -0.0784630651
C   C102      1.0  0.14430  0.88690  0.73261  1.0000 -0.0376369512
C   C103      1.0  0.17650  0.96590  0.72150  1.0000 -0.0915915972
C   C104      1.0  0.13950  0.01100  0.68030  1.0000 -0.1927815402
C   C105      1.0  0.18300  0.83860  0.77784  1.0000 0.5588344609
C   C106      1.0  0.31860  0.33560  0.42307  1.0000 0.5588344609
C   C107      1.0  0.35650  0.37520  0.47190  1.0000 -0.023275417
C   C108      1.0  0.44710  0.36600  0.48496  1.0000 -0.1411746244
C   C109      1.0  0.48040  0.40260  0.53090  1.0000 -0.0083023085
C   C110      1.0  0.41770  0.44570  0.56360  1.0000 0.123202517
C   C111      1.0  0.32760  0.45410  0.55160  1.0000 -0.1821700294
C   C112      1.0  0.29720  0.41970  0.50500  1.0000 -0.0915915972
C   C113      1.0  0.56990  0.40880  0.55480  1.0000 -0.0083023085
C   C114      1.0  0.65670  0.38170  0.54080  1.0000 -0.1411746244
C   C115      1.0  0.73200  0.40040  0.57330  1.0000 -0.112720315
C   C116      1.0  0.71550  0.44720  0.61900  1.0000 -0.0582108671
C   C117      1.0  0.63320  0.47470  0.63350  1.0000 -0.1748310781
C   C118      1.0  0.55780  0.45490  0.60140  1.0000 0.1380297862
C   C119      1.0  0.82140  0.36990  0.56120  1.0000 0.5231272181
C   C120      1.0  0.42880  0.52360  0.64976  1.0000 0.1670582195
C   C121      1.0  0.46120  0.60290  0.65950  1.0000 -0.1821700294
C   C122      1.0  0.42440  0.64600  0.70149  1.0000 -0.0784630651
C   C123      1.0  0.35570  0.61310  0.73261  1.0000 -0.0376369512
C   C124      1.0  0.32350  0.53410  0.72150  1.0000 -0.0915915972
C   C125      1.0  0.36050  0.48900  0.68030  1.0000 -0.1927815402
C   C126      1.0  0.31700  0.66140  0.77784  1.0000 0.5588344609
C   C127      1.0  0.18140  0.83560  0.92307  1.0000 0.5588344609
C   C128      1.0  0.14350  0.87520  0.97190  1.0000 -0.023275417
C   C129      1.0  0.05290  0.86600  0.98496  1.0000 -0.1411746244
C   C130      1.0  0.01960  0.90260  0.03090  1.0000 -0.0083023085
C   C131      1.0  0.08230  0.94570  0.06360  1.0000 0.123202517
C   C132      1.0  0.17240  0.95410  0.05160  1.0000 -0.1821700294
C   C133      1.0  0.20280  0.91970  0.00500  1.0000 -0.0915915972
C   C134      1.0  0.93010  0.90880  0.05480  1.0000 -0.0083023085
C   C135      1.0  0.84330  0.88170  0.04080  1.0000 -0.1411746244
C   C136      1.0  0.76800  0.90040  0.07330  1.0000 -0.112720315
C   C137      1.0  0.78450  0.94720  0.11900  1.0000 -0.0582108671
C   C138      1.0  0.86680  0.97470  0.13350  1.0000 -0.1748310781
C   C139      1.0  0.94220  0.95490  0.10140  1.0000 0.1380297862
C   C140      1.0  0.67860  0.86990  0.06120  1.0000 0.5231272181
C   C141      1.0  0.07120  0.02360  0.14976  1.0000 0.1670582195
C   C142      1.0  0.03880  0.10290  0.15950  1.0000 -0.1821700294
C   C143      1.0  0.07560  0.14600  0.20149  1.0000 -0.0784630651
C   C144      1.0  0.14430  0.11310  0.23261  1.0000 -0.0376369512
C   C145      1.0  0.17650  0.03410  0.22150  1.0000 -0.0915915972
C   C146      1.0  0.13950  0.98900  0.18030  1.0000 -0.1927815402
C   C147      1.0  0.18300  0.16140  0.27784  1.0000 0.5588344609
C   C148      1.0  0.31860  0.66440  0.92307  1.0000 0.5588344609
C   C149      1.0  0.35650  0.62480  0.97190  1.0000 -0.023275417
C   C150      1.0  0.44710  0.63400  0.98496  1.0000 -0.1411746244
C   C151      1.0  0.48040  0.59740  0.03090  1.0000 -0.0083023085
C   C152      1.0  0.41770  0.55430  0.06360  1.0000 0.123202517
C   C153      1.0  0.32760  0.54590  0.05160  1.0000 -0.1821700294
C   C154      1.0  0.29720  0.58030  0.00500  1.0000 -0.0915915972
C   C155      1.0  0.56990  0.59120  0.05480  1.0000 -0.0083023085
C   C156      1.0  0.65670  0.61830  0.04080  1.0000 -0.1411746244
C   C157      1.0  0.73200  0.59960  0.07330  1.0000 -0.112720315
C   C158      1.0  0.71550  0.55280  0.11900  1.0000 -0.0582108671
C   C159      1.0  0.63320  0.52530  0.13350  1.0000 -0.1748310781
C   C160      1.0  0.55780  0.54510  0.10140  1.0000 0.1380297862
C   C161      1.0  0.82140  0.63010  0.06120  1.0000 0.5231272181
C   C162      1.0  0.42880  0.47640  0.14976  1.0000 0.1670582195
C   C163      1.0  0.46120  0.39710  0.15950  1.0000 -0.1821700294
C   C164      1.0  0.42440  0.35400  0.20149  1.0000 -0.0784630651
C   C165      1.0  0.35570  0.38690  0.23261  1.0000 -0.0376369512
C   C166      1.0  0.32350  0.46590  0.22150  1.0000 -0.0915915972
C   C167      1.0  0.36050  0.51100  0.18030  1.0000 -0.1927815402
C   C168      1.0  0.31700  0.33860  0.27784  1.0000 0.5588344609
N   N1        1.0  0.96740  0.02340  0.89324  1.0000 -0.0992936619
N   N2        1.0  0.53260  0.47660  0.89324  1.0000 -0.0992936619
N   N3        1.0  0.96740  0.97660  0.39324  1.0000 -0.0992936619
N   N4        1.0  0.53260  0.52340  0.39324  1.0000 -0.0992936619
N   N5        1.0  0.03260  0.02340  0.60676  1.0000 -0.0992936619
N   N6        1.0  0.46740  0.47660  0.60676  1.0000 -0.0992936619
N   N7        1.0  0.03260  0.97660  0.10676  1.0000 -0.0992936619
N   N8        1.0  0.46740  0.52340  0.10676  1.0000 -0.0992936619
O   O1        1.0  0.87160  0.21410  0.10160  1.0000 -0.5306731785
O   O2        1.0  0.73640  0.15120  0.08827  1.0000 -0.498363069
O   O3        1.0  0.33600  0.15850  0.98330  1.0000 -0.402142855
O   O4        1.0  0.38520  0.11490  0.90930  1.0000 -0.4826732787
O   O5        1.0  0.85740  0.77160  0.71113  1.0000 -0.511085781
O   O6        1.0  0.74800  0.86720  0.69918  1.0000 -0.498363069
O   O7        1.0  0.62840  0.28590  0.10160  1.0000 -0.5306731785
O   O8        1.0  0.76360  0.34880  0.08827  1.0000 -0.498363069
O   O9        1.0  0.16400  0.34150  0.98330  1.0000 -0.402142855
O   O10       1.0  0.11480  0.38510  0.90930  1.0000 -0.4826732787
O   O11       1.0  0.64260  0.72840  0.71113  1.0000 -0.511085781
O   O12       1.0  0.75200  0.63280  0.69918  1.0000 -0.498363069
O   O13       1.0  0.87160  0.78590  0.60160  1.0000 -0.5306731785
O   O14       1.0  0.73640  0.84880  0.58827  1.0000 -0.498363069
O   O15       1.0  0.33600  0.84150  0.48330  1.0000 -0.402142855
O   O16       1.0  0.38520  0.88510  0.40930  1.0000 -0.4826732787
O   O17       1.0  0.85740  0.22840  0.21113  1.0000 -0.511085781
O   O18       1.0  0.74800  0.13280  0.19918  1.0000 -0.498363069
O   O19       1.0  0.62840  0.71410  0.60160  1.0000 -0.5306731785
O   O20       1.0  0.76360  0.65120  0.58827  1.0000 -0.498363069
O   O21       1.0  0.16400  0.65850  0.48330  1.0000 -0.402142855
O   O22       1.0  0.11480  0.61490  0.40930  1.0000 -0.4826732787
O   O23       1.0  0.64260  0.27160  0.21113  1.0000 -0.511085781
O   O24       1.0  0.75200  0.36720  0.19918  1.0000 -0.498363069
O   O25       1.0  0.12840  0.21410  0.39840  1.0000 -0.5306731785
O   O26       1.0  0.26360  0.15120  0.41173  1.0000 -0.498363069
O   O27       1.0  0.66400  0.15850  0.51670  1.0000 -0.402142855
O   O28       1.0  0.61480  0.11490  0.59070  1.0000 -0.4826732787
O   O29       1.0  0.14260  0.77160  0.78887  1.0000 -0.511085781
O   O30       1.0  0.25200  0.86720  0.80082  1.0000 -0.498363069
O   O31       1.0  0.37160  0.28590  0.39840  1.0000 -0.5306731785
O   O32       1.0  0.23640  0.34880  0.41173  1.0000 -0.498363069
O   O33       1.0  0.83600  0.34150  0.51670  1.0000 -0.402142855
O   O34       1.0  0.88520  0.38510  0.59070  1.0000 -0.4826732787
O   O35       1.0  0.35740  0.72840  0.78887  1.0000 -0.511085781
O   O36       1.0  0.24800  0.63280  0.80082  1.0000 -0.498363069
O   O37       1.0  0.12840  0.78590  0.89840  1.0000 -0.5306731785
O   O38       1.0  0.26360  0.84880  0.91173  1.0000 -0.498363069
O   O39       1.0  0.66400  0.84150  0.01670  1.0000 -0.402142855
O   O40       1.0  0.61480  0.88510  0.09070  1.0000 -0.4826732787
O   O41       1.0  0.14260  0.22840  0.28887  1.0000 -0.511085781
O   O42       1.0  0.25200  0.13280  0.30082  1.0000 -0.498363069
O   O43       1.0  0.37160  0.71410  0.89840  1.0000 -0.5306731785
O   O44       1.0  0.23640  0.65120  0.91173  1.0000 -0.498363069
O   O45       1.0  0.83600  0.65850  0.01670  1.0000 -0.402142855
O   O46       1.0  0.88520  0.61490  0.09070  1.0000 -0.4826732787
O   O47       1.0  0.35740  0.27160  0.28887  1.0000 -0.511085781
O   O48       1.0  0.24800  0.36720  0.30082  1.0000 -0.498363069
