# DDEC6 charges by PACMAN v1.1 (https://github.com/mtap-research/PACMAN-charge/)
data_2018[U][hcb]2[ASR]2
_chemical_formula_sum              "U2 H54 C42 N12 O12"
_cell_length_a       9.081
_cell_length_b       15.1481
_cell_length_c       14.85
_cell_angle_alpha    90
_cell_angle_beta     105.51
_cell_angle_gamma    90

_symmetry_space_group_name_H-M    "P 1"
_symmetry_Int_Tables_number       1

loop_
  _symmetry_equiv_pos_as_xyz
  'x, y, z'

loop_
  _atom_site_type_symbol
  _atom_site_label
  _atom_site_symmetry_multiplicity
  _atom_site_fract_x
  _atom_site_fract_y
  _atom_site_fract_z
  _atom_site_occupancy
  _atom_site_charge
U   U1        1.0  0.37438  0.77887  0.20648  1.0000 1.7921686449
U   U2        1.0  0.87438  0.22113  0.20648  1.0000 1.7921686449
H   H1        1.0  0.41390  0.21750  0.72150  1.0000 0.1003874432
H   H2        1.0  0.36640  0.29680  0.77950  1.0000 0.1003874432
H   H3        1.0  0.74400  0.41370  0.92260  1.0000 0.1098046914
H   H4        1.0  0.80290  0.33430  0.87020  1.0000 0.1003874432
H   H5        1.0  0.53920  0.33260  0.93690  1.0000 0.1003874432
H   H6        1.0  0.63280  0.18920  0.84190  1.0000 0.1003874432
H   H7        1.0  0.48870  0.18850  0.88490  1.0000 0.1098046914
H   H8        1.0  0.53410  0.43500  0.80020  1.0000 0.1003874432
H   H9        1.0  0.67900  0.43170  0.75840  1.0000 0.1003874432
H   H10       1.0  0.78200  0.60160  0.37130  1.0000 0.1098046914
H   H11       1.0  0.53860  0.47470  0.33660  1.0000 0.1098046914
H   H12       1.0  0.65380  0.48930  0.27300  1.0000 0.1215756961
H   H13       1.0  0.72370  0.36560  0.36920  1.0000 0.1003874432
H   H14       1.0  0.85660  0.43840  0.39190  1.0000 0.0881445982
H   H15       1.0  0.89710  0.52820  0.53650  1.0000 0.1003874432
H   H16       1.0  0.78380  0.51430  0.60160  1.0000 0.1003874432
H   H17       1.0  0.49650  0.23300  0.32890  1.0000 0.1003874432
H   H18       1.0  0.31510  0.21900  0.30670  1.0000 0.0881445982
H   H19       1.0  0.41810  0.10260  0.23320  1.0000 0.1098046914
H   H20       1.0  0.53710  0.07730  0.33050  1.0000 0.1003874432
H   H21       1.0  0.72150  0.64580  0.50760  1.0000 0.1098046914
H   H22       1.0  0.58010  0.57880  0.48890  1.0000 0.1003874432
H   H23       1.0  0.21370  0.06020  0.29100  1.0000 0.1003874432
H   H24       1.0  0.43580  0.01150  0.46020  1.0000 0.1098046914
H   H25       1.0  0.25520  0.99720  0.44070  1.0000 0.1003874432
H   H26       1.0  0.21380  0.15170  0.43610  1.0000 0.1098046914
H   H27       1.0  0.33650  0.12790  0.53270  1.0000 0.1003874432
H   H28       1.0  0.91390  0.78250  0.72150  1.0000 0.1003874432
H   H29       1.0  0.86640  0.70320  0.77950  1.0000 0.1003874432
H   H30       1.0  0.24400  0.58630  0.92260  1.0000 0.1098046914
H   H31       1.0  0.30290  0.66570  0.87020  1.0000 0.1003874432
H   H32       1.0  0.03920  0.66740  0.93690  1.0000 0.1003874432
H   H33       1.0  0.13280  0.81080  0.84190  1.0000 0.1003874432
H   H34       1.0  0.98870  0.81150  0.88490  1.0000 0.1098046914
H   H35       1.0  0.03410  0.56500  0.80020  1.0000 0.1003874432
H   H36       1.0  0.17900  0.56830  0.75840  1.0000 0.1003874432
H   H37       1.0  0.28200  0.39840  0.37130  1.0000 0.1098046914
H   H38       1.0  0.03860  0.52530  0.33660  1.0000 0.1098046914
H   H39       1.0  0.15380  0.51070  0.27300  1.0000 0.1215756961
H   H40       1.0  0.22370  0.63440  0.36920  1.0000 0.1003874432
H   H41       1.0  0.35660  0.56160  0.39190  1.0000 0.0881445982
H   H42       1.0  0.39710  0.47180  0.53650  1.0000 0.1003874432
H   H43       1.0  0.28380  0.48570  0.60160  1.0000 0.1003874432
H   H44       1.0  0.99650  0.76700  0.32890  1.0000 0.1003874432
H   H45       1.0  0.81510  0.78100  0.30670  1.0000 0.0881445982
H   H46       1.0  0.91810  0.89740  0.23320  1.0000 0.1098046914
H   H47       1.0  0.03710  0.92270  0.33050  1.0000 0.1003874432
H   H48       1.0  0.22150  0.35420  0.50760  1.0000 0.1098046914
H   H49       1.0  0.08010  0.42120  0.48890  1.0000 0.1003874432
H   H50       1.0  0.71370  0.93980  0.29100  1.0000 0.1003874432
H   H51       1.0  0.93580  0.98850  0.46020  1.0000 0.1098046914
H   H52       1.0  0.75520  0.00280  0.44070  1.0000 0.1003874432
H   H53       1.0  0.71380  0.84830  0.43610  1.0000 0.1098046914
H   H54       1.0  0.83650  0.87210  0.53270  1.0000 0.1003874432
C   C1        1.0  0.50010  0.25450  0.49980  1.0000 0.4567462184
C   C2        1.0  0.45400  0.26530  0.76680  1.0000 -0.1003209002
C   C3        1.0  0.65530  0.37110  0.52450  1.0000 0.4517136195
C   C4        1.0  0.55880  0.32120  0.63810  1.0000 0.4401940979
C   C5        1.0  0.71050  0.36310  0.87990  1.0000 -0.2034854054
C   C6        1.0  0.62580  0.29860  0.92410  1.0000 -0.1280829965
C   C7        1.0  0.55220  0.22650  0.85600  1.0000 -0.2034854054
C   C8        1.0  0.56590  0.65090  0.32050  1.0000 0.5238996424
C   C9        1.0  0.61500  0.39600  0.78890  1.0000 -0.1110987139
C   C10       1.0  0.67820  0.58490  0.37690  1.0000 -0.1003209002
C   C11       1.0  0.64480  0.49090  0.33790  1.0000 -0.2092275344
C   C12       1.0  0.75110  0.42550  0.39490  1.0000 -0.1003209002
C   C13       1.0  0.79010  0.51520  0.53610  1.0000 -0.0947555475
C   C14       1.0  0.41570  0.19380  0.33970  1.0000 -0.081571801
C   C15       1.0  0.43270  0.09970  0.30160  1.0000 -0.2156311594
C   C16       1.0  0.68440  0.58730  0.48160  1.0000 -0.2092275344
C   C17       1.0  0.31800  0.03740  0.32270  1.0000 -0.1110987139
C   C18       1.0  0.33460  0.03590  0.42740  1.0000 -0.2092275344
C   C19       1.0  0.33490  0.94810  0.28190  1.0000 0.5518926957
C   C20       1.0  0.71840  0.26560  0.01770  1.0000 0.5625093855
C   C21       1.0  0.31860  0.12940  0.46400  1.0000 -0.081571801
C   C22       1.0  0.00010  0.74550  0.49980  1.0000 0.4567462184
C   C23       1.0  0.95400  0.73470  0.76680  1.0000 -0.1003209002
C   C24       1.0  0.15530  0.62890  0.52450  1.0000 0.4517136195
C   C25       1.0  0.05880  0.67880  0.63810  1.0000 0.4401940979
C   C26       1.0  0.21050  0.63690  0.87990  1.0000 -0.2034854054
C   C27       1.0  0.12580  0.70140  0.92410  1.0000 -0.1280829965
C   C28       1.0  0.05220  0.77350  0.85600  1.0000 -0.2034854054
C   C29       1.0  0.06590  0.34910  0.32050  1.0000 0.5238996424
C   C30       1.0  0.11500  0.60400  0.78890  1.0000 -0.1110987139
C   C31       1.0  0.17820  0.41510  0.37690  1.0000 -0.1003209002
C   C32       1.0  0.14480  0.50910  0.33790  1.0000 -0.2092275344
C   C33       1.0  0.25110  0.57450  0.39490  1.0000 -0.1003209002
C   C34       1.0  0.29010  0.48480  0.53610  1.0000 -0.0947555475
C   C35       1.0  0.91570  0.80620  0.33970  1.0000 -0.081571801
C   C36       1.0  0.93270  0.90030  0.30160  1.0000 -0.2156311594
C   C37       1.0  0.18440  0.41270  0.48160  1.0000 -0.2092275344
C   C38       1.0  0.81800  0.96260  0.32270  1.0000 -0.1110987139
C   C39       1.0  0.83460  0.96410  0.42740  1.0000 -0.2092275344
C   C40       1.0  0.83490  0.05190  0.28190  1.0000 0.5518926957
C   C41       1.0  0.21840  0.73440  0.01770  1.0000 0.5625093855
C   C42       1.0  0.81860  0.87060  0.46400  1.0000 -0.081571801
N   N1        1.0  0.64420  0.38050  0.61150  1.0000 -0.5369391761
N   N2        1.0  0.74490  0.42810  0.49240  1.0000 -0.1003209002
N   N3        1.0  0.58180  0.31070  0.46300  1.0000 -0.5461660943
N   N4        1.0  0.48400  0.25360  0.58530  1.0000 -0.5186171852
N   N5        1.0  0.42870  0.18750  0.43950  1.0000 -0.1364527143
N   N6        1.0  0.54430  0.32680  0.72710  1.0000 -0.1110987139
N   N7        1.0  0.14420  0.61950  0.61150  1.0000 -0.5369391761
N   N8        1.0  0.24490  0.57190  0.49240  1.0000 -0.1003209002
N   N9        1.0  0.08180  0.68930  0.46300  1.0000 -0.5461660943
N   N10       1.0  0.98400  0.74640  0.58530  1.0000 -0.5186171852
N   N11       1.0  0.92870  0.81250  0.43950  1.0000 -0.1364527143
N   N12       1.0  0.04430  0.67320  0.72710  1.0000 -0.1110987139
O   O1        1.0  0.50140  0.63450  0.23770  1.0000 -0.5331942461
O   O2        1.0  0.27600  0.93130  0.19580  1.0000 -0.5725806675
O   O3        1.0  0.41320  0.88840  0.33210  1.0000 -0.5835530482
O   O4        1.0  0.54130  0.72440  0.35470  1.0000 -0.5725806675
O   O5        1.0  0.70810  0.18840  0.04670  1.0000 -0.5874529204
O   O6        1.0  0.81150  0.31830  0.07110  1.0000 -0.6032426379
O   O7        1.0  0.00140  0.36550  0.23770  1.0000 -0.5331942461
O   O8        1.0  0.77600  0.06870  0.19580  1.0000 -0.5725806675
O   O9        1.0  0.91320  0.11160  0.33210  1.0000 -0.5835530482
O   O10       1.0  0.04130  0.27560  0.35470  1.0000 -0.5725806675
O   O11       1.0  0.20810  0.81160  0.04670  1.0000 -0.5874529204
O   O12       1.0  0.31150  0.68170  0.07110  1.0000 -0.6032426379
