# DDEC6 charges by PACMAN v1.1 (https://github.com/mtap-research/PACMAN-charge/)
data_2018[Co][nan]3[ASR]10
_chemical_formula_sum              "Co8 H24 C64 O34"
_cell_length_a       11.977
_cell_length_b       11.977
_cell_length_c       13.793
_cell_angle_alpha    85.5096
_cell_angle_beta     94.4904
_cell_angle_gamma    75.2276

_symmetry_space_group_name_H-M    "P 1"
_symmetry_Int_Tables_number       1

loop_
  _symmetry_equiv_pos_as_xyz
  'x, y, z'

loop_
  _atom_site_type_symbol
  _atom_site_label
  _atom_site_symmetry_multiplicity
  _atom_site_fract_x
  _atom_site_fract_y
  _atom_site_fract_z
  _atom_site_occupancy
  _atom_site_charge
Co  Co1       1.0  0.13326  0.92142  0.33057  1.0000 1.1100191722
Co  Co2       1.0  0.92142  0.13326  0.16943  1.0000 1.1100191722
Co  Co3       1.0  0.86674  0.07858  0.66943  1.0000 1.1100191722
Co  Co4       1.0  0.07858  0.86674  0.83057  1.0000 1.1100191722
Co  Co5       1.0  0.00000  0.00000  0.00000  1.0000 1.0196492026
Co  Co6       1.0  0.00000  0.00000  0.50000  1.0000 1.0196492026
Co  Co7       1.0  0.18333  0.18333  0.25000  1.0000 1.1194698164
Co  Co8       1.0  0.81667  0.81667  0.75000  1.0000 1.1194698164
H   H1        1.0  0.42900  0.81600  0.91140  1.0000 0.130298082
H   H2        1.0  0.62790  0.78350  0.95510  1.0000 0.130298082
H   H3        1.0  0.69380  0.80680  0.11410  1.0000 0.1107718149
H   H4        1.0  0.70402  0.96262  0.20000  1.0000 0.130298082
H   H5        1.0  0.58300  0.85400  0.49790  1.0000 0.130298082
H   H6        1.0  0.48440  0.82740  0.35270  1.0000 0.130298082
H   H7        1.0  0.81600  0.42900  0.58860  1.0000 0.130298082
H   H8        1.0  0.78350  0.62790  0.54490  1.0000 0.130298082
H   H9        1.0  0.80680  0.69380  0.38590  1.0000 0.1107718149
H   H10       1.0  0.96262  0.70402  0.30000  1.0000 0.130298082
H   H11       1.0  0.85400  0.58300  0.00210  1.0000 0.130298082
H   H12       1.0  0.82740  0.48440  0.14730  1.0000 0.130298082
H   H13       1.0  0.57100  0.18400  0.08860  1.0000 0.130298082
H   H14       1.0  0.37210  0.21650  0.04490  1.0000 0.130298082
H   H15       1.0  0.30620  0.19320  0.88590  1.0000 0.1107718149
H   H16       1.0  0.29598  0.03738  0.80000  1.0000 0.130298082
H   H17       1.0  0.41700  0.14600  0.50210  1.0000 0.130298082
H   H18       1.0  0.51560  0.17260  0.64730  1.0000 0.130298082
H   H19       1.0  0.18400  0.57100  0.41140  1.0000 0.130298082
H   H20       1.0  0.21650  0.37210  0.45510  1.0000 0.130298082
H   H21       1.0  0.19320  0.30620  0.61410  1.0000 0.1107718149
H   H22       1.0  0.03738  0.29598  0.70000  1.0000 0.130298082
H   H23       1.0  0.14600  0.41700  0.99790  1.0000 0.130298082
H   H24       1.0  0.17260  0.51560  0.85270  1.0000 0.130298082
C   C1        1.0  0.53422  0.86652  0.16346  1.0000 0.0486014454
C   C2        1.0  0.41389  0.88861  0.13612  1.0000 -0.0487975892
C   C3        1.0  0.37489  0.86525  0.04245  1.0000 -0.0382268889
C   C4        1.0  0.45573  0.82793  0.97540  1.0000 -0.0905517179
C   C5        1.0  0.57418  0.80798  0.00120  1.0000 -0.0905517179
C   C6        1.0  0.61281  0.82435  0.09520  1.0000 -0.1264636418
C   C7        1.0  0.58602  0.88864  0.25978  1.0000 0.09155923
C   C8        1.0  0.68074  0.93774  0.26054  1.0000 -0.1515090516
C   C9        1.0  0.74221  0.95133  0.34770  1.0000 -0.0151019743
C   C10       1.0  0.70721  0.91843  0.43787  1.0000 -0.0487975892
C   C11       1.0  0.60934  0.87398  0.43741  1.0000 -0.0905517179
C   C12       1.0  0.54980  0.85848  0.35052  1.0000 -0.1374998888
C   C13       1.0  0.33032  0.94778  0.20568  1.0000 0.6274088571
C   C14       1.0  0.24832  0.88422  0.00576  1.0000 0.6097790549
C   C15       1.0  0.84457  0.99977  0.33133  1.0000 0.6097790549
C   C16       1.0  0.76628  0.92972  0.53664  1.0000 0.6274088571
C   C17       1.0  0.86652  0.53422  0.33654  1.0000 0.0486014454
C   C18       1.0  0.88861  0.41389  0.36388  1.0000 -0.0487975892
C   C19       1.0  0.86525  0.37489  0.45755  1.0000 -0.0382268889
C   C20       1.0  0.82793  0.45573  0.52460  1.0000 -0.0905517179
C   C21       1.0  0.80798  0.57418  0.49880  1.0000 -0.0905517179
C   C22       1.0  0.82435  0.61281  0.40480  1.0000 -0.1264636418
C   C23       1.0  0.88864  0.58602  0.24022  1.0000 0.09155923
C   C24       1.0  0.93774  0.68074  0.23946  1.0000 -0.1515090516
C   C25       1.0  0.95133  0.74221  0.15230  1.0000 -0.0151019743
C   C26       1.0  0.91843  0.70721  0.06213  1.0000 -0.0487975892
C   C27       1.0  0.87398  0.60934  0.06259  1.0000 -0.0905517179
C   C28       1.0  0.85848  0.54980  0.14948  1.0000 -0.1374998888
C   C29       1.0  0.94778  0.33032  0.29432  1.0000 0.6274088571
C   C30       1.0  0.88422  0.24832  0.49424  1.0000 0.6097790549
C   C31       1.0  0.99977  0.84457  0.16867  1.0000 0.6097790549
C   C32       1.0  0.92972  0.76628  0.96336  1.0000 0.6274088571
C   C33       1.0  0.46578  0.13348  0.83654  1.0000 0.0486014454
C   C34       1.0  0.58611  0.11139  0.86388  1.0000 -0.0487975892
C   C35       1.0  0.62511  0.13475  0.95755  1.0000 -0.0382268889
C   C36       1.0  0.54427  0.17207  0.02460  1.0000 -0.0905517179
C   C37       1.0  0.42582  0.19202  0.99880  1.0000 -0.0905517179
C   C38       1.0  0.38719  0.17565  0.90480  1.0000 -0.1264636418
C   C39       1.0  0.41398  0.11136  0.74022  1.0000 0.09155923
C   C40       1.0  0.31926  0.06226  0.73946  1.0000 -0.1515090516
C   C41       1.0  0.25779  0.04867  0.65230  1.0000 -0.0151019743
C   C42       1.0  0.29279  0.08157  0.56213  1.0000 -0.0487975892
C   C43       1.0  0.39066  0.12602  0.56259  1.0000 -0.0905517179
C   C44       1.0  0.45020  0.14152  0.64948  1.0000 -0.1374998888
C   C45       1.0  0.66968  0.05222  0.79432  1.0000 0.6274088571
C   C46       1.0  0.75168  0.11578  0.99424  1.0000 0.6097790549
C   C47       1.0  0.15543  0.00023  0.66867  1.0000 0.6097790549
C   C48       1.0  0.23372  0.07028  0.46336  1.0000 0.6274088571
C   C49       1.0  0.13348  0.46578  0.66346  1.0000 0.0486014454
C   C50       1.0  0.11139  0.58611  0.63612  1.0000 -0.0487975892
C   C51       1.0  0.13475  0.62511  0.54245  1.0000 -0.0382268889
C   C52       1.0  0.17207  0.54427  0.47540  1.0000 -0.0905517179
C   C53       1.0  0.19202  0.42582  0.50120  1.0000 -0.0905517179
C   C54       1.0  0.17565  0.38719  0.59520  1.0000 -0.1264636418
C   C55       1.0  0.11136  0.41398  0.75978  1.0000 0.09155923
C   C56       1.0  0.06226  0.31926  0.76054  1.0000 -0.1515090516
C   C57       1.0  0.04867  0.25779  0.84770  1.0000 -0.0151019743
C   C58       1.0  0.08157  0.29279  0.93787  1.0000 -0.0487975892
C   C59       1.0  0.12602  0.39066  0.93741  1.0000 -0.0905517179
C   C60       1.0  0.14152  0.45020  0.85052  1.0000 -0.1374998888
C   C61       1.0  0.05222  0.66968  0.70568  1.0000 0.6274088571
C   C62       1.0  0.11578  0.75168  0.50576  1.0000 0.6097790549
C   C63       1.0  0.00023  0.15543  0.83133  1.0000 0.6097790549
C   C64       1.0  0.07028  0.23372  0.03664  1.0000 0.6274088571
O   O1        1.0  0.31200  0.05646  0.19954  1.0000 -0.5466039529
O   O2        1.0  0.29140  0.88500  0.26614  1.0000 -0.5327891758
O   O3        1.0  0.17199  0.94363  0.05276  1.0000 -0.5090251318
O   O4        1.0  0.22779  0.83773  0.92847  1.0000 -0.5583212426
O   O5        1.0  0.82220  0.08886  0.27238  1.0000 -0.4643591246
O   O6        1.0  0.94567  0.94393  0.37163  1.0000 -0.5853433808
O   O7        1.0  0.82845  0.00293  0.54172  1.0000 -0.582798188
O   O8        1.0  0.74700  0.86846  0.60657  1.0000 -0.5212354114
O   O9        1.0  0.05646  0.31200  0.30046  1.0000 -0.5466039529
O   O10       1.0  0.88500  0.29140  0.23386  1.0000 -0.5327891758
O   O11       1.0  0.94363  0.17199  0.44724  1.0000 -0.5090251318
O   O12       1.0  0.83773  0.22779  0.57153  1.0000 -0.5583212426
O   O13       1.0  0.08886  0.82220  0.22762  1.0000 -0.4643591246
O   O14       1.0  0.94393  0.94567  0.12837  1.0000 -0.5853433808
O   O15       1.0  0.00293  0.82845  0.95828  1.0000 -0.582798188
O   O16       1.0  0.86846  0.74700  0.89343  1.0000 -0.5212354114
O   O17       1.0  0.68800  0.94354  0.80046  1.0000 -0.5466039529
O   O18       1.0  0.70860  0.11500  0.73386  1.0000 -0.5327891758
O   O19       1.0  0.82801  0.05637  0.94724  1.0000 -0.5090251318
O   O20       1.0  0.77221  0.16227  0.07153  1.0000 -0.5583212426
O   O21       1.0  0.17780  0.91114  0.72762  1.0000 -0.4643591246
O   O22       1.0  0.05433  0.05607  0.62837  1.0000 -0.5853433808
O   O23       1.0  0.17155  0.99707  0.45828  1.0000 -0.582798188
O   O24       1.0  0.25300  0.13154  0.39343  1.0000 -0.5212354114
O   O25       1.0  0.94354  0.68800  0.69954  1.0000 -0.5466039529
O   O26       1.0  0.11500  0.70860  0.76614  1.0000 -0.5327891758
O   O27       1.0  0.05637  0.82801  0.55276  1.0000 -0.5090251318
O   O28       1.0  0.16227  0.77221  0.42847  1.0000 -0.5583212426
O   O29       1.0  0.91114  0.17780  0.77238  1.0000 -0.4643591246
O   O30       1.0  0.05607  0.05433  0.87163  1.0000 -0.5853433808
O   O31       1.0  0.99707  0.17155  0.04172  1.0000 -0.582798188
O   O32       1.0  0.13154  0.25300  0.10657  1.0000 -0.5212354114
O   O33       1.0  0.07474  0.07474  0.25000  1.0000 -0.8357000401
O   O34       1.0  0.92526  0.92526  0.75000  1.0000 -0.8357000401
