# DDEC6 charges by PACMAN v1.1 (https://github.com/mtap-research/PACMAN-charge/)
data_2018[Zn][sql]2[ASR]11
_chemical_formula_sum              "Zn4 H72 C116 N24 O16 F24"
_cell_length_a       13.514
_cell_length_b       20.85
_cell_length_c       13.554
_cell_angle_alpha    90
_cell_angle_beta     95.067
_cell_angle_gamma    90

_symmetry_space_group_name_H-M    "P 1"
_symmetry_Int_Tables_number       1

loop_
  _symmetry_equiv_pos_as_xyz
  'x, y, z'

loop_
  _atom_site_type_symbol
  _atom_site_label
  _atom_site_symmetry_multiplicity
  _atom_site_fract_x
  _atom_site_fract_y
  _atom_site_fract_z
  _atom_site_occupancy
  _atom_site_charge
Zn  Zn1       1.0  0.61660  0.28548  0.58169  1.0000 0.7300138251
Zn  Zn2       1.0  0.88340  0.78548  0.41831  1.0000 0.7300138251
Zn  Zn3       1.0  0.38340  0.71452  0.41831  1.0000 0.7300138251
Zn  Zn4       1.0  0.11660  0.21452  0.58169  1.0000 0.7300138251
H   H1        1.0  0.84171  0.35581  0.16127  1.0000 0.1194022827
H   H2        1.0  0.69759  0.23428  0.90331  1.0000 0.1194022827
H   H3        1.0  0.44940  0.31373  0.71391  1.0000 0.1194022827
H   H4        1.0  0.99521  0.35561  0.94987  1.0000 0.1194022827
H   H5        1.0  0.88724  0.68349  0.58268  1.0000 0.1106478479
H   H6        1.0  0.88131  0.20529  0.41219  1.0000 0.1194022827
H   H7        1.0  0.38621  0.46076  0.46165  1.0000 0.1312281594
H   H8        1.0  0.79822  0.22614  0.05195  1.0000 0.1194022827
H   H9        1.0  0.04378  0.70206  0.35088  1.0000 0.1106478479
H   H10       1.0  0.88873  0.36239  0.80817  1.0000 0.1194022827
H   H11       1.0  0.12918  0.61132  0.39150  1.0000 0.1312281594
H   H12       1.0  0.30457  0.37376  0.70721  1.0000 0.1460226253
H   H13       1.0  0.73768  0.35797  0.29562  1.0000 0.1194022827
H   H14       1.0  0.51442  0.39222  0.45857  1.0000 0.1194022827
H   H15       1.0  0.98589  0.59623  0.63866  1.0000 0.1350064055
H   H16       1.0  0.97293  0.19317  0.27752  1.0000 0.1194022827
H   H17       1.0  0.27835  0.59026  0.47903  1.0000 0.2684950563
H   H18       1.0  0.26447  0.54118  0.40665  1.0000 0.2684950563
H   H19       1.0  0.65829  0.85581  0.83873  1.0000 0.1194022827
H   H20       1.0  0.80241  0.73428  0.09669  1.0000 0.1194022827
H   H21       1.0  0.05060  0.81373  0.28609  1.0000 0.1194022827
H   H22       1.0  0.50479  0.85561  0.05013  1.0000 0.1194022827
H   H23       1.0  0.61276  0.18349  0.41732  1.0000 0.1106478479
H   H24       1.0  0.61869  0.70529  0.58781  1.0000 0.1194022827
H   H25       1.0  0.11379  0.96076  0.53835  1.0000 0.1312281594
H   H26       1.0  0.70178  0.72614  0.94805  1.0000 0.1194022827
H   H27       1.0  0.45622  0.20206  0.64912  1.0000 0.1106478479
H   H28       1.0  0.61127  0.86239  0.19183  1.0000 0.1194022827
H   H29       1.0  0.37082  0.11132  0.60850  1.0000 0.1312281594
H   H30       1.0  0.19543  0.87376  0.29279  1.0000 0.1460226253
H   H31       1.0  0.76232  0.85797  0.70438  1.0000 0.1194022827
H   H32       1.0  0.98558  0.89222  0.54143  1.0000 0.1194022827
H   H33       1.0  0.51411  0.09623  0.36134  1.0000 0.1312281594
H   H34       1.0  0.52707  0.69317  0.72248  1.0000 0.1194022827
H   H35       1.0  0.22165  0.09026  0.52097  1.0000 0.2684950563
H   H36       1.0  0.23553  0.04118  0.59335  1.0000 0.2646252588
H   H37       1.0  0.15829  0.64419  0.83873  1.0000 0.1194022827
H   H38       1.0  0.30241  0.76572  0.09669  1.0000 0.1194022827
H   H39       1.0  0.55060  0.68627  0.28609  1.0000 0.1194022827
H   H40       1.0  0.00479  0.64439  0.05013  1.0000 0.1194022827
H   H41       1.0  0.11276  0.31651  0.41732  1.0000 0.1106478479
H   H42       1.0  0.11869  0.79471  0.58781  1.0000 0.1194022827
H   H43       1.0  0.61379  0.53924  0.53835  1.0000 0.1312281594
H   H44       1.0  0.20178  0.77386  0.94805  1.0000 0.1194022827
H   H45       1.0  0.95622  0.29794  0.64912  1.0000 0.1106478479
H   H46       1.0  0.11127  0.63761  0.19183  1.0000 0.1194022827
H   H47       1.0  0.87082  0.38868  0.60850  1.0000 0.1312281594
H   H48       1.0  0.69543  0.62624  0.29279  1.0000 0.1460226253
H   H49       1.0  0.26232  0.64203  0.70438  1.0000 0.1194022827
H   H50       1.0  0.48558  0.60778  0.54143  1.0000 0.1194022827
H   H51       1.0  0.01411  0.40377  0.36134  1.0000 0.1312281594
H   H52       1.0  0.02707  0.80683  0.72248  1.0000 0.1194022827
H   H53       1.0  0.72165  0.40974  0.52097  1.0000 0.2684950563
H   H54       1.0  0.73553  0.45882  0.59335  1.0000 0.2684950563
H   H55       1.0  0.34171  0.14419  0.16127  1.0000 0.1194022827
H   H56       1.0  0.19759  0.26572  0.90331  1.0000 0.1194022827
H   H57       1.0  0.94940  0.18627  0.71391  1.0000 0.1194022827
H   H58       1.0  0.49521  0.14439  0.94987  1.0000 0.1194022827
H   H59       1.0  0.38724  0.81651  0.58268  1.0000 0.1106478479
H   H60       1.0  0.38131  0.29471  0.41219  1.0000 0.1194022827
H   H61       1.0  0.88621  0.03924  0.46165  1.0000 0.1312281594
H   H62       1.0  0.29822  0.27386  0.05195  1.0000 0.1194022827
H   H63       1.0  0.54378  0.79794  0.35088  1.0000 0.1106478479
H   H64       1.0  0.38873  0.13761  0.80817  1.0000 0.1194022827
H   H65       1.0  0.62918  0.88868  0.39150  1.0000 0.1312281594
H   H66       1.0  0.80457  0.12624  0.70721  1.0000 0.1460226253
H   H67       1.0  0.23768  0.14203  0.29562  1.0000 0.1194022827
H   H68       1.0  0.01442  0.10778  0.45857  1.0000 0.1194022827
H   H69       1.0  0.48589  0.90377  0.63866  1.0000 0.1350064055
H   H70       1.0  0.47293  0.30683  0.27752  1.0000 0.1194022827
H   H71       1.0  0.77835  0.90974  0.47903  1.0000 0.2684950563
H   H72       1.0  0.76447  0.95882  0.40665  1.0000 0.2684950563
C   C1        1.0  0.12310  0.53600  0.55570  1.0000 0.179395333
C   C2        1.0  0.23680  0.46150  0.58250  1.0000 0.1661556736
C   C3        1.0  0.06730  0.59380  0.52060  1.0000 0.0716549227
C   C4        1.0  0.84680  0.32290  0.20990  1.0000 -0.1527776056
C   C5        1.0  0.75610  0.25950  0.91340  1.0000 -0.0922456458
C   C6        1.0  0.71760  0.31150  0.74480  1.0000 0.549606897
C   C7        1.0  0.32660  0.42460  0.58370  1.0000 0.0778049064
C   C8        1.0  0.43440  0.34270  0.66060  1.0000 0.0778049064
C   C9        1.0  0.93550  0.33130  0.94170  1.0000 -0.1527776056
C   C10       1.0  0.93970  0.66980  0.54540  1.0000 0.0778049064
C   C11       1.0  0.87010  0.23420  0.35820  1.0000 -0.0922456458
C   C12       1.0  0.39580  0.42900  0.51190  1.0000 -0.177659668
C   C13       1.0  0.81760  0.25380  0.00140  1.0000 -0.1527776056
C   C14       1.0  0.02520  0.20550  0.09410  1.0000 0.6537714974
C   C15       1.0  0.02940  0.67960  0.40890  1.0000 0.0952782333
C   C16       1.0  0.87060  0.33460  0.85920  1.0000 -0.1025413647
C   C17       1.0  0.78080  0.30220  0.84050  1.0000 -0.0155192834
C   C18       1.0  0.91350  0.27190  0.20150  1.0000 0.0716549227
C   C19       1.0  0.08180  0.62660  0.43360  1.0000 -0.1701613254
C   C20       1.0  0.79980  0.27970  0.36360  1.0000 0.0007493367
C   C21       1.0  0.73590  0.28140  0.45220  1.0000 0.5173694864
C   C22       1.0  0.34900  0.37950  0.65740  1.0000 -0.1421307996
C   C23       1.0  0.78620  0.32530  0.29170  1.0000 -0.1025413647
C   C24       1.0  0.90460  0.28680  0.01660  1.0000 0.0716549227
C   C25       1.0  0.47380  0.39030  0.51230  1.0000 0.0647534281
C   C26       1.0  0.05790  0.32100  0.13570  1.0000 0.6638622657
C   C27       1.0  0.99650  0.61650  0.57770  1.0000 -0.1527776056
C   C28       1.0  0.92640  0.22720  0.27940  1.0000 -0.15914952
C   C29       1.0  0.97140  0.27170  0.11220  1.0000 -0.2717086747
C   C30       1.0  0.37690  0.03600  0.44430  1.0000 0.179395333
C   C31       1.0  0.26320  0.96150  0.41750  1.0000 0.1661556736
C   C32       1.0  0.43270  0.09380  0.47940  1.0000 0.0716549227
C   C33       1.0  0.65320  0.82290  0.79010  1.0000 -0.1527776056
C   C34       1.0  0.74390  0.75950  0.08660  1.0000 -0.0922456458
C   C35       1.0  0.78240  0.81150  0.25520  1.0000 0.549606897
C   C36       1.0  0.17340  0.92460  0.41630  1.0000 0.0778049064
C   C37       1.0  0.06560  0.84270  0.33940  1.0000 0.0778049064
C   C38       1.0  0.56450  0.83130  0.05830  1.0000 -0.1527776056
C   C39       1.0  0.56030  0.16980  0.45460  1.0000 0.0778049064
C   C40       1.0  0.62990  0.73420  0.64180  1.0000 -0.0922456458
C   C41       1.0  0.10420  0.92900  0.48810  1.0000 -0.177659668
C   C42       1.0  0.68240  0.75380  0.99860  1.0000 -0.1527776056
C   C43       1.0  0.47480  0.70550  0.90590  1.0000 0.6537714974
C   C44       1.0  0.47060  0.17960  0.59110  1.0000 0.0952782333
C   C45       1.0  0.62940  0.83460  0.14080  1.0000 -0.1025413647
C   C46       1.0  0.71920  0.80220  0.15950  1.0000 -0.0155192834
C   C47       1.0  0.58650  0.77190  0.79850  1.0000 0.0716549227
C   C48       1.0  0.41820  0.12660  0.56640  1.0000 -0.1701613254
C   C49       1.0  0.70020  0.77970  0.63640  1.0000 0.0007493367
C   C50       1.0  0.76410  0.78140  0.54780  1.0000 0.5173694864
C   C51       1.0  0.15100  0.87950  0.34260  1.0000 -0.1421307996
C   C52       1.0  0.71380  0.82530  0.70830  1.0000 -0.1025413647
C   C53       1.0  0.59540  0.78680  0.98340  1.0000 0.0716549227
C   C54       1.0  0.02620  0.89030  0.48770  1.0000 0.0647534281
C   C55       1.0  0.44210  0.82100  0.86430  1.0000 0.6638622657
C   C56       1.0  0.50350  0.11650  0.42230  1.0000 -0.1527776056
C   C57       1.0  0.57360  0.72720  0.72060  1.0000 -0.15914952
C   C58       1.0  0.52860  0.77170  0.88780  1.0000 -0.2717086747
C   C59       1.0  0.87690  0.46400  0.44430  1.0000 0.179395333
C   C60       1.0  0.76320  0.53850  0.41750  1.0000 0.1661556736
C   C61       1.0  0.93270  0.40620  0.47940  1.0000 0.0716549227
C   C62       1.0  0.15320  0.67710  0.79010  1.0000 -0.1527776056
C   C63       1.0  0.24390  0.74050  0.08660  1.0000 -0.0922456458
C   C64       1.0  0.28240  0.68850  0.25520  1.0000 0.549606897
C   C65       1.0  0.67340  0.57540  0.41630  1.0000 0.0778049064
C   C66       1.0  0.56560  0.65730  0.33940  1.0000 0.0778049064
C   C67       1.0  0.06450  0.66870  0.05830  1.0000 -0.1527776056
C   C68       1.0  0.06030  0.33020  0.45460  1.0000 0.0778049064
C   C69       1.0  0.12990  0.76580  0.64180  1.0000 -0.0922456458
C   C70       1.0  0.60420  0.57100  0.48810  1.0000 -0.177659668
C   C71       1.0  0.18240  0.74620  0.99860  1.0000 -0.1527776056
C   C72       1.0  0.97480  0.79450  0.90590  1.0000 0.6537714974
C   C73       1.0  0.97060  0.32040  0.59110  1.0000 0.0952782333
C   C74       1.0  0.12940  0.66540  0.14080  1.0000 -0.1025413647
C   C75       1.0  0.21920  0.69780  0.15950  1.0000 -0.0155192834
C   C76       1.0  0.08650  0.72810  0.79850  1.0000 0.0716549227
C   C77       1.0  0.91820  0.37340  0.56640  1.0000 -0.1701613254
C   C78       1.0  0.20020  0.72030  0.63640  1.0000 0.0007493367
C   C79       1.0  0.26410  0.71860  0.54780  1.0000 0.5173694864
C   C80       1.0  0.65100  0.62050  0.34260  1.0000 -0.1421307996
C   C81       1.0  0.21380  0.67470  0.70830  1.0000 -0.1025413647
C   C82       1.0  0.09540  0.71320  0.98340  1.0000 0.0716549227
C   C83       1.0  0.52620  0.60970  0.48770  1.0000 0.0647534281
C   C84       1.0  0.94210  0.67900  0.86430  1.0000 0.6638622657
C   C85       1.0  0.00350  0.38350  0.42230  1.0000 -0.1527776056
C   C86       1.0  0.07360  0.77280  0.72060  1.0000 -0.15914952
C   C87       1.0  0.02860  0.72830  0.88780  1.0000 -0.2717086747
C   C88       1.0  0.62310  0.96400  0.55570  1.0000 0.179395333
C   C89       1.0  0.73680  0.03850  0.58250  1.0000 0.1661556736
C   C90       1.0  0.56730  0.90620  0.52060  1.0000 0.0716549227
C   C91       1.0  0.34680  0.17710  0.20990  1.0000 -0.1527776056
C   C92       1.0  0.25610  0.24050  0.91340  1.0000 -0.0922456458
C   C93       1.0  0.21760  0.18850  0.74480  1.0000 0.549606897
C   C94       1.0  0.82660  0.07540  0.58370  1.0000 0.0778049064
C   C95       1.0  0.93440  0.15730  0.66060  1.0000 0.0778049064
C   C96       1.0  0.43550  0.16870  0.94170  1.0000 -0.1527776056
C   C97       1.0  0.43970  0.83020  0.54540  1.0000 0.0778049064
C   C98       1.0  0.37010  0.26580  0.35820  1.0000 -0.0922456458
C   C99       1.0  0.89580  0.07100  0.51190  1.0000 -0.177659668
C   C100      1.0  0.31760  0.24620  0.00140  1.0000 -0.1527776056
C   C101      1.0  0.52520  0.29450  0.09410  1.0000 0.6537714974
C   C102      1.0  0.52940  0.82040  0.40890  1.0000 0.0952782333
C   C103      1.0  0.37060  0.16540  0.85920  1.0000 -0.1025413647
C   C104      1.0  0.28080  0.19780  0.84050  1.0000 -0.0155192834
C   C105      1.0  0.41350  0.22810  0.20150  1.0000 0.0716549227
C   C106      1.0  0.58180  0.87340  0.43360  1.0000 -0.1701613254
C   C107      1.0  0.29980  0.22030  0.36360  1.0000 0.0007493367
C   C108      1.0  0.23590  0.21860  0.45220  1.0000 0.5173694864
C   C109      1.0  0.84900  0.12050  0.65740  1.0000 -0.1421307996
C   C110      1.0  0.28620  0.17470  0.29170  1.0000 -0.1025413647
C   C111      1.0  0.40460  0.21320  0.01660  1.0000 0.0716549227
C   C112      1.0  0.97380  0.10970  0.51230  1.0000 0.0647534281
C   C113      1.0  0.55790  0.17900  0.13570  1.0000 0.6638622657
C   C114      1.0  0.49650  0.88350  0.57770  1.0000 -0.1527776056
C   C115      1.0  0.42640  0.27280  0.27940  1.0000 -0.15914952
C   C116      1.0  0.47140  0.22830  0.11220  1.0000 -0.2717086747
N   N1        1.0  0.21230  0.51670  0.52900  1.0000 0.0778049064
N   N2        1.0  0.95760  0.70280  0.46140  1.0000 -0.2320574894
N   N3        1.0  0.09260  0.49660  0.62150  1.0000 -0.2509690448
N   N4        1.0  0.49760  0.34790  0.58700  1.0000 -0.239152722
N   N5        1.0  0.16450  0.44970  0.63840  1.0000 -0.2509690448
N   N6        1.0  0.27950  0.54840  0.47030  1.0000 -0.4883274808
N   N7        1.0  0.28770  0.01670  0.47100  1.0000 0.0778049064
N   N8        1.0  0.54240  0.20280  0.53860  1.0000 -0.2320574894
N   N9        1.0  0.40740  0.99660  0.37850  1.0000 -0.2509690448
N   N10       1.0  0.00240  0.84790  0.41300  1.0000 -0.239152722
N   N11       1.0  0.33550  0.94970  0.36160  1.0000 -0.2509690448
N   N12       1.0  0.22050  0.04840  0.52970  1.0000 -0.4883274808
N   N13       1.0  0.78770  0.48330  0.47100  1.0000 0.0778049064
N   N14       1.0  0.04240  0.29720  0.53860  1.0000 -0.2320574894
N   N15       1.0  0.90740  0.50340  0.37850  1.0000 -0.2509690448
N   N16       1.0  0.50240  0.65210  0.41300  1.0000 -0.239152722
N   N17       1.0  0.83550  0.55030  0.36160  1.0000 -0.2509690448
N   N18       1.0  0.72050  0.45160  0.52970  1.0000 -0.4883274808
N   N19       1.0  0.71230  0.98330  0.52900  1.0000 0.0778049064
N   N20       1.0  0.45760  0.79720  0.46140  1.0000 -0.2320574894
N   N21       1.0  0.59260  0.00340  0.62150  1.0000 -0.2509690448
N   N22       1.0  0.99760  0.15210  0.58700  1.0000 -0.239152722
N   N23       1.0  0.66450  0.05030  0.63840  1.0000 -0.2509690448
N   N24       1.0  0.77950  0.95160  0.47030  1.0000 -0.4883274808
O   O1        1.0  0.65280  0.26680  0.72660  1.0000 -0.536828719
O   O2        1.0  0.67020  0.32140  0.45210  1.0000 -0.4883274808
O   O3        1.0  0.72880  0.35640  0.68890  1.0000 -0.5493036136
O   O4        1.0  0.75520  0.24440  0.52110  1.0000 -0.4804947897
O   O5        1.0  0.84720  0.76680  0.27340  1.0000 -0.536828719
O   O6        1.0  0.82980  0.82140  0.54790  1.0000 -0.4883274808
O   O7        1.0  0.77120  0.85640  0.31110  1.0000 -0.5493036136
O   O8        1.0  0.74480  0.74440  0.47890  1.0000 -0.4804947897
O   O9        1.0  0.34720  0.73320  0.27340  1.0000 -0.536828719
O   O10       1.0  0.32980  0.67860  0.54790  1.0000 -0.4883274808
O   O11       1.0  0.27120  0.64360  0.31110  1.0000 -0.5493036136
O   O12       1.0  0.24480  0.75560  0.47890  1.0000 -0.4804947897
O   O13       1.0  0.15280  0.23320  0.72660  1.0000 -0.536828719
O   O14       1.0  0.17020  0.17860  0.45210  1.0000 -0.4883274808
O   O15       1.0  0.22880  0.14360  0.68890  1.0000 -0.5493036136
O   O16       1.0  0.25520  0.25560  0.52110  1.0000 -0.4804947897
F   F1        1.0  0.95350  0.15880  0.09720  1.0000 -0.1899754504
F   F2        1.0  0.02350  0.37950  0.13290  1.0000 -0.1899754504
F   F3        1.0  0.12630  0.31960  0.06700  1.0000 -0.209136039
F   F4        1.0  0.10880  0.30620  0.22140  1.0000 -0.209136039
F   F5        1.0  0.05720  0.20260  0.00450  1.0000 -0.1984352543
F   F6        1.0  0.09180  0.18910  0.16050  1.0000 -0.1899754504
F   F7        1.0  0.54650  0.65880  0.90280  1.0000 -0.1899754504
F   F8        1.0  0.47650  0.87950  0.86710  1.0000 -0.1899754504
F   F9        1.0  0.37370  0.81960  0.93300  1.0000 -0.209136039
F   F10       1.0  0.39120  0.80620  0.77860  1.0000 -0.209136039
F   F11       1.0  0.44280  0.70260  0.99550  1.0000 -0.1984352543
F   F12       1.0  0.40820  0.68910  0.83950  1.0000 -0.1899754504
F   F13       1.0  0.04650  0.84120  0.90280  1.0000 -0.1899754504
F   F14       1.0  0.97650  0.62050  0.86710  1.0000 -0.1899754504
F   F15       1.0  0.87370  0.68040  0.93300  1.0000 -0.209136039
F   F16       1.0  0.89120  0.69380  0.77860  1.0000 -0.209136039
F   F17       1.0  0.94280  0.79740  0.99550  1.0000 -0.1984352543
F   F18       1.0  0.90820  0.81090  0.83950  1.0000 -0.1899754504
F   F19       1.0  0.45350  0.34120  0.09720  1.0000 -0.1899754504
F   F20       1.0  0.52350  0.12050  0.13290  1.0000 -0.1899754504
F   F21       1.0  0.62630  0.18040  0.06700  1.0000 -0.209136039
F   F22       1.0  0.60880  0.19380  0.22140  1.0000 -0.209136039
F   F23       1.0  0.55720  0.29740  0.00450  1.0000 -0.1984352543
F   F24       1.0  0.59180  0.31090  0.16050  1.0000 -0.1899754504
