# DDEC6 charges by PACMAN v1.1 (https://github.com/mtap-research/PACMAN-charge/)
data_2018[Cu][fmj]3[ASR]1
_chemical_formula_sum              "Cu12 H80 C168 O48 F8"
_cell_length_a       26.1777
_cell_length_b       26.1777
_cell_length_c       26.1777
_cell_angle_alpha    132.505
_cell_angle_beta     99.3331
_cell_angle_gamma    99.3331

_symmetry_space_group_name_H-M    "P 1"
_symmetry_Int_Tables_number       1

loop_
  _symmetry_equiv_pos_as_xyz
  'x, y, z'

loop_
  _atom_site_type_symbol
  _atom_site_label
  _atom_site_symmetry_multiplicity
  _atom_site_fract_x
  _atom_site_fract_y
  _atom_site_fract_z
  _atom_site_occupancy
  _atom_site_charge
Cu  Cu1       1.0  0.99063  0.05690  0.55467  1.0000 0.8402056394
Cu  Cu2       1.0  0.00937  0.56404  0.06627  1.0000 0.8402056394
Cu  Cu3       1.0  0.50223  0.43596  0.44533  1.0000 0.8402056394
Cu  Cu4       1.0  0.49777  0.94310  0.93373  1.0000 0.8402056394
Cu  Cu5       1.0  0.00937  0.94310  0.44533  1.0000 0.8402056394
Cu  Cu6       1.0  0.99063  0.43596  0.93373  1.0000 0.8402056394
Cu  Cu7       1.0  0.49777  0.56404  0.55467  1.0000 0.8402056394
Cu  Cu8       1.0  0.50223  0.05690  0.06627  1.0000 0.8402056394
Cu  Cu9       1.0  0.96109  0.00000  0.96109  1.0000 0.865751974
Cu  Cu10      1.0  0.03891  0.00000  0.03891  1.0000 0.865751974
Cu  Cu11      1.0  0.46101  0.46101  0.00000  1.0000 0.8854648096
Cu  Cu12      1.0  0.53899  0.53899  0.00000  1.0000 0.8854648096
H   H1        1.0  0.03560  0.96690  0.81310  1.0000 0.1278825046
H   H2        1.0  0.02990  0.05830  0.71660  1.0000 0.1278825046
H   H3        1.0  0.34610  0.30850  0.77380  1.0000 0.1278825046
H   H4        1.0  0.26760  0.14210  0.54190  1.0000 0.117018299
H   H5        1.0  0.10550  0.88220  0.64730  1.0000 0.117018299
H   H6        1.0  0.06970  0.88730  0.56380  1.0000 0.1377747503
H   H7        1.0  0.17760  0.05940  0.49440  1.0000 0.1278825046
H   H8        1.0  0.05990  0.04540  0.79710  1.0000 0.117018299
H   H9        1.0  0.15630  0.22230  0.68380  1.0000 0.1278825046
H   H10       1.0  0.24900  0.29720  0.73260  1.0000 0.117018299
H   H11       1.0  0.96440  0.77750  0.93130  1.0000 0.1278825046
H   H12       1.0  0.97010  0.68670  0.02840  1.0000 0.1278825046
H   H13       1.0  0.65390  0.42770  0.96240  1.0000 0.1278825046
H   H14       1.0  0.73240  0.27430  0.87450  1.0000 0.117018299
H   H15       1.0  0.89450  0.54180  0.77670  1.0000 0.117018299
H   H16       1.0  0.93030  0.49410  0.81760  1.0000 0.1377747503
H   H17       1.0  0.82240  0.31680  0.88180  1.0000 0.1278825046
H   H18       1.0  0.94010  0.73720  0.98550  1.0000 0.117018299
H   H19       1.0  0.84370  0.52750  0.06600  1.0000 0.1278825046
H   H20       1.0  0.75100  0.48360  0.04820  1.0000 0.117018299
H   H21       1.0  0.15380  0.22250  0.18690  1.0000 0.1278825046
H   H22       1.0  0.34170  0.31330  0.28340  1.0000 0.1278825046
H   H23       1.0  0.53470  0.57230  0.22620  1.0000 0.1278825046
H   H24       1.0  0.60020  0.72570  0.45810  1.0000 0.117018299
H   H25       1.0  0.23490  0.45820  0.35270  1.0000 0.117018299
H   H26       1.0  0.32350  0.50590  0.43620  1.0000 0.1377747503
H   H27       1.0  0.56500  0.68320  0.50560  1.0000 0.1278825046
H   H28       1.0  0.24830  0.26280  0.20290  1.0000 0.117018299
H   H29       1.0  0.53850  0.47250  0.31620  1.0000 0.1278825046
H   H30       1.0  0.56460  0.51640  0.26740  1.0000 0.117018299
H   H31       1.0  0.84620  0.03310  0.06870  1.0000 0.1278825046
H   H32       1.0  0.65830  0.94170  0.97160  1.0000 0.1278825046
H   H33       1.0  0.46530  0.69150  0.03760  1.0000 0.1278825046
H   H34       1.0  0.39980  0.85790  0.12550  1.0000 0.117018299
H   H35       1.0  0.76510  0.11780  0.22330  1.0000 0.117018299
H   H36       1.0  0.67650  0.11270  0.18240  1.0000 0.1377747503
H   H37       1.0  0.43500  0.94060  0.11820  1.0000 0.1278825046
H   H38       1.0  0.75170  0.95460  0.01450  1.0000 0.117018299
H   H39       1.0  0.46150  0.77770  0.93400  1.0000 0.1278825046
H   H40       1.0  0.43540  0.70280  0.95180  1.0000 0.117018299
H   H41       1.0  0.96440  0.03310  0.18690  1.0000 0.1278825046
H   H42       1.0  0.97010  0.94170  0.28340  1.0000 0.1278825046
H   H43       1.0  0.65390  0.69150  0.22620  1.0000 0.1278825046
H   H44       1.0  0.73240  0.85790  0.45810  1.0000 0.117018299
H   H45       1.0  0.89450  0.11780  0.35270  1.0000 0.117018299
H   H46       1.0  0.93030  0.11270  0.43620  1.0000 0.1377747503
H   H47       1.0  0.82240  0.94060  0.50560  1.0000 0.1278825046
H   H48       1.0  0.94010  0.95460  0.20290  1.0000 0.117018299
H   H49       1.0  0.84370  0.77770  0.31620  1.0000 0.1278825046
H   H50       1.0  0.75100  0.70280  0.26740  1.0000 0.117018299
H   H51       1.0  0.03560  0.22250  0.06870  1.0000 0.1278825046
H   H52       1.0  0.02990  0.31330  0.97160  1.0000 0.1278825046
H   H53       1.0  0.34610  0.57230  0.03760  1.0000 0.1278825046
H   H54       1.0  0.26760  0.72570  0.12550  1.0000 0.117018299
H   H55       1.0  0.10550  0.45820  0.22330  1.0000 0.117018299
H   H56       1.0  0.06970  0.50590  0.18240  1.0000 0.1377747503
H   H57       1.0  0.17760  0.68320  0.11820  1.0000 0.1278825046
H   H58       1.0  0.05990  0.26280  0.01450  1.0000 0.117018299
H   H59       1.0  0.15630  0.47250  0.93400  1.0000 0.1278825046
H   H60       1.0  0.24900  0.51640  0.95180  1.0000 0.117018299
H   H61       1.0  0.84620  0.77750  0.81310  1.0000 0.1278825046
H   H62       1.0  0.65830  0.68670  0.71660  1.0000 0.1278825046
H   H63       1.0  0.46530  0.42770  0.77380  1.0000 0.1278825046
H   H64       1.0  0.39980  0.27430  0.54190  1.0000 0.117018299
H   H65       1.0  0.76510  0.54180  0.64730  1.0000 0.117018299
H   H66       1.0  0.67650  0.49410  0.56380  1.0000 0.1377747503
H   H67       1.0  0.43500  0.31680  0.49440  1.0000 0.1278825046
H   H68       1.0  0.75170  0.73720  0.79710  1.0000 0.117018299
H   H69       1.0  0.46150  0.52750  0.68380  1.0000 0.1278825046
H   H70       1.0  0.43540  0.48360  0.73260  1.0000 0.117018299
H   H71       1.0  0.15380  0.96690  0.93130  1.0000 0.1278825046
H   H72       1.0  0.34170  0.05830  0.02840  1.0000 0.1278825046
H   H73       1.0  0.53470  0.30850  0.96240  1.0000 0.1278825046
H   H74       1.0  0.60020  0.14210  0.87450  1.0000 0.117018299
H   H75       1.0  0.23490  0.88220  0.77670  1.0000 0.117018299
H   H76       1.0  0.32350  0.88730  0.81760  1.0000 0.1377747503
H   H77       1.0  0.56500  0.05940  0.88180  1.0000 0.1278825046
H   H78       1.0  0.24830  0.04540  0.98550  1.0000 0.117018299
H   H79       1.0  0.53850  0.22230  0.06600  1.0000 0.1278825046
H   H80       1.0  0.56460  0.29720  0.04820  1.0000 0.117018299
C   C1        1.0  0.07005  0.96357  0.82248  1.0000 -0.1392130513
C   C2        1.0  0.04950  0.97320  0.63210  1.0000 -0.0144405073
C   C3        1.0  0.08427  0.96034  0.72793  1.0000 0.0784373719
C   C4        1.0  0.02977  0.98663  0.58514  1.0000 0.5509099287
C   C5        1.0  0.10325  0.95641  0.78104  1.0000 -0.0548262769
C   C6        1.0  0.04444  0.02212  0.70212  1.0000 -0.089093745
C   C7        1.0  0.15924  0.13208  0.58316  1.0000 -0.0194319498
C   C8        1.0  0.35862  0.31912  0.74950  1.0000 -0.150088642
C   C9        1.0  0.24600  0.15728  0.57112  1.0000 -0.1392130513
C   C10       1.0  0.32482  0.27998  0.67764  1.0000 -0.0548262769
C   C11       1.0  0.26728  0.22959  0.64509  1.0000 0.0784373719
C   C12       1.0  0.09804  0.08183  0.54961  1.0000 0.5710377269
C   C13       1.0  0.08885  0.91655  0.66130  1.0000 -0.1319805405
C   C14       1.0  0.06893  0.92136  0.61157  1.0000 -0.0812339413
C   C15       1.0  0.19132  0.10804  0.54188  1.0000 -0.089093745
C   C16       1.0  0.06270  0.01417  0.75053  1.0000 -0.1587437157
C   C17       1.0  0.17876  0.20501  0.65595  1.0000 -0.089093745
C   C18       1.0  0.23427  0.24983  0.68364  1.0000 -0.1392130513
C   C19       1.0  0.92995  0.75243  0.89352  1.0000 -0.1392130513
C   C20       1.0  0.95050  0.58260  0.92370  1.0000 -0.0144405073
C   C21       1.0  0.91573  0.64366  0.87607  1.0000 0.0784373719
C   C22       1.0  0.97023  0.55537  0.95686  1.0000 0.5509099287
C   C23       1.0  0.89675  0.67779  0.85316  1.0000 -0.0548262769
C   C24       1.0  0.95556  0.65768  0.97768  1.0000 -0.089093745
C   C25       1.0  0.84076  0.42392  0.97284  1.0000 -0.0144405073
C   C26       1.0  0.64138  0.39088  0.96050  1.0000 -0.150088642
C   C27       1.0  0.75400  0.32512  0.91128  1.0000 -0.1392130513
C   C28       1.0  0.67518  0.35282  0.95516  1.0000 -0.0561579319
C   C29       1.0  0.73272  0.37781  0.96231  1.0000 0.0784373719
C   C30       1.0  0.90196  0.45157  0.98379  1.0000 0.5710377269
C   C31       1.0  0.91115  0.57245  0.82770  1.0000 -0.1319805405
C   C32       1.0  0.93107  0.54264  0.85243  1.0000 -0.0812339413
C   C33       1.0  0.80868  0.35056  0.91672  1.0000 -0.089093745
C   C34       1.0  0.93730  0.68783  0.95147  1.0000 -0.1587437157
C   C35       1.0  0.82124  0.47719  0.02625  1.0000 -0.089093745
C   C36       1.0  0.76573  0.44937  0.01556  1.0000 -0.1392130513
C   C37       1.0  0.14109  0.24757  0.17752  1.0000 -0.1392130513
C   C38       1.0  0.34110  0.41740  0.36790  1.0000 -0.0144405073
C   C39       1.0  0.23241  0.35634  0.27207  1.0000 0.0784373719
C   C40       1.0  0.40149  0.44463  0.41486  1.0000 0.5509099287
C   C41       1.0  0.17537  0.32221  0.21896  1.0000 -0.0548262769
C   C42       1.0  0.32000  0.34232  0.29788  1.0000 -0.089093745
C   C43       1.0  0.54892  0.57608  0.41684  1.0000 -0.0194319498
C   C44       1.0  0.56962  0.60912  0.25050  1.0000 -0.150088642
C   C45       1.0  0.58616  0.67488  0.42888  1.0000 -0.1392130513
C   C46       1.0  0.60234  0.64718  0.32236  1.0000 -0.0548262769
C   C47       1.0  0.58450  0.62219  0.35491  1.0000 0.0784373719
C   C48       1.0  0.53222  0.54843  0.45039  1.0000 0.5710377269
C   C49       1.0  0.25525  0.42755  0.33870  1.0000 -0.1319805405
C   C50       1.0  0.30979  0.45736  0.38843  1.0000 -0.0812339413
C   C51       1.0  0.56616  0.64944  0.45812  1.0000 -0.089093745
C   C52       1.0  0.26364  0.31217  0.24947  1.0000 -0.1587437157
C   C53       1.0  0.54906  0.52281  0.34405  1.0000 -0.089093745
C   C54       1.0  0.56619  0.55063  0.31636  1.0000 -0.1392130513
C   C55       1.0  0.85891  0.03643  0.10648  1.0000 -0.1392130513
C   C56       1.0  0.65890  0.02680  0.07630  1.0000 -0.0144405073
C   C57       1.0  0.76759  0.03966  0.12393  1.0000 0.0784373719
C   C58       1.0  0.59851  0.01337  0.04314  1.0000 0.5509099287
C   C59       1.0  0.82463  0.04359  0.14684  1.0000 -0.0548262769
C   C60       1.0  0.68000  0.97788  0.02232  1.0000 -0.089093745
C   C61       1.0  0.45108  0.86792  0.02716  1.0000 -0.0194319498
C   C62       1.0  0.43038  0.68088  0.03950  1.0000 -0.150088642
C   C63       1.0  0.41384  0.84272  0.08872  1.0000 -0.1392130513
C   C64       1.0  0.39766  0.72002  0.04484  1.0000 -0.0548262769
C   C65       1.0  0.41550  0.77041  0.03769  1.0000 0.0784373719
C   C66       1.0  0.46778  0.91817  0.01621  1.0000 0.5710377269
C   C67       1.0  0.74475  0.08345  0.17230  1.0000 -0.1319805405
C   C68       1.0  0.69021  0.07864  0.14757  1.0000 -0.0812339413
C   C69       1.0  0.43384  0.89196  0.08328  1.0000 -0.089093745
C   C70       1.0  0.73636  0.98583  0.04853  1.0000 -0.1587437157
C   C71       1.0  0.45094  0.79499  0.97375  1.0000 -0.089093745
C   C72       1.0  0.43381  0.75017  0.98444  1.0000 -0.1392130513
C   C73       1.0  0.92995  0.03643  0.17752  1.0000 -0.1392130513
C   C74       1.0  0.95050  0.02680  0.36790  1.0000 -0.0144405073
C   C75       1.0  0.91573  0.03966  0.27207  1.0000 0.0784373719
C   C76       1.0  0.97023  0.01337  0.41486  1.0000 0.5509099287
C   C77       1.0  0.89675  0.04359  0.21896  1.0000 -0.0548262769
C   C78       1.0  0.95556  0.97788  0.29788  1.0000 -0.089093745
C   C79       1.0  0.84076  0.86792  0.41684  1.0000 -0.0194319498
C   C80       1.0  0.64138  0.68088  0.25050  1.0000 -0.150088642
C   C81       1.0  0.75400  0.84272  0.42888  1.0000 -0.1392130513
C   C82       1.0  0.67518  0.72002  0.32236  1.0000 -0.0548262769
C   C83       1.0  0.73272  0.77041  0.35491  1.0000 0.0784373719
C   C84       1.0  0.90196  0.91817  0.45039  1.0000 0.5710377269
C   C85       1.0  0.91115  0.08345  0.33870  1.0000 -0.1319805405
C   C86       1.0  0.93107  0.07864  0.38843  1.0000 -0.0812339413
C   C87       1.0  0.80868  0.89196  0.45812  1.0000 -0.089093745
C   C88       1.0  0.93730  0.98583  0.24947  1.0000 -0.1587437157
C   C89       1.0  0.82124  0.79499  0.34405  1.0000 -0.089093745
C   C90       1.0  0.76573  0.75017  0.31636  1.0000 -0.1392130513
C   C91       1.0  0.07005  0.24757  0.10648  1.0000 -0.1392130513
C   C92       1.0  0.04950  0.41740  0.07630  1.0000 -0.0144405073
C   C93       1.0  0.08427  0.35634  0.12393  1.0000 0.0784373719
C   C94       1.0  0.02977  0.44463  0.04314  1.0000 0.5509099287
C   C95       1.0  0.10325  0.32221  0.14684  1.0000 -0.0548262769
C   C96       1.0  0.04444  0.34232  0.02232  1.0000 -0.089093745
C   C97       1.0  0.15924  0.57608  0.02716  1.0000 -0.0194319498
C   C98       1.0  0.35862  0.60912  0.03950  1.0000 -0.150088642
C   C99       1.0  0.24600  0.67488  0.08872  1.0000 -0.1392130513
C   C100      1.0  0.32482  0.64718  0.04484  1.0000 -0.0548262769
C   C101      1.0  0.26728  0.62219  0.03769  1.0000 0.0784373719
C   C102      1.0  0.09804  0.54843  0.01621  1.0000 0.5710377269
C   C103      1.0  0.08885  0.42755  0.17230  1.0000 -0.1319805405
C   C104      1.0  0.06893  0.45736  0.14757  1.0000 -0.0812339413
C   C105      1.0  0.19132  0.64944  0.08328  1.0000 -0.089093745
C   C106      1.0  0.06270  0.31217  0.04853  1.0000 -0.1587437157
C   C107      1.0  0.17876  0.52281  0.97375  1.0000 -0.089093745
C   C108      1.0  0.23427  0.55063  0.98444  1.0000 -0.1392130513
C   C109      1.0  0.85891  0.75243  0.82248  1.0000 -0.1392130513
C   C110      1.0  0.65890  0.58260  0.63210  1.0000 -0.0144405073
C   C111      1.0  0.76759  0.64366  0.72793  1.0000 0.0784373719
C   C112      1.0  0.59851  0.55537  0.58514  1.0000 0.5509099287
C   C113      1.0  0.82463  0.67779  0.78104  1.0000 -0.0548262769
C   C114      1.0  0.68000  0.65768  0.70212  1.0000 -0.089093745
C   C115      1.0  0.45108  0.42392  0.58316  1.0000 -0.0194319498
C   C116      1.0  0.43038  0.39088  0.74950  1.0000 -0.150088642
C   C117      1.0  0.41384  0.32512  0.57112  1.0000 -0.1392130513
C   C118      1.0  0.39766  0.35282  0.67764  1.0000 -0.0548262769
C   C119      1.0  0.41550  0.37781  0.64509  1.0000 0.0784373719
C   C120      1.0  0.46778  0.45157  0.54961  1.0000 0.5710377269
C   C121      1.0  0.74475  0.57245  0.66130  1.0000 -0.1319805405
C   C122      1.0  0.69021  0.54264  0.61157  1.0000 -0.0812339413
C   C123      1.0  0.43384  0.35056  0.54188  1.0000 -0.089093745
C   C124      1.0  0.73636  0.68783  0.75053  1.0000 -0.1587437157
C   C125      1.0  0.45094  0.47719  0.65595  1.0000 -0.089093745
C   C126      1.0  0.43381  0.44937  0.68364  1.0000 -0.1392130513
C   C127      1.0  0.14109  0.96357  0.89352  1.0000 -0.1392130513
C   C128      1.0  0.34110  0.97320  0.92370  1.0000 -0.0144405073
C   C129      1.0  0.23241  0.96034  0.87607  1.0000 0.0784373719
C   C130      1.0  0.40149  0.98663  0.95686  1.0000 0.5509099287
C   C131      1.0  0.17537  0.95641  0.85316  1.0000 -0.0548262769
C   C132      1.0  0.32000  0.02212  0.97768  1.0000 -0.089093745
C   C133      1.0  0.54892  0.13208  0.97284  1.0000 -0.0144405073
C   C134      1.0  0.56962  0.31912  0.96050  1.0000 -0.150088642
C   C135      1.0  0.58616  0.15728  0.91128  1.0000 -0.1392130513
C   C136      1.0  0.60234  0.27998  0.95516  1.0000 -0.0561579319
C   C137      1.0  0.58450  0.22959  0.96231  1.0000 0.0784373719
C   C138      1.0  0.53222  0.08183  0.98379  1.0000 0.5710377269
C   C139      1.0  0.25525  0.91655  0.82770  1.0000 -0.1319805405
C   C140      1.0  0.30979  0.92136  0.85243  1.0000 -0.0812339413
C   C141      1.0  0.56616  0.10804  0.91672  1.0000 -0.089093745
C   C142      1.0  0.26364  0.01417  0.95147  1.0000 -0.1587437157
C   C143      1.0  0.54906  0.20501  0.02625  1.0000 -0.089093745
C   C144      1.0  0.56619  0.24983  0.01556  1.0000 -0.1392130513
C   C145      1.0  0.08926  0.96566  0.87640  1.0000 -0.0409384111
C   C146      1.0  0.05418  0.97078  0.91660  1.0000 0.5710377269
C   C147      1.0  0.15548  0.95648  0.80100  1.0000 0.2015794662
C   C148      1.0  0.91074  0.78714  0.87640  1.0000 -0.0409384111
C   C149      1.0  0.94582  0.86242  0.91660  1.0000 0.5710377269
C   C150      1.0  0.84452  0.64552  0.80100  1.0000 0.2015794662
C   C151      1.0  0.08926  0.21286  0.12360  1.0000 -0.0409384111
C   C152      1.0  0.05418  0.13758  0.08340  1.0000 0.5710377269
C   C153      1.0  0.15548  0.35448  0.19900  1.0000 0.2015794662
C   C154      1.0  0.91074  0.03434  0.12360  1.0000 -0.0409384111
C   C155      1.0  0.94582  0.02922  0.08340  1.0000 0.5710377269
C   C156      1.0  0.84452  0.04352  0.19900  1.0000 0.2015794662
C   C157      1.0  0.44613  0.41790  0.86403  1.0000 0.5877941174
C   C158      1.0  0.41141  0.37430  0.78571  1.0000 -0.0194319498
C   C159      1.0  0.34570  0.29640  0.64210  1.0000 0.2270768208
C   C160      1.0  0.55387  0.41790  0.97177  1.0000 0.5877941174
C   C161      1.0  0.58859  0.37430  0.96289  1.0000 -0.0194319498
C   C162      1.0  0.65430  0.29640  0.95070  1.0000 0.2270768208
C   C163      1.0  0.55387  0.58210  0.13597  1.0000 0.5877941174
C   C164      1.0  0.58859  0.62570  0.21429  1.0000 -0.0194319498
C   C165      1.0  0.65430  0.70360  0.35790  1.0000 0.2270768208
C   C166      1.0  0.44613  0.58210  0.02823  1.0000 0.5877941174
C   C167      1.0  0.41141  0.62570  0.03711  1.0000 -0.0194319498
C   C168      1.0  0.34570  0.70360  0.04930  1.0000 0.2270768208
O   O1        1.0  0.06706  0.11013  0.58455  1.0000 -0.5200033265
O   O2        1.0  0.08587  0.01526  0.49297  1.0000 -0.4931341934
O   O3        1.0  0.42624  0.40415  0.89657  1.0000 -0.5292654115
O   O4        1.0  0.01504  0.03255  0.60749  1.0000 -0.4073431233
O   O5        1.0  0.00822  0.97735  0.90207  1.0000 -0.5200033265
O   O6        1.0  0.03004  0.93410  0.51454  1.0000 -0.5822366926
O   O7        1.0  0.93294  0.51749  0.04307  1.0000 -0.5200033265
O   O8        1.0  0.91413  0.40710  0.92939  1.0000 -0.4931341934
O   O9        1.0  0.57376  0.47033  0.97791  1.0000 -0.5292654115
O   O10       1.0  0.98496  0.59245  0.01751  1.0000 -0.4073431233
O   O11       1.0  0.99178  0.89385  0.96913  1.0000 -0.5200033265
O   O12       1.0  0.96996  0.48450  0.90406  1.0000 -0.5822366926
O   O13       1.0  0.52558  0.48251  0.41545  1.0000 -0.5200033265
O   O14       1.0  0.52229  0.59290  0.50703  1.0000 -0.4931341934
O   O15       1.0  0.50758  0.52967  0.10343  1.0000 -0.5292654115
O   O16       1.0  0.42506  0.40755  0.39251  1.0000 -0.4073431233
O   O17       1.0  0.07528  0.10615  0.09793  1.0000 -0.5200033265
O   O18       1.0  0.41956  0.51550  0.48546  1.0000 -0.5822366926
O   O19       1.0  0.47442  0.88987  0.95693  1.0000 -0.5200033265
O   O20       1.0  0.47771  0.98474  0.07061  1.0000 -0.4931341934
O   O21       1.0  0.49242  0.59585  0.02209  1.0000 -0.5292654115
O   O22       1.0  0.57494  0.96745  0.98249  1.0000 -0.4073431233
O   O23       1.0  0.92472  0.02265  0.03087  1.0000 -0.5200033265
O   O24       1.0  0.58044  0.06590  0.09594  1.0000 -0.5822366926
O   O25       1.0  0.93294  0.88987  0.41545  1.0000 -0.5200033265
O   O26       1.0  0.91413  0.98474  0.50703  1.0000 -0.4931341934
O   O27       1.0  0.57376  0.59585  0.10343  1.0000 -0.5292654115
O   O28       1.0  0.98496  0.96745  0.39251  1.0000 -0.4073431233
O   O29       1.0  0.99178  0.02265  0.09793  1.0000 -0.5200033265
O   O30       1.0  0.96996  0.06590  0.48546  1.0000 -0.5822366926
O   O31       1.0  0.06706  0.48251  0.95693  1.0000 -0.5200033265
O   O32       1.0  0.08587  0.59290  0.07061  1.0000 -0.4931341934
O   O33       1.0  0.42624  0.52967  0.02209  1.0000 -0.5292654115
O   O34       1.0  0.01504  0.40755  0.98249  1.0000 -0.4073431233
O   O35       1.0  0.00822  0.10615  0.03087  1.0000 -0.5200033265
O   O36       1.0  0.03004  0.51550  0.09594  1.0000 -0.5822366926
O   O37       1.0  0.47442  0.51749  0.58455  1.0000 -0.5200033265
O   O38       1.0  0.47771  0.40710  0.49297  1.0000 -0.4931341934
O   O39       1.0  0.49242  0.47033  0.89657  1.0000 -0.5292654115
O   O40       1.0  0.57494  0.59245  0.60749  1.0000 -0.4073431233
O   O41       1.0  0.92472  0.89385  0.90207  1.0000 -0.5200033265
O   O42       1.0  0.58044  0.48450  0.51454  1.0000 -0.5822366926
O   O43       1.0  0.52558  0.11013  0.04307  1.0000 -0.5200033265
O   O44       1.0  0.52229  0.01526  0.92939  1.0000 -0.4931341934
O   O45       1.0  0.50758  0.40415  0.97791  1.0000 -0.5292654115
O   O46       1.0  0.42506  0.03255  0.01751  1.0000 -0.4073431233
O   O47       1.0  0.07528  0.97735  0.96913  1.0000 -0.5200033265
O   O48       1.0  0.41956  0.93410  0.90406  1.0000 -0.5822366926
F   F1        1.0  0.18798  0.95058  0.76260  1.0000 -0.1672949272
F   F2        1.0  0.81202  0.57462  0.76260  1.0000 -0.1672949272
F   F3        1.0  0.18798  0.42538  0.23740  1.0000 -0.1672949272
F   F4        1.0  0.81202  0.04942  0.23740  1.0000 -0.1672949272
F   F5        1.0  0.31329  0.26210  0.57539  1.0000 -0.1672949272
F   F6        1.0  0.68671  0.26210  0.94881  1.0000 -0.1587437157
F   F7        1.0  0.68671  0.73790  0.42461  1.0000 -0.1587437157
F   F8        1.0  0.31329  0.73790  0.05119  1.0000 -0.1587437157
