# DDEC6 charges by PACMAN v1.1 (https://github.com/mtap-research/PACMAN-charge/)
data_2018[Co][hcb]2[ASR]1
_chemical_formula_sum              "Co8 H84 C120 O24"
_cell_length_a       10.397
_cell_length_b       28.1256
_cell_length_c       15.674
_cell_angle_alpha    90
_cell_angle_beta     103.525
_cell_angle_gamma    90

_symmetry_space_group_name_H-M    "P 1"
_symmetry_Int_Tables_number       1

loop_
  _symmetry_equiv_pos_as_xyz
  'x, y, z'

loop_
  _atom_site_type_symbol
  _atom_site_label
  _atom_site_symmetry_multiplicity
  _atom_site_fract_x
  _atom_site_fract_y
  _atom_site_fract_z
  _atom_site_occupancy
  _atom_site_charge
Co  Co1       1.0  0.10084  0.14238  0.06482  1.0000 0.9520267951
Co  Co2       1.0  0.60876  0.64932  0.52156  1.0000 1.0000015903
Co  Co3       1.0  0.89916  0.64238  0.43518  1.0000 0.9520267951
Co  Co4       1.0  0.39124  0.14932  0.97844  1.0000 1.0000015903
Co  Co5       1.0  0.89916  0.85762  0.93518  1.0000 0.9520267951
Co  Co6       1.0  0.39124  0.35068  0.47844  1.0000 1.0000015903
Co  Co7       1.0  0.10084  0.35762  0.56482  1.0000 0.9520267951
Co  Co8       1.0  0.60876  0.85068  0.02156  1.0000 1.0000015903
H   H1        1.0  0.57560  0.52730  0.09170  1.0000 0.1117765098
H   H2        1.0  0.70200  0.57060  0.20160  1.0000 0.1117765098
H   H3        1.0  0.90900  0.53210  0.86790  1.0000 0.1117765098
H   H4        1.0  0.18060  0.59500  0.93000  1.0000 0.1191504528
H   H5        1.0  0.33440  0.59220  0.96560  1.0000 0.1288672546
H   H6        1.0  0.24240  0.59790  0.03120  1.0000 0.1288672546
H   H7        1.0  0.26220  0.55030  0.19380  1.0000 0.1191504528
H   H8        1.0  0.24240  0.53900  0.77940  1.0000 0.1117765098
H   H9        1.0  0.79360  0.56850  0.74010  1.0000 0.1117765098
H   H10       1.0  0.37530  0.36250  0.95410  1.0000 0.1191504528
H   H11       1.0  0.48600  0.42550  0.12500  1.0000 0.1288672546
H   H12       1.0  0.36240  0.40190  0.14910  1.0000 0.1288672546
H   H13       1.0  0.41580  0.45080  0.19100  1.0000 0.1288672546
H   H14       1.0  0.12650  0.57610  0.65250  1.0000 0.1117765098
H   H15       1.0  0.06880  0.37850  0.05380  1.0000 0.1191504528
H   H16       1.0  0.96780  0.42990  0.86330  1.0000 0.1288672546
H   H17       1.0  0.08180  0.39380  0.86110  1.0000 0.1288672546
H   H18       1.0  0.05840  0.43750  0.79730  1.0000 0.1288672546
H   H19       1.0  0.36160  0.28250  0.96170  1.0000 0.1117765098
H   H20       1.0  0.05140  0.29710  0.07040  1.0000 0.1191504528
H   H21       1.0  0.39870  0.59210  0.30610  1.0000 0.1117765098
H   H22       1.0  0.42440  0.02730  0.40830  1.0000 0.1117765098
H   H23       1.0  0.29800  0.07060  0.29840  1.0000 0.1117765098
H   H24       1.0  0.09100  0.03210  0.63210  1.0000 0.1117765098
H   H25       1.0  0.81940  0.09500  0.57000  1.0000 0.1191504528
H   H26       1.0  0.66560  0.09220  0.53440  1.0000 0.1288672546
H   H27       1.0  0.75760  0.09790  0.46880  1.0000 0.1288672546
H   H28       1.0  0.73780  0.05030  0.30620  1.0000 0.1191504528
H   H29       1.0  0.75760  0.03900  0.72060  1.0000 0.1117765098
H   H30       1.0  0.20640  0.06850  0.75990  1.0000 0.1117765098
H   H31       1.0  0.62470  0.86250  0.54590  1.0000 0.1191504528
H   H32       1.0  0.51400  0.92550  0.37500  1.0000 0.1288672546
H   H33       1.0  0.63760  0.90190  0.35090  1.0000 0.1288672546
H   H34       1.0  0.58420  0.95080  0.30900  1.0000 0.1288672546
H   H35       1.0  0.87350  0.07610  0.84750  1.0000 0.1117765098
H   H36       1.0  0.93120  0.87850  0.44620  1.0000 0.1191504528
H   H37       1.0  0.03220  0.92990  0.63670  1.0000 0.1288672546
H   H38       1.0  0.91820  0.89380  0.63890  1.0000 0.1288672546
H   H39       1.0  0.94160  0.93750  0.70270  1.0000 0.1288672546
H   H40       1.0  0.63840  0.78250  0.53830  1.0000 0.1117765098
H   H41       1.0  0.94860  0.79710  0.42960  1.0000 0.1191504528
H   H42       1.0  0.60130  0.09210  0.19390  1.0000 0.1117765098
H   H43       1.0  0.42440  0.47270  0.90830  1.0000 0.1117765098
H   H44       1.0  0.29800  0.42940  0.79840  1.0000 0.1117765098
H   H45       1.0  0.09100  0.46790  0.13210  1.0000 0.1117765098
H   H46       1.0  0.81940  0.40500  0.07000  1.0000 0.1191504528
H   H47       1.0  0.66560  0.40780  0.03440  1.0000 0.1288672546
H   H48       1.0  0.75760  0.40210  0.96880  1.0000 0.1288672546
H   H49       1.0  0.73780  0.44970  0.80620  1.0000 0.1191504528
H   H50       1.0  0.75760  0.46100  0.22060  1.0000 0.1117765098
H   H51       1.0  0.20640  0.43150  0.25990  1.0000 0.1117765098
H   H52       1.0  0.62470  0.63750  0.04590  1.0000 0.1191504528
H   H53       1.0  0.51400  0.57450  0.87500  1.0000 0.1288672546
H   H54       1.0  0.63760  0.59810  0.85090  1.0000 0.1288672546
H   H55       1.0  0.58420  0.54920  0.80900  1.0000 0.1288672546
H   H56       1.0  0.87350  0.42390  0.34750  1.0000 0.1117765098
H   H57       1.0  0.93120  0.62150  0.94620  1.0000 0.1191504528
H   H58       1.0  0.03220  0.57010  0.13670  1.0000 0.1288672546
H   H59       1.0  0.91820  0.60620  0.13890  1.0000 0.1288672546
H   H60       1.0  0.94160  0.56250  0.20270  1.0000 0.1288672546
H   H61       1.0  0.63840  0.71750  0.03830  1.0000 0.1117765098
H   H62       1.0  0.94860  0.70290  0.92960  1.0000 0.1191504528
H   H63       1.0  0.60130  0.40790  0.69390  1.0000 0.1117765098
H   H64       1.0  0.57560  0.97270  0.59170  1.0000 0.1191504528
H   H65       1.0  0.70200  0.92940  0.70160  1.0000 0.1117765098
H   H66       1.0  0.90900  0.96790  0.36790  1.0000 0.1117765098
H   H67       1.0  0.18060  0.90500  0.43000  1.0000 0.1191504528
H   H68       1.0  0.33440  0.90780  0.46560  1.0000 0.1288672546
H   H69       1.0  0.24240  0.90210  0.53120  1.0000 0.1288672546
H   H70       1.0  0.26220  0.94970  0.69380  1.0000 0.1191504528
H   H71       1.0  0.24240  0.96100  0.27940  1.0000 0.1117765098
H   H72       1.0  0.79360  0.93150  0.24010  1.0000 0.1117765098
H   H73       1.0  0.37530  0.13750  0.45410  1.0000 0.1191504528
H   H74       1.0  0.48600  0.07450  0.62500  1.0000 0.1288672546
H   H75       1.0  0.36240  0.09810  0.64910  1.0000 0.1288672546
H   H76       1.0  0.41580  0.04920  0.69100  1.0000 0.1288672546
H   H77       1.0  0.12650  0.92390  0.15250  1.0000 0.1117765098
H   H78       1.0  0.06880  0.12150  0.55380  1.0000 0.1191504528
H   H79       1.0  0.96780  0.07010  0.36330  1.0000 0.1288672546
H   H80       1.0  0.08180  0.10620  0.36110  1.0000 0.1288672546
H   H81       1.0  0.05840  0.06250  0.29730  1.0000 0.1288672546
H   H82       1.0  0.36160  0.21750  0.46170  1.0000 0.1117765098
H   H83       1.0  0.05140  0.20290  0.57040  1.0000 0.1191504528
H   H84       1.0  0.39870  0.90790  0.80610  1.0000 0.1117765098
C   C1        1.0  0.40260  0.53470  0.12880  1.0000 0.0882222611
C   C2        1.0  0.15870  0.50430  0.91690  1.0000 -0.079619138
C   C3        1.0  0.31550  0.50710  0.05700  1.0000 -0.079619138
C   C4        1.0  0.24160  0.53110  0.98360  1.0000 0.0654658037
C   C5        1.0  0.31290  0.45730  0.06390  1.0000 0.0619715737
C   C6        1.0  0.22890  0.43140  0.99660  1.0000 -0.0698672053
C   C7        1.0  0.08170  0.52800  0.83590  1.0000 0.0819636151
C   C8        1.0  0.14910  0.45550  0.92200  1.0000 0.0619715737
C   C9        1.0  0.22140  0.37720  0.00400  1.0000 0.0819636151
C   C10       1.0  0.53740  0.54070  0.13410  1.0000 -0.1583095893
C   C11       1.0  0.94650  0.57360  0.68190  1.0000 -0.0442480393
C   C12       1.0  0.20430  0.27970  0.01620  1.0000 -0.079619138
C   C13       1.0  0.61310  0.56630  0.20120  1.0000 -0.1020973646
C   C14       1.0  0.56780  0.58550  0.26650  1.0000 -0.079619138
C   C15       1.0  0.95260  0.53930  0.82410  1.0000 -0.1690862369
C   C16       1.0  0.25060  0.58370  0.97700  1.0000 -0.4629819509
C   C17       1.0  0.35130  0.55400  0.19450  1.0000 -0.1583095893
C   C18       1.0  0.15170  0.54380  0.77030  1.0000 -0.1583095893
C   C19       1.0  0.87370  0.59830  0.60110  1.0000 0.6051455545
C   C20       1.0  0.88300  0.56160  0.74730  1.0000 -0.113061775
C   C21       1.0  0.30880  0.34880  0.97670  1.0000 -0.1528126937
C   C22       1.0  0.40240  0.43150  0.13900  1.0000 -0.4629819509
C   C23       1.0  0.08250  0.56610  0.69460  1.0000 -0.1020973646
C   C24       1.0  0.64500  0.60840  0.34430  1.0000 0.5792628932
C   C25       1.0  0.12900  0.35850  0.03620  1.0000 -0.1528126937
C   C26       1.0  0.05600  0.42660  0.85490  1.0000 -0.4629819509
C   C27       1.0  0.30110  0.30130  0.98170  1.0000 -0.0909406575
C   C28       1.0  0.11680  0.30960  0.04530  1.0000 -0.0909406575
C   C29       1.0  0.43400  0.57910  0.26210  1.0000 -0.1020973646
C   C30       1.0  0.21000  0.22920  0.01470  1.0000 0.5289696562
C   C31       1.0  0.59740  0.03470  0.37120  1.0000 0.0882222611
C   C32       1.0  0.84130  0.00430  0.58310  1.0000 -0.079619138
C   C33       1.0  0.68450  0.00710  0.44300  1.0000 -0.079619138
C   C34       1.0  0.75840  0.03110  0.51640  1.0000 0.0654658037
C   C35       1.0  0.68710  0.95730  0.43610  1.0000 0.0619715737
C   C36       1.0  0.77110  0.93140  0.50340  1.0000 -0.0698672053
C   C37       1.0  0.91830  0.02800  0.66410  1.0000 0.0819636151
C   C38       1.0  0.85090  0.95550  0.57800  1.0000 0.0619715737
C   C39       1.0  0.77860  0.87720  0.49600  1.0000 0.0819636151
C   C40       1.0  0.46260  0.04070  0.36590  1.0000 -0.1583095893
C   C41       1.0  0.05350  0.07360  0.81810  1.0000 -0.0442480393
C   C42       1.0  0.79570  0.77970  0.48380  1.0000 -0.079619138
C   C43       1.0  0.38690  0.06630  0.29880  1.0000 -0.1020973646
C   C44       1.0  0.43220  0.08550  0.23350  1.0000 -0.079619138
C   C45       1.0  0.04740  0.03930  0.67590  1.0000 -0.1690862369
C   C46       1.0  0.74940  0.08370  0.52300  1.0000 -0.4629819509
C   C47       1.0  0.64870  0.05400  0.30550  1.0000 -0.1583095893
C   C48       1.0  0.84830  0.04380  0.72970  1.0000 -0.1583095893
C   C49       1.0  0.12630  0.09830  0.89890  1.0000 0.6051455545
C   C50       1.0  0.11700  0.06160  0.75270  1.0000 -0.113061775
C   C51       1.0  0.69120  0.84880  0.52330  1.0000 -0.1528126937
C   C52       1.0  0.59760  0.93150  0.36100  1.0000 -0.4629819509
C   C53       1.0  0.91750  0.06610  0.80540  1.0000 -0.1020973646
C   C54       1.0  0.35500  0.10840  0.15570  1.0000 0.5792628932
C   C55       1.0  0.87100  0.85850  0.46380  1.0000 -0.1528126937
C   C56       1.0  0.94400  0.92660  0.64510  1.0000 -0.4629819509
C   C57       1.0  0.69890  0.80130  0.51830  1.0000 -0.0909406575
C   C58       1.0  0.88320  0.80960  0.45470  1.0000 -0.0909406575
C   C59       1.0  0.56600  0.07910  0.23790  1.0000 -0.1020973646
C   C60       1.0  0.79000  0.72920  0.48530  1.0000 0.5289696562
C   C61       1.0  0.59740  0.46530  0.87120  1.0000 0.0882222611
C   C62       1.0  0.84130  0.49570  0.08310  1.0000 -0.079619138
C   C63       1.0  0.68450  0.49290  0.94300  1.0000 -0.079619138
C   C64       1.0  0.75840  0.46890  0.01640  1.0000 0.0654658037
C   C65       1.0  0.68710  0.54270  0.93610  1.0000 0.0619715737
C   C66       1.0  0.77110  0.56860  0.00340  1.0000 -0.0698672053
C   C67       1.0  0.91830  0.47200  0.16410  1.0000 0.0819636151
C   C68       1.0  0.85090  0.54450  0.07800  1.0000 0.0619715737
C   C69       1.0  0.77860  0.62280  0.99600  1.0000 0.0819636151
C   C70       1.0  0.46260  0.45930  0.86590  1.0000 -0.1583095893
C   C71       1.0  0.05350  0.42640  0.31810  1.0000 -0.0442480393
C   C72       1.0  0.79570  0.72030  0.98380  1.0000 -0.079619138
C   C73       1.0  0.38690  0.43370  0.79880  1.0000 -0.1020973646
C   C74       1.0  0.43220  0.41450  0.73350  1.0000 -0.079619138
C   C75       1.0  0.04740  0.46070  0.17590  1.0000 -0.1690862369
C   C76       1.0  0.74940  0.41630  0.02300  1.0000 -0.4629819509
C   C77       1.0  0.64870  0.44600  0.80550  1.0000 -0.1583095893
C   C78       1.0  0.84830  0.45620  0.22970  1.0000 -0.1583095893
C   C79       1.0  0.12630  0.40170  0.39890  1.0000 0.6051455545
C   C80       1.0  0.11700  0.43840  0.25270  1.0000 -0.113061775
C   C81       1.0  0.69120  0.65120  0.02330  1.0000 -0.1528126937
C   C82       1.0  0.59760  0.56850  0.86100  1.0000 -0.4629819509
C   C83       1.0  0.91750  0.43390  0.30540  1.0000 -0.1020973646
C   C84       1.0  0.35500  0.39160  0.65570  1.0000 0.5792628932
C   C85       1.0  0.87100  0.64150  0.96380  1.0000 -0.1528126937
C   C86       1.0  0.94400  0.57340  0.14510  1.0000 -0.4629819509
C   C87       1.0  0.69890  0.69870  0.01830  1.0000 -0.0909406575
C   C88       1.0  0.88320  0.69040  0.95470  1.0000 -0.0909406575
C   C89       1.0  0.56600  0.42090  0.73790  1.0000 -0.1020973646
C   C90       1.0  0.79000  0.77080  0.98530  1.0000 0.5289696562
C   C91       1.0  0.40260  0.96530  0.62880  1.0000 0.0882222611
C   C92       1.0  0.15870  0.99570  0.41690  1.0000 -0.079619138
C   C93       1.0  0.31550  0.99290  0.55700  1.0000 -0.079619138
C   C94       1.0  0.24160  0.96890  0.48360  1.0000 0.0654658037
C   C95       1.0  0.31290  0.04270  0.56390  1.0000 0.0619715737
C   C96       1.0  0.22890  0.06860  0.49660  1.0000 -0.0698672053
C   C97       1.0  0.08170  0.97200  0.33590  1.0000 0.0819636151
C   C98       1.0  0.14910  0.04450  0.42200  1.0000 0.0619715737
C   C99       1.0  0.22140  0.12280  0.50400  1.0000 0.0819636151
C   C100      1.0  0.53740  0.95930  0.63410  1.0000 -0.1583095893
C   C101      1.0  0.94650  0.92640  0.18190  1.0000 -0.0442480393
C   C102      1.0  0.20430  0.22030  0.51620  1.0000 -0.079619138
C   C103      1.0  0.61310  0.93370  0.70120  1.0000 -0.1020973646
C   C104      1.0  0.56780  0.91450  0.76650  1.0000 -0.079619138
C   C105      1.0  0.95260  0.96070  0.32410  1.0000 -0.1690862369
C   C106      1.0  0.25060  0.91630  0.47700  1.0000 -0.4629819509
C   C107      1.0  0.35130  0.94600  0.69450  1.0000 -0.1583095893
C   C108      1.0  0.15170  0.95620  0.27030  1.0000 -0.1583095893
C   C109      1.0  0.87370  0.90170  0.10110  1.0000 0.6051455545
C   C110      1.0  0.88300  0.93840  0.24730  1.0000 -0.113061775
C   C111      1.0  0.30880  0.15120  0.47670  1.0000 -0.1528126937
C   C112      1.0  0.40240  0.06850  0.63900  1.0000 -0.4629819509
C   C113      1.0  0.08250  0.93390  0.19460  1.0000 -0.1020973646
C   C114      1.0  0.64500  0.89160  0.84430  1.0000 0.5792628932
C   C115      1.0  0.12900  0.14150  0.53620  1.0000 -0.1528126937
C   C116      1.0  0.05600  0.07340  0.35490  1.0000 -0.4629819509
C   C117      1.0  0.30110  0.19870  0.48170  1.0000 -0.0909406575
C   C118      1.0  0.11680  0.19040  0.54530  1.0000 -0.0909406575
C   C119      1.0  0.43400  0.92090  0.76210  1.0000 -0.1020973646
C   C120      1.0  0.21000  0.27080  0.51470  1.0000 0.5289696562
O   O1        1.0  0.11400  0.21230  0.05320  1.0000 -0.5629110378
O   O2        1.0  0.75340  0.60840  0.59440  1.0000 -0.6146011394
O   O3        1.0  0.93990  0.60640  0.54390  1.0000 -0.5932377172
O   O4        1.0  0.75960  0.61640  0.34130  1.0000 -0.5031878319
O   O5        1.0  0.60800  0.62080  0.40750  1.0000 -0.5203778934
O   O6        1.0  0.26940  0.20190  0.99320  1.0000 -0.4629819509
O   O7        1.0  0.88600  0.71230  0.44680  1.0000 -0.5629110378
O   O8        1.0  0.24660  0.10840  0.90560  1.0000 -0.6146011394
O   O9        1.0  0.06010  0.10640  0.95610  1.0000 -0.5932377172
O   O10       1.0  0.24040  0.11640  0.15870  1.0000 -0.5031878319
O   O11       1.0  0.39200  0.12080  0.09250  1.0000 -0.5203778934
O   O12       1.0  0.73060  0.70190  0.50680  1.0000 -0.4629819509
O   O13       1.0  0.88600  0.78770  0.94680  1.0000 -0.5629110378
O   O14       1.0  0.24660  0.39160  0.40560  1.0000 -0.6146011394
O   O15       1.0  0.06010  0.39360  0.45610  1.0000 -0.5932377172
O   O16       1.0  0.24040  0.38360  0.65870  1.0000 -0.5031878319
O   O17       1.0  0.39200  0.37920  0.59250  1.0000 -0.5203778934
O   O18       1.0  0.73060  0.79810  0.00680  1.0000 -0.4629819509
O   O19       1.0  0.11400  0.28770  0.55320  1.0000 -0.5629110378
O   O20       1.0  0.75340  0.89160  0.09440  1.0000 -0.6146011394
O   O21       1.0  0.93990  0.89360  0.04390  1.0000 -0.5932377172
O   O22       1.0  0.75960  0.88360  0.84130  1.0000 -0.5031878319
O   O23       1.0  0.60800  0.87920  0.90750  1.0000 -0.5203778934
O   O24       1.0  0.26940  0.29810  0.49320  1.0000 -0.4629819509
