# DDEC6 charges by PACMAN v1.1 (https://github.com/mtap-research/PACMAN-charge/)
data_2018[Ag][sql]2[ASR]1
_chemical_formula_sum              "Ag8 H48 C56 N8 O16"
_cell_length_a       6.9869
_cell_length_b       22.6069
_cell_length_c       10.302
_cell_angle_alpha    90
_cell_angle_beta     95.017
_cell_angle_gamma    90

_symmetry_space_group_name_H-M    "P 1"
_symmetry_Int_Tables_number       1

loop_
  _symmetry_equiv_pos_as_xyz
  'x, y, z'

loop_
  _atom_site_type_symbol
  _atom_site_label
  _atom_site_symmetry_multiplicity
  _atom_site_fract_x
  _atom_site_fract_y
  _atom_site_fract_z
  _atom_site_occupancy
  _atom_site_charge
Ag  Ag1       1.0  0.93535  0.97471  0.86796  1.0000 0.4021204438
Ag  Ag2       1.0  0.41307  0.00927  0.83333  1.0000 0.4631887254
Ag  Ag3       1.0  0.06465  0.02529  0.13204  1.0000 0.4021204438
Ag  Ag4       1.0  0.58693  0.99073  0.16667  1.0000 0.4631887254
Ag  Ag5       1.0  0.06465  0.47471  0.63204  1.0000 0.4021204438
Ag  Ag6       1.0  0.58693  0.50927  0.66667  1.0000 0.4631887254
Ag  Ag7       1.0  0.93535  0.52529  0.36796  1.0000 0.4021204438
Ag  Ag8       1.0  0.41307  0.49073  0.33333  1.0000 0.4631887254
H   H1        1.0  0.24790  0.21460  0.98950  1.0000 0.1229410868
H   H2        1.0  0.35100  0.28460  0.84700  1.0000 0.127823579
H   H3        1.0  0.63040  0.26890  0.75070  1.0000 0.127823579
H   H4        1.0  0.81600  0.18640  0.80060  1.0000 0.127823579
H   H5        1.0  0.42530  0.12720  0.67310  1.0000 0.1525205052
H   H6        1.0  0.23540  0.15440  0.60560  1.0000 0.1525205052
H   H7        1.0  0.22860  0.11530  0.73080  1.0000 0.1586545956
H   H8        1.0  0.16860  0.10550  0.39890  1.0000 0.127823579
H   H9        1.0  0.20180  0.93540  0.37420  1.0000 0.127823579
H   H10       1.0  0.23300  0.89980  0.68010  1.0000 0.1650405403
H   H11       1.0  0.31330  0.87590  0.55280  1.0000 0.1525205052
H   H12       1.0  0.45130  0.90730  0.65950  1.0000 0.1586545956
H   H13       1.0  0.75210  0.78540  0.01050  1.0000 0.1229410868
H   H14       1.0  0.64900  0.71540  0.15300  1.0000 0.127823579
H   H15       1.0  0.36960  0.73110  0.24930  1.0000 0.127823579
H   H16       1.0  0.18400  0.81360  0.19940  1.0000 0.127823579
H   H17       1.0  0.57470  0.87280  0.32690  1.0000 0.1525205052
H   H18       1.0  0.76460  0.84560  0.39440  1.0000 0.1525205052
H   H19       1.0  0.77140  0.88470  0.26920  1.0000 0.1586545956
H   H20       1.0  0.83140  0.89450  0.60110  1.0000 0.127823579
H   H21       1.0  0.79820  0.06460  0.62580  1.0000 0.127823579
H   H22       1.0  0.76700  0.10020  0.31990  1.0000 0.1650405403
H   H23       1.0  0.68670  0.12410  0.44720  1.0000 0.1525205052
H   H24       1.0  0.54870  0.09270  0.34050  1.0000 0.1586545956
H   H25       1.0  0.75210  0.71460  0.51050  1.0000 0.1229410868
H   H26       1.0  0.64900  0.78460  0.65300  1.0000 0.127823579
H   H27       1.0  0.36960  0.76890  0.74930  1.0000 0.127823579
H   H28       1.0  0.18400  0.68640  0.69940  1.0000 0.127823579
H   H29       1.0  0.57470  0.62720  0.82690  1.0000 0.1525205052
H   H30       1.0  0.76460  0.65440  0.89440  1.0000 0.1525205052
H   H31       1.0  0.77140  0.61530  0.76920  1.0000 0.1586545956
H   H32       1.0  0.83140  0.60550  0.10110  1.0000 0.127823579
H   H33       1.0  0.79820  0.43540  0.12580  1.0000 0.127823579
H   H34       1.0  0.76700  0.39980  0.81990  1.0000 0.1650405403
H   H35       1.0  0.68670  0.37590  0.94720  1.0000 0.1525205052
H   H36       1.0  0.54870  0.40730  0.84050  1.0000 0.1586545956
H   H37       1.0  0.24790  0.28540  0.48950  1.0000 0.1229410868
H   H38       1.0  0.35100  0.21540  0.34700  1.0000 0.127823579
H   H39       1.0  0.63040  0.23110  0.25070  1.0000 0.127823579
H   H40       1.0  0.81600  0.31360  0.30060  1.0000 0.127823579
H   H41       1.0  0.42530  0.37280  0.17310  1.0000 0.1525205052
H   H42       1.0  0.23540  0.34560  0.10560  1.0000 0.1525205052
H   H43       1.0  0.22860  0.38470  0.23080  1.0000 0.1586545956
H   H44       1.0  0.16860  0.39450  0.89890  1.0000 0.127823579
H   H45       1.0  0.20180  0.56460  0.87420  1.0000 0.127823579
H   H46       1.0  0.23300  0.60020  0.18010  1.0000 0.1650405403
H   H47       1.0  0.31330  0.62410  0.05280  1.0000 0.1525205052
H   H48       1.0  0.45130  0.59270  0.15950  1.0000 0.1586545956
C   C1        1.0  0.38200  0.11080  0.06250  1.0000 0.5548963126
C   C2        1.0  0.46480  0.15680  0.97880  1.0000 -0.0570521813
C   C3        1.0  0.36130  0.20820  0.95060  1.0000 -0.1106861356
C   C4        1.0  0.42290  0.25050  0.86550  1.0000 -0.1009554315
C   C5        1.0  0.59020  0.24130  0.80940  1.0000 -0.0878340948
C   C6        1.0  0.70100  0.19160  0.83820  1.0000 -0.1279147986
C   C7        1.0  0.63990  0.14950  0.92370  1.0000 -0.0250484824
C   C8        1.0  0.76990  0.09740  0.95720  1.0000 0.5643211182
C   C9        1.0  0.29000  0.12070  0.65200  1.0000 -0.5128867451
C   C10       1.0  0.26200  0.06710  0.56930  1.0000 0.2599766578
C   C11       1.0  0.19510  0.06880  0.43720  1.0000 -0.0208334058
C   C12       1.0  0.21530  0.96970  0.42380  1.0000 -0.080891778
C   C13       1.0  0.28130  0.96510  0.55180  1.0000 0.2599766578
C   C14       1.0  0.32350  0.90680  0.61690  1.0000 -0.5128867451
C   C15       1.0  0.61800  0.88920  0.93750  1.0000 0.5548963126
C   C16       1.0  0.53520  0.84320  0.02120  1.0000 -0.0570521813
C   C17       1.0  0.63870  0.79180  0.04940  1.0000 -0.1106861356
C   C18       1.0  0.57710  0.74950  0.13450  1.0000 -0.1009554315
C   C19       1.0  0.40980  0.75870  0.19060  1.0000 -0.0878340948
C   C20       1.0  0.29900  0.80840  0.16180  1.0000 -0.1279147986
C   C21       1.0  0.36010  0.85050  0.07630  1.0000 -0.0250484824
C   C22       1.0  0.23010  0.90260  0.04280  1.0000 0.5643211182
C   C23       1.0  0.71000  0.87930  0.34800  1.0000 -0.5128867451
C   C24       1.0  0.73800  0.93290  0.43070  1.0000 0.2599766578
C   C25       1.0  0.80490  0.93120  0.56280  1.0000 -0.0208334058
C   C26       1.0  0.78470  0.03030  0.57620  1.0000 -0.080891778
C   C27       1.0  0.71870  0.03490  0.44820  1.0000 0.2599766578
C   C28       1.0  0.67650  0.09320  0.38310  1.0000 -0.5128867451
C   C29       1.0  0.61800  0.61080  0.43750  1.0000 0.5548963126
C   C30       1.0  0.53520  0.65680  0.52120  1.0000 -0.0570521813
C   C31       1.0  0.63870  0.70820  0.54940  1.0000 -0.1106861356
C   C32       1.0  0.57710  0.75050  0.63450  1.0000 -0.1009554315
C   C33       1.0  0.40980  0.74130  0.69060  1.0000 -0.0878340948
C   C34       1.0  0.29900  0.69160  0.66180  1.0000 -0.1279147986
C   C35       1.0  0.36010  0.64950  0.57630  1.0000 -0.0250484824
C   C36       1.0  0.23010  0.59740  0.54280  1.0000 0.5643211182
C   C37       1.0  0.71000  0.62070  0.84800  1.0000 -0.5128867451
C   C38       1.0  0.73800  0.56710  0.93070  1.0000 0.2599766578
C   C39       1.0  0.80490  0.56880  0.06280  1.0000 -0.0208334058
C   C40       1.0  0.78470  0.46970  0.07620  1.0000 -0.080891778
C   C41       1.0  0.71870  0.46510  0.94820  1.0000 0.2599766578
C   C42       1.0  0.67650  0.40680  0.88310  1.0000 -0.5128867451
C   C43       1.0  0.38200  0.38920  0.56250  1.0000 0.5548963126
C   C44       1.0  0.46480  0.34320  0.47880  1.0000 -0.0570521813
C   C45       1.0  0.36130  0.29180  0.45060  1.0000 -0.1106861356
C   C46       1.0  0.42290  0.24950  0.36550  1.0000 -0.1009554315
C   C47       1.0  0.59020  0.25870  0.30940  1.0000 -0.0878340948
C   C48       1.0  0.70100  0.30840  0.33820  1.0000 -0.1279147986
C   C49       1.0  0.63990  0.35050  0.42370  1.0000 -0.0250484824
C   C50       1.0  0.76990  0.40260  0.45720  1.0000 0.5643211182
C   C51       1.0  0.29000  0.37930  0.15200  1.0000 -0.5128867451
C   C52       1.0  0.26200  0.43290  0.06930  1.0000 0.2599766578
C   C53       1.0  0.19510  0.43120  0.93720  1.0000 -0.0208334058
C   C54       1.0  0.21530  0.53030  0.92380  1.0000 -0.080891778
C   C55       1.0  0.28130  0.53490  0.05180  1.0000 0.2599766578
C   C56       1.0  0.32350  0.59320  0.11690  1.0000 -0.5128867451
N   N1        1.0  0.30740  0.01450  0.62500  1.0000 -0.2893992339
N   N2        1.0  0.16830  0.02210  0.36560  1.0000 -0.1686618302
N   N3        1.0  0.69260  0.98550  0.37500  1.0000 -0.2893992339
N   N4        1.0  0.83170  0.97790  0.63440  1.0000 -0.1686618302
N   N5        1.0  0.69260  0.51450  0.87500  1.0000 -0.2893992339
N   N6        1.0  0.83170  0.52210  0.13440  1.0000 -0.1686618302
N   N7        1.0  0.30740  0.48550  0.12500  1.0000 -0.2893992339
N   N8        1.0  0.16830  0.47790  0.86560  1.0000 -0.1686618302
O   O1        1.0  0.40300  0.05700  0.02930  1.0000 -0.5391371969
O   O2        1.0  0.29430  0.12570  0.15490  1.0000 -0.5202381436
O   O3        1.0  0.81540  0.06760  0.86270  1.0000 -0.5391371969
O   O4        1.0  0.82280  0.08800  0.07460  1.0000 -0.5128867451
O   O5        1.0  0.59700  0.94300  0.97070  1.0000 -0.5391371969
O   O6        1.0  0.70570  0.87430  0.84510  1.0000 -0.5202381436
O   O7        1.0  0.18460  0.93240  0.13730  1.0000 -0.5391371969
O   O8        1.0  0.17720  0.91200  0.92540  1.0000 -0.5128867451
O   O9        1.0  0.59700  0.55700  0.47070  1.0000 -0.5391371969
O   O10       1.0  0.70570  0.62570  0.34510  1.0000 -0.5202381436
O   O11       1.0  0.18460  0.56760  0.63730  1.0000 -0.5391371969
O   O12       1.0  0.17720  0.58800  0.42540  1.0000 -0.5128867451
O   O13       1.0  0.40300  0.44300  0.52930  1.0000 -0.5391371969
O   O14       1.0  0.29430  0.37430  0.65490  1.0000 -0.5202381436
O   O15       1.0  0.81540  0.43240  0.36270  1.0000 -0.5391371969
O   O16       1.0  0.82280  0.41200  0.57460  1.0000 -0.5128867451
