# DDEC6 charges by PACMAN v1.1 (https://github.com/mtap-research/PACMAN-charge/)
data_2018[Fe][sql]2[ASR]2
_chemical_formula_sum              "Fe4 H96 C128 N48 Cl8 O8"
_cell_length_a       7.5828
_cell_length_b       19.912
_cell_length_c       23.883
_cell_angle_alpha    90
_cell_angle_beta     90
_cell_angle_gamma    90

_symmetry_space_group_name_H-M    "P 1"
_symmetry_Int_Tables_number       1

loop_
  _symmetry_equiv_pos_as_xyz
  'x, y, z'

loop_
  _atom_site_type_symbol
  _atom_site_label
  _atom_site_symmetry_multiplicity
  _atom_site_fract_x
  _atom_site_fract_y
  _atom_site_fract_z
  _atom_site_occupancy
  _atom_site_charge
Fe  Fe1       1.0  0.50000  0.75000  0.12187  1.0000 0.6578014334
Fe  Fe2       1.0  0.00000  0.75000  0.62187  1.0000 0.6578014334
Fe  Fe3       1.0  0.00000  0.25000  0.37813  1.0000 0.6578014334
Fe  Fe4       1.0  0.50000  0.25000  0.87813  1.0000 0.6578014334
H   H1        1.0  0.63840  0.63320  0.03750  1.0000 0.1080143585
H   H2        1.0  0.14770  0.68350  0.04830  1.0000 0.1218493462
H   H3        1.0  0.98450  0.66330  0.95430  1.0000 0.1299139767
H   H4        1.0  0.78110  0.61170  0.89590  1.0000 0.1357585145
H   H5        1.0  0.05370  0.43960  0.90670  1.0000 0.1299139767
H   H6        1.0  0.25060  0.49060  0.96720  1.0000 0.1218493462
H   H7        1.0  0.47060  0.51050  0.88960  1.0000 0.1299139767
H   H8        1.0  0.25040  0.56740  0.84220  1.0000 0.1218493462
H   H9        1.0  0.58330  0.59910  0.71470  1.0000 0.1299139767
H   H10       1.0  0.80450  0.54480  0.76390  1.0000 0.1218493462
H   H11       1.0  0.88260  0.66410  0.73020  1.0000 0.1080143585
H   H12       1.0  0.36450  0.67210  0.67910  1.0000 0.1218493462
H   H13       1.0  0.36160  0.86680  0.03750  1.0000 0.1080143585
H   H14       1.0  0.85230  0.81650  0.04830  1.0000 0.1218493462
H   H15       1.0  0.01550  0.83670  0.95430  1.0000 0.1299139767
H   H16       1.0  0.21890  0.88830  0.89590  1.0000 0.1357585145
H   H17       1.0  0.94630  0.06040  0.90670  1.0000 0.1299139767
H   H18       1.0  0.74940  0.00940  0.96720  1.0000 0.1218493462
H   H19       1.0  0.52940  0.98950  0.88960  1.0000 0.1299139767
H   H20       1.0  0.74960  0.93260  0.84220  1.0000 0.1218493462
H   H21       1.0  0.41670  0.90090  0.71470  1.0000 0.1299139767
H   H22       1.0  0.19550  0.95520  0.76390  1.0000 0.1218493462
H   H23       1.0  0.11740  0.83590  0.73020  1.0000 0.1080143585
H   H24       1.0  0.63550  0.82790  0.67910  1.0000 0.1218493462
H   H25       1.0  0.13840  0.86680  0.53750  1.0000 0.1080143585
H   H26       1.0  0.64770  0.81650  0.54830  1.0000 0.1218493462
H   H27       1.0  0.48450  0.83670  0.45430  1.0000 0.1299139767
H   H28       1.0  0.28110  0.88830  0.39590  1.0000 0.1357585145
H   H29       1.0  0.55370  0.06040  0.40670  1.0000 0.1299139767
H   H30       1.0  0.75060  0.00940  0.46720  1.0000 0.1218493462
H   H31       1.0  0.97060  0.98950  0.38960  1.0000 0.1299139767
H   H32       1.0  0.75040  0.93260  0.34220  1.0000 0.1218493462
H   H33       1.0  0.08330  0.90090  0.21470  1.0000 0.1299139767
H   H34       1.0  0.30450  0.95520  0.26390  1.0000 0.1218493462
H   H35       1.0  0.38260  0.83590  0.23020  1.0000 0.1080143585
H   H36       1.0  0.86450  0.82790  0.17910  1.0000 0.1218493462
H   H37       1.0  0.86160  0.63320  0.53750  1.0000 0.1080143585
H   H38       1.0  0.35230  0.68350  0.54830  1.0000 0.1218493462
H   H39       1.0  0.51550  0.66330  0.45430  1.0000 0.1299139767
H   H40       1.0  0.71890  0.61170  0.39590  1.0000 0.1357585145
H   H41       1.0  0.44630  0.43960  0.40670  1.0000 0.1299139767
H   H42       1.0  0.24940  0.49060  0.46720  1.0000 0.1218493462
H   H43       1.0  0.02940  0.51050  0.38960  1.0000 0.1299139767
H   H44       1.0  0.24960  0.56740  0.34220  1.0000 0.1218493462
H   H45       1.0  0.91670  0.59910  0.21470  1.0000 0.1299139767
H   H46       1.0  0.69550  0.54480  0.26390  1.0000 0.1218493462
H   H47       1.0  0.61740  0.66410  0.23020  1.0000 0.1080143585
H   H48       1.0  0.13550  0.67210  0.17910  1.0000 0.1218493462
H   H49       1.0  0.86160  0.13320  0.46250  1.0000 0.1080143585
H   H50       1.0  0.35230  0.18350  0.45170  1.0000 0.1218493462
H   H51       1.0  0.51550  0.16330  0.54570  1.0000 0.1299139767
H   H52       1.0  0.71890  0.11170  0.60410  1.0000 0.1357585145
H   H53       1.0  0.44630  0.93960  0.59330  1.0000 0.1299139767
H   H54       1.0  0.24940  0.99060  0.53280  1.0000 0.1218493462
H   H55       1.0  0.02940  0.01050  0.61040  1.0000 0.1299139767
H   H56       1.0  0.24960  0.06740  0.65780  1.0000 0.1218493462
H   H57       1.0  0.91670  0.09910  0.78530  1.0000 0.1299139767
H   H58       1.0  0.69550  0.04480  0.73610  1.0000 0.1218493462
H   H59       1.0  0.61740  0.16410  0.76980  1.0000 0.1080143585
H   H60       1.0  0.13550  0.17210  0.82090  1.0000 0.1218493462
H   H61       1.0  0.13840  0.36680  0.46250  1.0000 0.1080143585
H   H62       1.0  0.64770  0.31650  0.45170  1.0000 0.1218493462
H   H63       1.0  0.48450  0.33670  0.54570  1.0000 0.1299139767
H   H64       1.0  0.28110  0.38830  0.60410  1.0000 0.1357585145
H   H65       1.0  0.55370  0.56040  0.59330  1.0000 0.1299139767
H   H66       1.0  0.75060  0.50940  0.53280  1.0000 0.1218493462
H   H67       1.0  0.97060  0.48950  0.61040  1.0000 0.1299139767
H   H68       1.0  0.75040  0.43260  0.65780  1.0000 0.1218493462
H   H69       1.0  0.08330  0.40090  0.78530  1.0000 0.1299139767
H   H70       1.0  0.30450  0.45520  0.73610  1.0000 0.1218493462
H   H71       1.0  0.38260  0.33590  0.76980  1.0000 0.1080143585
H   H72       1.0  0.86450  0.32790  0.82090  1.0000 0.1218493462
H   H73       1.0  0.36160  0.36680  0.96250  1.0000 0.1080143585
H   H74       1.0  0.85230  0.31650  0.95170  1.0000 0.1218493462
H   H75       1.0  0.01550  0.33670  0.04570  1.0000 0.1299139767
H   H76       1.0  0.21890  0.38830  0.10410  1.0000 0.1357585145
H   H77       1.0  0.94630  0.56040  0.09330  1.0000 0.1299139767
H   H78       1.0  0.74940  0.50940  0.03280  1.0000 0.1218493462
H   H79       1.0  0.52940  0.48950  0.11040  1.0000 0.1299139767
H   H80       1.0  0.74960  0.43260  0.15780  1.0000 0.1218493462
H   H81       1.0  0.41670  0.40090  0.28530  1.0000 0.1299139767
H   H82       1.0  0.19550  0.45520  0.23610  1.0000 0.1218493462
H   H83       1.0  0.11740  0.33590  0.26980  1.0000 0.1080143585
H   H84       1.0  0.63550  0.32790  0.32090  1.0000 0.1218493462
H   H85       1.0  0.63840  0.13320  0.96250  1.0000 0.1080143585
H   H86       1.0  0.14770  0.18350  0.95170  1.0000 0.1218493462
H   H87       1.0  0.98450  0.16330  0.04570  1.0000 0.1299139767
H   H88       1.0  0.78110  0.11170  0.10410  1.0000 0.1357585145
H   H89       1.0  0.05370  0.93960  0.09330  1.0000 0.1299139767
H   H90       1.0  0.25060  0.99060  0.03280  1.0000 0.1218493462
H   H91       1.0  0.47060  0.01050  0.11040  1.0000 0.1299139767
H   H92       1.0  0.25040  0.06740  0.15780  1.0000 0.1218493462
H   H93       1.0  0.58330  0.09910  0.28530  1.0000 0.1299139767
H   H94       1.0  0.80450  0.04480  0.23610  1.0000 0.1218493462
H   H95       1.0  0.88260  0.16410  0.26980  1.0000 0.1080143585
H   H96       1.0  0.36450  0.17210  0.32090  1.0000 0.1218493462
C   C1        1.0  0.51720  0.63410  0.03170  1.0000 0.1504007419
C   C2        1.0  0.25250  0.66250  0.03822  1.0000 0.1004304801
C   C3        1.0  0.13700  0.58180  0.96585  1.0000 0.1218493462
C   C4        1.0  0.99750  0.61820  0.94480  1.0000 -0.1585607334
C   C5        1.0  0.87680  0.58760  0.90970  1.0000 -0.2073458331
C   C6        1.0  0.89890  0.52100  0.89509  1.0000 0.2484705885
C   C7        1.0  0.03930  0.48445  0.91643  1.0000 -0.1970215804
C   C8        1.0  0.15730  0.51502  0.95224  1.0000 -0.1465661238
C   C9        1.0  0.65740  0.52300  0.83153  1.0000 0.2256179889
C   C10       1.0  0.49350  0.52900  0.85461  1.0000 -0.1868288499
C   C11       1.0  0.36150  0.56250  0.82617  1.0000 -0.1411332125
C   C12       1.0  0.39590  0.58872  0.77387  1.0000 0.1299139767
C   C13       1.0  0.56090  0.58180  0.75021  1.0000 -0.1585607334
C   C14       1.0  0.69260  0.54910  0.77943  1.0000 -0.1868288499
C   C15       1.0  0.00360  0.65700  0.72790  1.0000 0.1504007419
C   C16       1.0  0.26330  0.66220  0.69950  1.0000 0.1080143585
C   C17       1.0  0.48280  0.86590  0.03170  1.0000 0.1504007419
C   C18       1.0  0.74750  0.83750  0.03822  1.0000 0.1004304801
C   C19       1.0  0.86300  0.91820  0.96585  1.0000 0.1218493462
C   C20       1.0  0.00250  0.88180  0.94480  1.0000 -0.1585607334
C   C21       1.0  0.12320  0.91240  0.90970  1.0000 -0.2073458331
C   C22       1.0  0.10110  0.97900  0.89509  1.0000 0.2484705885
C   C23       1.0  0.96070  0.01555  0.91643  1.0000 -0.1970215804
C   C24       1.0  0.84270  0.98498  0.95224  1.0000 -0.1465661238
C   C25       1.0  0.34260  0.97700  0.83153  1.0000 0.2256179889
C   C26       1.0  0.50650  0.97100  0.85461  1.0000 -0.1868288499
C   C27       1.0  0.63850  0.93750  0.82617  1.0000 -0.1411332125
C   C28       1.0  0.60410  0.91128  0.77387  1.0000 0.1299139767
C   C29       1.0  0.43910  0.91820  0.75021  1.0000 -0.1585607334
C   C30       1.0  0.30740  0.95090  0.77943  1.0000 -0.1868288499
C   C31       1.0  0.99640  0.84300  0.72790  1.0000 0.1504007419
C   C32       1.0  0.73670  0.83780  0.69950  1.0000 0.1080143585
C   C33       1.0  0.01720  0.86590  0.53170  1.0000 0.1504007419
C   C34       1.0  0.75250  0.83750  0.53822  1.0000 0.1004304801
C   C35       1.0  0.63700  0.91820  0.46585  1.0000 0.1218493462
C   C36       1.0  0.49750  0.88180  0.44480  1.0000 -0.1585607334
C   C37       1.0  0.37680  0.91240  0.40970  1.0000 -0.2073458331
C   C38       1.0  0.39890  0.97900  0.39509  1.0000 0.2484705885
C   C39       1.0  0.53930  0.01555  0.41643  1.0000 -0.1970215804
C   C40       1.0  0.65730  0.98498  0.45224  1.0000 -0.1465661238
C   C41       1.0  0.15740  0.97700  0.33153  1.0000 0.2256179889
C   C42       1.0  0.99350  0.97100  0.35461  1.0000 -0.1868288499
C   C43       1.0  0.86150  0.93750  0.32617  1.0000 -0.1411332125
C   C44       1.0  0.89590  0.91128  0.27387  1.0000 0.1299139767
C   C45       1.0  0.06090  0.91820  0.25021  1.0000 -0.1585607334
C   C46       1.0  0.19260  0.95090  0.27943  1.0000 -0.1868288499
C   C47       1.0  0.50360  0.84300  0.22790  1.0000 0.1504007419
C   C48       1.0  0.76330  0.83780  0.19950  1.0000 0.1080143585
C   C49       1.0  0.98280  0.63410  0.53170  1.0000 0.1504007419
C   C50       1.0  0.24750  0.66250  0.53822  1.0000 0.1004304801
C   C51       1.0  0.36300  0.58180  0.46585  1.0000 0.1218493462
C   C52       1.0  0.50250  0.61820  0.44480  1.0000 -0.1585607334
C   C53       1.0  0.62320  0.58760  0.40970  1.0000 -0.2073458331
C   C54       1.0  0.60110  0.52100  0.39509  1.0000 0.2484705885
C   C55       1.0  0.46070  0.48445  0.41643  1.0000 -0.1970215804
C   C56       1.0  0.34270  0.51502  0.45224  1.0000 -0.1465661238
C   C57       1.0  0.84260  0.52300  0.33153  1.0000 0.2256179889
C   C58       1.0  0.00650  0.52900  0.35461  1.0000 -0.1868288499
C   C59       1.0  0.13850  0.56250  0.32617  1.0000 -0.1411332125
C   C60       1.0  0.10410  0.58872  0.27387  1.0000 0.1299139767
C   C61       1.0  0.93910  0.58180  0.25021  1.0000 -0.1585607334
C   C62       1.0  0.80740  0.54910  0.27943  1.0000 -0.1868288499
C   C63       1.0  0.49640  0.65700  0.22790  1.0000 0.1504007419
C   C64       1.0  0.23670  0.66220  0.19950  1.0000 0.1080143585
C   C65       1.0  0.98280  0.13410  0.46830  1.0000 0.1504007419
C   C66       1.0  0.24750  0.16250  0.46178  1.0000 0.1004304801
C   C67       1.0  0.36300  0.08180  0.53415  1.0000 0.1218493462
C   C68       1.0  0.50250  0.11820  0.55520  1.0000 -0.1585607334
C   C69       1.0  0.62320  0.08760  0.59030  1.0000 -0.2073458331
C   C70       1.0  0.60110  0.02100  0.60491  1.0000 0.2484705885
C   C71       1.0  0.46070  0.98445  0.58357  1.0000 -0.1970215804
C   C72       1.0  0.34270  0.01502  0.54776  1.0000 -0.1465661238
C   C73       1.0  0.84260  0.02300  0.66847  1.0000 0.2256179889
C   C74       1.0  0.00650  0.02900  0.64539  1.0000 -0.1868288499
C   C75       1.0  0.13850  0.06250  0.67383  1.0000 -0.1411332125
C   C76       1.0  0.10410  0.08872  0.72613  1.0000 0.1299139767
C   C77       1.0  0.93910  0.08180  0.74979  1.0000 -0.1585607334
C   C78       1.0  0.80740  0.04910  0.72057  1.0000 -0.1868288499
C   C79       1.0  0.49640  0.15700  0.77210  1.0000 0.1504007419
C   C80       1.0  0.23670  0.16220  0.80050  1.0000 0.1080143585
C   C81       1.0  0.01720  0.36590  0.46830  1.0000 0.1504007419
C   C82       1.0  0.75250  0.33750  0.46178  1.0000 0.1004304801
C   C83       1.0  0.63700  0.41820  0.53415  1.0000 0.1218493462
C   C84       1.0  0.49750  0.38180  0.55520  1.0000 -0.1585607334
C   C85       1.0  0.37680  0.41240  0.59030  1.0000 -0.2073458331
C   C86       1.0  0.39890  0.47900  0.60491  1.0000 0.2484705885
C   C87       1.0  0.53930  0.51555  0.58357  1.0000 -0.1970215804
C   C88       1.0  0.65730  0.48498  0.54776  1.0000 -0.1465661238
C   C89       1.0  0.15740  0.47700  0.66847  1.0000 0.2256179889
C   C90       1.0  0.99350  0.47100  0.64539  1.0000 -0.1868288499
C   C91       1.0  0.86150  0.43750  0.67383  1.0000 -0.1411332125
C   C92       1.0  0.89590  0.41128  0.72613  1.0000 0.1299139767
C   C93       1.0  0.06090  0.41820  0.74979  1.0000 -0.1585607334
C   C94       1.0  0.19260  0.45090  0.72057  1.0000 -0.1868288499
C   C95       1.0  0.50360  0.34300  0.77210  1.0000 0.1504007419
C   C96       1.0  0.76330  0.33780  0.80050  1.0000 0.1080143585
C   C97       1.0  0.48280  0.36590  0.96830  1.0000 0.1504007419
C   C98       1.0  0.74750  0.33750  0.96178  1.0000 0.1004304801
C   C99       1.0  0.86300  0.41820  0.03415  1.0000 0.1218493462
C   C100      1.0  0.00250  0.38180  0.05520  1.0000 -0.1585607334
C   C101      1.0  0.12320  0.41240  0.09030  1.0000 -0.2073458331
C   C102      1.0  0.10110  0.47900  0.10491  1.0000 0.2484705885
C   C103      1.0  0.96070  0.51555  0.08357  1.0000 -0.1970215804
C   C104      1.0  0.84270  0.48498  0.04776  1.0000 -0.1465661238
C   C105      1.0  0.34260  0.47700  0.16847  1.0000 0.2256179889
C   C106      1.0  0.50650  0.47100  0.14539  1.0000 -0.1868288499
C   C107      1.0  0.63850  0.43750  0.17383  1.0000 -0.1411332125
C   C108      1.0  0.60410  0.41128  0.22613  1.0000 0.1299139767
C   C109      1.0  0.43910  0.41820  0.24979  1.0000 -0.1585607334
C   C110      1.0  0.30740  0.45090  0.22057  1.0000 -0.1868288499
C   C111      1.0  0.99640  0.34300  0.27210  1.0000 0.1504007419
C   C112      1.0  0.73670  0.33780  0.30050  1.0000 0.1080143585
C   C113      1.0  0.51720  0.13410  0.96830  1.0000 0.1504007419
C   C114      1.0  0.25250  0.16250  0.96178  1.0000 0.1004304801
C   C115      1.0  0.13700  0.08180  0.03415  1.0000 0.1218493462
C   C116      1.0  0.99750  0.11820  0.05520  1.0000 -0.1585607334
C   C117      1.0  0.87680  0.08760  0.09030  1.0000 -0.2073458331
C   C118      1.0  0.89890  0.02100  0.10491  1.0000 0.2484705885
C   C119      1.0  0.03930  0.98445  0.08357  1.0000 -0.1970215804
C   C120      1.0  0.15730  0.01502  0.04776  1.0000 -0.1465661238
C   C121      1.0  0.65740  0.02300  0.16847  1.0000 0.2256179889
C   C122      1.0  0.49350  0.02900  0.14539  1.0000 -0.1868288499
C   C123      1.0  0.36150  0.06250  0.17383  1.0000 -0.1411332125
C   C124      1.0  0.39590  0.08872  0.22613  1.0000 0.1299139767
C   C125      1.0  0.56090  0.08180  0.24979  1.0000 -0.1585607334
C   C126      1.0  0.69260  0.04910  0.22057  1.0000 -0.1868288499
C   C127      1.0  0.00360  0.15700  0.27210  1.0000 0.1504007419
C   C128      1.0  0.26330  0.16220  0.30050  1.0000 0.1080143585
N   N1        1.0  0.26680  0.61308  0.00085  1.0000 0.1299139767
N   N2        1.0  0.43860  0.59360  0.99660  1.0000 -0.253514574
N   N3        1.0  0.41000  0.67733  0.05875  1.0000 -0.2894185325
N   N4        1.0  0.25820  0.62307  0.74496  1.0000 0.1299139767
N   N5        1.0  0.08870  0.61930  0.76385  1.0000 -0.2568769874
N   N6        1.0  0.10320  0.68466  0.68776  1.0000 -0.2894185325
N   N7        1.0  0.73320  0.88692  0.00085  1.0000 0.1299139767
N   N8        1.0  0.56140  0.90640  0.99660  1.0000 -0.253514574
N   N9        1.0  0.59000  0.82267  0.05875  1.0000 -0.2894185325
N   N10       1.0  0.74180  0.87693  0.74496  1.0000 0.1299139767
N   N11       1.0  0.91130  0.88070  0.76385  1.0000 -0.2568769874
N   N12       1.0  0.89680  0.81534  0.68776  1.0000 -0.2894185325
N   N13       1.0  0.76680  0.88692  0.50085  1.0000 0.1218493462
N   N14       1.0  0.93860  0.90640  0.49660  1.0000 -0.253514574
N   N15       1.0  0.91000  0.82267  0.55875  1.0000 -0.2894185325
N   N16       1.0  0.75820  0.87693  0.24496  1.0000 0.1299139767
N   N17       1.0  0.58870  0.88070  0.26385  1.0000 -0.2568769874
N   N18       1.0  0.60320  0.81534  0.18776  1.0000 -0.2894185325
N   N19       1.0  0.23320  0.61308  0.50085  1.0000 0.1299139767
N   N20       1.0  0.06140  0.59360  0.49660  1.0000 -0.253514574
N   N21       1.0  0.09000  0.67733  0.55875  1.0000 -0.2894185325
N   N22       1.0  0.24180  0.62307  0.24496  1.0000 0.1299139767
N   N23       1.0  0.41130  0.61930  0.26385  1.0000 -0.2568769874
N   N24       1.0  0.39680  0.68466  0.18776  1.0000 -0.2894185325
N   N25       1.0  0.23320  0.11308  0.49915  1.0000 0.1299139767
N   N26       1.0  0.06140  0.09360  0.50340  1.0000 -0.253514574
N   N27       1.0  0.09000  0.17733  0.44125  1.0000 -0.2894185325
N   N28       1.0  0.24180  0.12307  0.75504  1.0000 0.1299139767
N   N29       1.0  0.41130  0.11930  0.73615  1.0000 -0.2568769874
N   N30       1.0  0.39680  0.18466  0.81224  1.0000 -0.2894185325
N   N31       1.0  0.76680  0.38692  0.49915  1.0000 0.1218493462
N   N32       1.0  0.93860  0.40640  0.50340  1.0000 -0.253514574
N   N33       1.0  0.91000  0.32267  0.44125  1.0000 -0.2894185325
N   N34       1.0  0.75820  0.37693  0.75504  1.0000 0.1299139767
N   N35       1.0  0.58870  0.38070  0.73615  1.0000 -0.2568769874
N   N36       1.0  0.60320  0.31534  0.81224  1.0000 -0.2894185325
N   N37       1.0  0.73320  0.38692  0.99915  1.0000 0.1299139767
N   N38       1.0  0.56140  0.40640  0.00340  1.0000 -0.253514574
N   N39       1.0  0.59000  0.32267  0.94125  1.0000 -0.2894185325
N   N40       1.0  0.74180  0.37693  0.25504  1.0000 0.1299139767
N   N41       1.0  0.91130  0.38070  0.23615  1.0000 -0.2568769874
N   N42       1.0  0.89680  0.31534  0.31224  1.0000 -0.2894185325
N   N43       1.0  0.26680  0.11308  0.99915  1.0000 0.1299139767
N   N44       1.0  0.43860  0.09360  0.00340  1.0000 -0.253514574
N   N45       1.0  0.41000  0.17733  0.94125  1.0000 -0.2894185325
N   N46       1.0  0.25820  0.12307  0.25504  1.0000 0.1299139767
N   N47       1.0  0.08870  0.11930  0.23615  1.0000 -0.2568769874
N   N48       1.0  0.10320  0.18466  0.31224  1.0000 -0.2894185325
Cl  Cl1       1.0  0.79691  0.69315  0.12217  1.0000 -0.5978865112
Cl  Cl2       1.0  0.20309  0.80685  0.12217  1.0000 -0.5978865112
Cl  Cl3       1.0  0.29691  0.80685  0.62217  1.0000 -0.5978865112
Cl  Cl4       1.0  0.70309  0.69315  0.62217  1.0000 -0.5978865112
Cl  Cl5       1.0  0.70309  0.19315  0.37783  1.0000 -0.5978865112
Cl  Cl6       1.0  0.29691  0.30685  0.37783  1.0000 -0.5978865112
Cl  Cl7       1.0  0.20309  0.30685  0.87783  1.0000 -0.5978865112
Cl  Cl8       1.0  0.79691  0.19315  0.87783  1.0000 -0.5978865112
O   O1        1.0  0.78780  0.48641  0.85923  1.0000 -0.2325395504
O   O2        1.0  0.21220  0.01359  0.85923  1.0000 -0.2325395504
O   O3        1.0  0.28780  0.01359  0.35923  1.0000 -0.2325395504
O   O4        1.0  0.71220  0.48641  0.35923  1.0000 -0.2325395504
O   O5        1.0  0.71220  0.98641  0.64077  1.0000 -0.2325395504
O   O6        1.0  0.28780  0.51359  0.64077  1.0000 -0.2325395504
O   O7        1.0  0.21220  0.51359  0.14077  1.0000 -0.2325395504
O   O8        1.0  0.78780  0.98641  0.14077  1.0000 -0.2325395504
