# DDEC6 charges by PACMAN v1.1 (https://github.com/mtap-research/PACMAN-charge/)
data_2018[Eu][nan]3[ASR]4
_chemical_formula_sum              "Eu5 H48 C76 O40"
_cell_length_a       12.4545
_cell_length_b       15.176
_cell_length_c       17.4374
_cell_angle_alpha    98.299
_cell_angle_beta     109.509
_cell_angle_gamma    106.176

_symmetry_space_group_name_H-M    "P 1"
_symmetry_Int_Tables_number       1

loop_
  _symmetry_equiv_pos_as_xyz
  'x, y, z'

loop_
  _atom_site_type_symbol
  _atom_site_label
  _atom_site_symmetry_multiplicity
  _atom_site_fract_x
  _atom_site_fract_y
  _atom_site_fract_z
  _atom_site_occupancy
  _atom_site_charge
Eu  Eu1       1.0  0.65158  0.48044  0.09889  1.0000 2.1169299649
Eu  Eu2       1.0  0.67647  0.78474  0.58038  1.0000 2.0604209469
Eu  Eu3       1.0  0.34842  0.51956  0.90111  1.0000 2.1169299649
Eu  Eu4       1.0  0.32353  0.21526  0.41962  1.0000 2.0604209469
Eu  Eu5       1.0  0.50000  0.00000  0.50000  1.0000 2.0707239674
H   H1        1.0  0.56370  0.27200  0.28860  1.0000 0.1294872156
H   H2        1.0  0.56580  0.00540  0.26420  1.0000 0.1294872156
H   H3        1.0  0.64050  0.15040  0.10290  1.0000 0.1229224544
H   H4        1.0  0.74470  0.02820  0.10070  1.0000 0.091522463
H   H5        1.0  0.61700  0.00450  0.02740  1.0000 0.091522463
H   H6        1.0  0.57320  0.84430  0.01340  1.0000 0.1294872156
H   H7        1.0  0.69960  0.88500  0.00770  1.0000 0.1121023146
H   H8        1.0  0.66980  0.83960  0.15210  1.0000 0.091522463
H   H9        1.0  0.70610  0.77860  0.09070  1.0000 0.0831894593
H   H10       1.0  0.04940  0.99140  0.26490  1.0000 0.1462417224
H   H11       1.0  0.12640  0.78360  0.36360  1.0000 0.1294872156
H   H12       1.0  0.79670  0.72960  0.18470  1.0000 0.1294872156
H   H13       1.0  0.57630  0.69180  0.28680  1.0000 0.1362959908
H   H14       1.0  0.38610  0.86570  0.29070  1.0000 0.1229224544
H   H15       1.0  0.37210  0.72930  0.07000  1.0000 0.1462417224
H   H16       1.0  0.33490  0.95890  0.22400  1.0000 0.0744340511
H   H17       1.0  0.19890  0.88910  0.18150  1.0000 0.091522463
H   H18       1.0  0.30920  0.02170  0.10820  1.0000 0.1121023146
H   H19       1.0  0.21410  0.03300  0.14550  1.0000 0.1229224544
H   H20       1.0  0.11300  0.98150  0.00010  1.0000 0.091522463
H   H21       1.0  0.15970  0.89510  0.99670  1.0000 0.091522463
H   H22       1.0  0.87990  0.74940  0.05710  1.0000 0.1362959908
H   H23       1.0  0.63790  0.65540  0.81580  1.0000 0.1362959908
H   H24       1.0  0.95430  0.87160  0.88180  1.0000 0.1294872156
H   H25       1.0  0.43630  0.72800  0.71140  1.0000 0.1294872156
H   H26       1.0  0.43420  0.99460  0.73580  1.0000 0.1294872156
H   H27       1.0  0.35950  0.84960  0.89710  1.0000 0.1229224544
H   H28       1.0  0.25530  0.97180  0.89930  1.0000 0.091522463
H   H29       1.0  0.38300  0.99550  0.97260  1.0000 0.091522463
H   H30       1.0  0.42680  0.15570  0.98660  1.0000 0.1294872156
H   H31       1.0  0.30040  0.11500  0.99230  1.0000 0.1121023146
H   H32       1.0  0.33020  0.16040  0.84790  1.0000 0.091522463
H   H33       1.0  0.29390  0.22140  0.90930  1.0000 0.0831894593
H   H34       1.0  0.95060  0.00860  0.73510  1.0000 0.1462417224
H   H35       1.0  0.87360  0.21640  0.63640  1.0000 0.1294872156
H   H36       1.0  0.20330  0.27040  0.81530  1.0000 0.1294872156
H   H37       1.0  0.42370  0.30820  0.71320  1.0000 0.1362959908
H   H38       1.0  0.61390  0.13430  0.70930  1.0000 0.1229224544
H   H39       1.0  0.62790  0.27070  0.93000  1.0000 0.1462417224
H   H40       1.0  0.66510  0.04110  0.77600  1.0000 0.0744340511
H   H41       1.0  0.80110  0.11090  0.81850  1.0000 0.091522463
H   H42       1.0  0.69080  0.97830  0.89180  1.0000 0.1121023146
H   H43       1.0  0.78590  0.96700  0.85450  1.0000 0.1229224544
H   H44       1.0  0.88700  0.01850  0.99990  1.0000 0.091522463
H   H45       1.0  0.84030  0.10490  0.00330  1.0000 0.091522463
H   H46       1.0  0.12010  0.25060  0.94290  1.0000 0.1362959908
H   H47       1.0  0.36210  0.34460  0.18420  1.0000 0.1362959908
H   H48       1.0  0.04570  0.12840  0.11820  1.0000 0.1294872156
C   C1        1.0  0.63110  0.31510  0.16470  1.0000 0.5633574294
C   C2        1.0  0.60790  0.22530  0.19310  1.0000 0.0064005086
C   C3        1.0  0.57430  0.22010  0.26070  1.0000 -0.1286943762
C   C4        1.0  0.55640  0.13600  0.28700  1.0000 -0.0179445519
C   C5        1.0  0.57280  0.05990  0.24480  1.0000 -0.2218973745
C   C6        1.0  0.59940  0.06350  0.17460  1.0000 0.2430894838
C   C7        1.0  0.61950  0.14690  0.14910  1.0000 -0.2481589127
C   C8        1.0  0.51840  0.12690  0.35980  1.0000 0.6609752344
C   C9        1.0  0.66130  0.98430  0.07460  1.0000 -0.0179445519
C   C10       1.0  0.65740  0.88490  0.04550  1.0000 -0.2409885062
C   C11       1.0  0.71250  0.84260  0.11450  1.0000 -0.0115980911
C   C12       1.0  0.90980  0.86640  0.21650  1.0000 0.2532470764
C   C13       1.0  0.02500  0.92870  0.26790  1.0000 -0.2218973745
C   C14       1.0  0.10420  0.89730  0.32430  1.0000 -0.0115980911
C   C15       1.0  0.07150  0.80390  0.32630  1.0000 -0.1286943762
C   C16       1.0  0.95840  0.74010  0.27390  1.0000 -0.0115980911
C   C17       1.0  0.87470  0.77160  0.21900  1.0000 -0.2325121521
C   C18       1.0  0.91950  0.63740  0.27400  1.0000 0.6028123663
C   C19       1.0  0.22890  0.96430  0.38480  1.0000 0.6288018988
C   C20       1.0  0.50670  0.62520  0.12200  1.0000 0.6377617286
C   C21       1.0  0.47550  0.69670  0.17010  1.0000 -0.0179445519
C   C22       1.0  0.52280  0.71950  0.25810  1.0000 -0.1233655794
C   C23       1.0  0.49060  0.78320  0.30280  1.0000 -0.0115980911
C   C24       1.0  0.41150  0.82590  0.26060  1.0000 -0.2481589127
C   C25       1.0  0.37030  0.80850  0.17260  1.0000 0.2672989385
C   C26       1.0  0.40150  0.74270  0.12850  1.0000 -0.2142244412
C   C27       1.0  0.54220  0.80640  0.39690  1.0000 0.6609752344
C   C28       1.0  0.26870  0.92220  0.17050  1.0000 -0.0115980911
C   C29       1.0  0.23730  0.98700  0.11610  1.0000 -0.2481589127
C   C30       1.0  0.13510  0.93600  0.03020  1.0000 -0.0115980911
C   C31       1.0  0.93340  0.82240  0.98010  1.0000 0.2532470764
C   C32       1.0  0.85650  0.75400  0.00170  1.0000 -0.2218973745
C   C33       1.0  0.74460  0.69230  0.94090  1.0000 -0.0115980911
C   C34       1.0  0.71220  0.69640  0.85680  1.0000 -0.136612138
C   C35       1.0  0.79180  0.76220  0.83510  1.0000 0.0005689925
C   C36       1.0  0.90240  0.82660  0.89660  1.0000 -0.2674993111
C   C37       1.0  0.65970  0.62320  0.96610  1.0000 0.6377617286
C   C38       1.0  0.75780  0.76620  0.74540  1.0000 0.573945062
C   C39       1.0  0.36890  0.68490  0.83530  1.0000 0.5633574294
C   C40       1.0  0.39210  0.77470  0.80690  1.0000 0.0064005086
C   C41       1.0  0.42570  0.77990  0.73930  1.0000 -0.1286943762
C   C42       1.0  0.44360  0.86400  0.71300  1.0000 -0.0179445519
C   C43       1.0  0.42720  0.94010  0.75520  1.0000 -0.2218973745
C   C44       1.0  0.40060  0.93650  0.82540  1.0000 0.2430894838
C   C45       1.0  0.38050  0.85310  0.85090  1.0000 -0.2481589127
C   C46       1.0  0.48160  0.87310  0.64020  1.0000 0.6609752344
C   C47       1.0  0.33870  0.01570  0.92540  1.0000 -0.0179445519
C   C48       1.0  0.34260  0.11510  0.95450  1.0000 -0.2409885062
C   C49       1.0  0.28750  0.15740  0.88550  1.0000 -0.0115980911
C   C50       1.0  0.09020  0.13360  0.78350  1.0000 0.2532470764
C   C51       1.0  0.97500  0.07130  0.73210  1.0000 -0.2218973745
C   C52       1.0  0.89580  0.10270  0.67570  1.0000 -0.0115980911
C   C53       1.0  0.92850  0.19610  0.67370  1.0000 -0.1286943762
C   C54       1.0  0.04160  0.25990  0.72610  1.0000 -0.0115980911
C   C55       1.0  0.12530  0.22840  0.78100  1.0000 -0.2325121521
C   C56       1.0  0.08050  0.36260  0.72600  1.0000 0.6028123663
C   C57       1.0  0.77110  0.03570  0.61520  1.0000 0.6288018988
C   C58       1.0  0.49330  0.37480  0.87800  1.0000 0.6377617286
C   C59       1.0  0.52450  0.30330  0.82990  1.0000 -0.0179445519
C   C60       1.0  0.47720  0.28050  0.74190  1.0000 -0.1233655794
C   C61       1.0  0.50940  0.21680  0.69720  1.0000 -0.0115980911
C   C62       1.0  0.58850  0.17410  0.73940  1.0000 -0.2481589127
C   C63       1.0  0.62970  0.19150  0.82740  1.0000 0.2672989385
C   C64       1.0  0.59850  0.25730  0.87150  1.0000 -0.2142244412
C   C65       1.0  0.45780  0.19360  0.60310  1.0000 0.6609752344
C   C66       1.0  0.73130  0.07780  0.82950  1.0000 -0.0115980911
C   C67       1.0  0.76270  0.01300  0.88390  1.0000 -0.2481589127
C   C68       1.0  0.86490  0.06400  0.96980  1.0000 -0.0115980911
C   C69       1.0  0.06660  0.17760  0.01990  1.0000 0.2532470764
C   C70       1.0  0.14350  0.24600  0.99830  1.0000 -0.2218973745
C   C71       1.0  0.25540  0.30770  0.05910  1.0000 -0.0115980911
C   C72       1.0  0.28780  0.30360  0.14320  1.0000 -0.136612138
C   C73       1.0  0.20820  0.23780  0.16490  1.0000 0.0005689925
C   C74       1.0  0.09760  0.17340  0.10340  1.0000 -0.2674993111
C   C75       1.0  0.34030  0.37680  0.03390  1.0000 0.6377617286
C   C76       1.0  0.24220  0.23380  0.25460  1.0000 0.573945062
O   O1        1.0  0.62600  0.31020  0.09140  1.0000 -0.6391716136
O   O2        1.0  0.47580  0.18570  0.38360  1.0000 -0.6815711492
O   O3        1.0  0.53150  0.05950  0.39170  1.0000 -0.6815711492
O   O4        1.0  0.60590  0.98160  0.13440  1.0000 -0.1884006196
O   O5        1.0  0.83810  0.90160  0.16020  1.0000 -0.1884006196
O   O6        1.0  0.82370  0.57980  0.22140  1.0000 -0.6206707193
O   O7        1.0  0.99290  0.61490  0.33090  1.0000 -0.4474577739
O   O8        1.0  0.25940  0.04950  0.39040  1.0000 -0.6517619027
O   O9        1.0  0.29610  0.93090  0.42820  1.0000 -0.600879295
O   O10       1.0  0.44750  0.59450  0.04400  1.0000 -0.7059836818
O   O11       1.0  0.59260  0.59990  0.16250  1.0000 -0.6391716136
O   O12       1.0  0.61650  0.77150  0.43310  1.0000 -0.6391716136
O   O13       1.0  0.50840  0.86160  0.43670  1.0000 -0.7290714218
O   O14       1.0  0.30440  0.85460  0.12680  1.0000 -0.1884006196
O   O15       1.0  0.03640  0.88170  0.04580  1.0000 -0.1802276357
O   O16       1.0  0.70490  0.60470  0.03510  1.0000 -0.6815711492
O   O17       1.0  0.55050  0.59050  0.91690  1.0000 -0.6517619027
O   O18       1.0  0.81260  0.83850  0.72930  1.0000 -0.6206707193
O   O19       1.0  0.67330  0.69790  0.68840  1.0000 -0.6264061166
O   O20       1.0  0.65610  0.39340  0.21550  1.0000 -0.600879295
O   O21       1.0  0.37400  0.68980  0.90860  1.0000 -0.6391716136
O   O22       1.0  0.52420  0.81430  0.61640  1.0000 -0.6815711492
O   O23       1.0  0.46850  0.94050  0.60830  1.0000 -0.6815711492
O   O24       1.0  0.39410  0.01840  0.86560  1.0000 -0.1884006196
O   O25       1.0  0.16190  0.09840  0.83980  1.0000 -0.1884006196
O   O26       1.0  0.17630  0.42020  0.77860  1.0000 -0.6206707193
O   O27       1.0  0.00710  0.38510  0.66910  1.0000 -0.4474577739
O   O28       1.0  0.74060  0.95050  0.60960  1.0000 -0.6517619027
O   O29       1.0  0.70390  0.06910  0.57180  1.0000 -0.600879295
O   O30       1.0  0.55250  0.40550  0.95600  1.0000 -0.7059836818
O   O31       1.0  0.40740  0.40010  0.83750  1.0000 -0.6391716136
O   O32       1.0  0.38350  0.22850  0.56690  1.0000 -0.6391716136
O   O33       1.0  0.49160  0.13840  0.56330  1.0000 -0.7290714218
O   O34       1.0  0.69560  0.14540  0.87320  1.0000 -0.1884006196
O   O35       1.0  0.96360  0.11830  0.95420  1.0000 -0.1802276357
O   O36       1.0  0.29510  0.39530  0.96490  1.0000 -0.6815711492
O   O37       1.0  0.44950  0.40950  0.08310  1.0000 -0.6517619027
O   O38       1.0  0.18740  0.16150  0.27070  1.0000 -0.6206707193
O   O39       1.0  0.32670  0.30210  0.31160  1.0000 -0.6264061166
O   O40       1.0  0.34390  0.60660  0.78450  1.0000 -0.600879295
