# DDEC6 charges by PACMAN v1.1 (https://github.com/mtap-research/PACMAN-charge/)
data_2018[Er][nan]3[ASR]3
_chemical_formula_sum              "Er4 H60 C120 O36"
_cell_length_a       31.4937
_cell_length_b       26.5529
_cell_length_c       17.9571
_cell_angle_alpha    87.8568
_cell_angle_beta     57.4082
_cell_angle_gamma    34.7351

_symmetry_space_group_name_H-M    "P 1"
_symmetry_Int_Tables_number       1

loop_
  _symmetry_equiv_pos_as_xyz
  'x, y, z'

loop_
  _atom_site_type_symbol
  _atom_site_label
  _atom_site_symmetry_multiplicity
  _atom_site_fract_x
  _atom_site_fract_y
  _atom_site_fract_z
  _atom_site_occupancy
  _atom_site_charge
Er  Er1       1.0  0.43251  0.43251  0.56749  1.0000 2.1313108675
Er  Er2       1.0  0.68251  0.68251  0.81749  1.0000 2.1313108675
Er  Er3       1.0  0.95754  0.95754  0.04246  1.0000 2.0908883087
Er  Er4       1.0  0.20754  0.20754  0.29246  1.0000 2.0908883087
H   H1        1.0  0.22165  0.59875  0.23601  1.0000 0.1193460036
H   H2        1.0  0.02689  0.75479  0.61361  1.0000 0.1101076824
H   H3        1.0  0.06326  0.60962  0.43772  1.0000 0.1101076824
H   H4        1.0  0.35468  0.36740  0.93874  1.0000 0.1193460036
H   H5        1.0  0.33647  0.42689  0.84027  1.0000 0.1289544612
H   H6        1.0  0.00387  0.83705  0.21779  1.0000 0.1193460036
H   H7        1.0  0.03086  0.77178  0.31282  1.0000 0.1101076824
H   H8        1.0  0.19628  0.43682  0.41694  1.0000 0.1101076824
H   H9        1.0  0.18671  0.35821  0.40891  1.0000 0.1356082283
H   H10       1.0  0.70509  0.81229  0.89391  1.0000 0.1193460036
H   H11       1.0  0.71539  0.88959  0.90443  1.0000 0.1193460036
H   H12       1.0  0.01924  0.91956  0.60028  1.0000 0.1289544612
H   H13       1.0  0.00260  0.95502  0.73956  1.0000 0.1356082283
H   H14       1.0  0.29494  0.55896  0.53294  1.0000 0.1101076824
H   H15       1.0  0.28052  0.54936  0.41954  1.0000 0.1101076824
H   H16       1.0  0.59875  0.22165  0.94359  1.0000 0.1193460036
H   H17       1.0  0.75479  0.02689  0.60471  1.0000 0.1101076824
H   H18       1.0  0.60962  0.06326  0.88940  1.0000 0.1101076824
H   H19       1.0  0.36740  0.35468  0.33918  1.0000 0.1193460036
H   H20       1.0  0.42689  0.33647  0.39637  1.0000 0.1289544612
H   H21       1.0  0.83705  0.00387  0.94129  1.0000 0.1193460036
H   H22       1.0  0.77178  0.03086  0.88454  1.0000 0.1101076824
H   H23       1.0  0.43682  0.19628  0.94996  1.0000 0.1101076824
H   H24       1.0  0.35821  0.18671  0.04617  1.0000 0.1356082283
H   H25       1.0  0.81229  0.70509  0.58871  1.0000 0.1193460036
H   H26       1.0  0.88959  0.71539  0.49059  1.0000 0.1193460036
H   H27       1.0  0.91956  0.01924  0.46092  1.0000 0.1289544612
H   H28       1.0  0.95502  0.00260  0.30282  1.0000 0.1356082283
H   H29       1.0  0.55896  0.29494  0.61316  1.0000 0.1101076824
H   H30       1.0  0.54936  0.28052  0.75058  1.0000 0.1101076824
H   H31       1.0  0.01399  0.30641  0.02835  1.0000 0.1193460036
H   H32       1.0  0.63639  0.64529  0.22311  1.0000 0.1101076824
H   H33       1.0  0.81228  0.36060  0.18674  1.0000 0.1101076824
H   H34       1.0  0.31126  0.91082  0.89532  1.0000 0.1193460036
H   H35       1.0  0.40973  0.85363  0.91353  1.0000 0.1289544612
H   H36       1.0  0.03221  0.30871  0.24613  1.0000 0.1193460036
H   H37       1.0  0.93718  0.36546  0.21914  1.0000 0.1101076824
H   H38       1.0  0.83306  0.30004  0.05372  1.0000 0.1101076824
H   H39       1.0  0.84109  0.20383  0.06329  1.0000 0.1356082283
H   H40       1.0  0.35609  0.66129  0.54491  1.0000 0.1193460036
H   H41       1.0  0.34557  0.75941  0.53461  1.0000 0.1193460036
H   H42       1.0  0.64972  0.78908  0.23076  1.0000 0.1289544612
H   H43       1.0  0.51044  0.94718  0.24740  1.0000 0.1356082283
H   H44       1.0  0.71706  0.63684  0.95506  1.0000 0.1101076824
H   H45       1.0  0.83046  0.49942  0.96948  1.0000 0.1101076824
H   H46       1.0  0.30641  0.01399  0.65125  1.0000 0.1193460036
H   H47       1.0  0.64529  0.63639  0.49521  1.0000 0.1101076824
H   H48       1.0  0.36060  0.81228  0.64038  1.0000 0.1101076824
H   H49       1.0  0.91082  0.31126  0.88260  1.0000 0.1193460036
H   H50       1.0  0.85363  0.40973  0.82311  1.0000 0.1289544612
H   H51       1.0  0.30871  0.03221  0.41295  1.0000 0.1193460036
H   H52       1.0  0.36546  0.93718  0.47822  1.0000 0.1101076824
H   H53       1.0  0.30004  0.83306  0.81318  1.0000 0.1101076824
H   H54       1.0  0.20383  0.84109  0.89179  1.0000 0.1356082283
H   H55       1.0  0.66129  0.35609  0.43771  1.0000 0.1193460036
H   H56       1.0  0.75941  0.34557  0.36041  1.0000 0.1193460036
H   H57       1.0  0.78908  0.64972  0.33044  1.0000 0.1289544612
H   H58       1.0  0.94718  0.51044  0.29498  1.0000 0.1356082283
H   H59       1.0  0.63684  0.71706  0.69104  1.0000 0.1101076824
H   H60       1.0  0.49942  0.83046  0.70064  1.0000 0.1101076824
C   C1        1.0  0.14980  0.59600  0.31780  1.0000 0.0100118457
C   C2        1.0  0.17370  0.62190  0.31330  1.0000 -0.1406333256
C   C3        1.0  0.12520  0.68440  0.42720  1.0000 0.0100118457
C   C4        1.0  0.05820  0.71420  0.53900  1.0000 -0.1406333256
C   C5        1.0  0.03810  0.68330  0.53930  1.0000 -0.0017565524
C   C6        1.0  0.07960  0.62760  0.43480  1.0000 -0.1201345997
C   C7        1.0  0.19660  0.52940  0.20200  1.0000 0.352921801
C   C8        1.0  0.19210  0.56630  0.13630  1.0000 0.0172909763
C   C9        1.0  0.28490  0.46150  0.99450  1.0000 -0.1201345997
C   C10       1.0  0.27290  0.49810  0.93650  1.0000 -0.0983233968
C   C11       1.0  0.16740  0.63920  0.02000  1.0000 -0.0580447778
C   C12       1.0  0.07650  0.74110  0.15990  1.0000 -0.082205867
C   C13       1.0  0.08990  0.70410  0.21970  1.0000 -0.1107276283
C   C14       1.0  0.15570  0.67710  0.95890  1.0000 0.6611817651
C   C15       1.0  0.95090  0.73230  0.67210  1.0000 0.3336778157
C   C16       1.0  0.09840  0.51220  0.51100  1.0000 -0.1323247045
C   C17       1.0  0.09090  0.46630  0.50710  1.0000 -0.0898504364
C   C18       1.0  0.95090  0.67710  0.66370  1.0000 -0.0171501272
C   C19       1.0  0.94530  0.57790  0.64490  1.0000 -0.0340049387
C   C20       1.0  0.80160  0.73860  0.79880  1.0000 -0.0983233968
C   C21       1.0  0.80890  0.78430  0.80390  1.0000 -0.1107276283
C   C22       1.0  0.93880  0.52940  0.63540  1.0000 0.6526854508
C   C23       1.0  0.13770  0.72910  0.43190  1.0000 0.352921801
C   C24       1.0  0.14500  0.73540  0.50520  1.0000 0.0100118457
C   C25       1.0  0.06750  0.85250  0.59370  1.0000 -0.0983233968
C   C26       1.0  0.06150  0.87070  0.67310  1.0000 -0.0898504364
C   C27       1.0  0.14480  0.76120  0.65380  1.0000 -0.0084323541
C   C28       1.0  0.23250  0.63730  0.55430  1.0000 -0.0898504364
C   C29       1.0  0.22640  0.62980  0.48260  1.0000 -0.1201345997
C   C30       1.0  0.12310  0.79190  0.75410  1.0000 0.6211809091
C   C31       1.0  0.59600  0.14980  0.93640  1.0000 0.0100118457
C   C32       1.0  0.62190  0.17370  0.89110  1.0000 -0.1406333256
C   C33       1.0  0.68440  0.12520  0.76320  1.0000 0.0100118457
C   C34       1.0  0.71420  0.05820  0.68860  1.0000 -0.1406333256
C   C35       1.0  0.68330  0.03810  0.73930  1.0000 -0.0017565524
C   C36       1.0  0.62760  0.07960  0.85800  1.0000 -0.1201345997
C   C37       1.0  0.52940  0.19660  0.07200  1.0000 0.352921801
C   C38       1.0  0.56630  0.19210  0.10530  1.0000 0.0172909763
C   C39       1.0  0.46150  0.28490  0.25910  1.0000 -0.1201345997
C   C40       1.0  0.49810  0.27290  0.29250  1.0000 -0.0983233968
C   C41       1.0  0.63920  0.16740  0.17340  1.0000 -0.0580447778
C   C42       1.0  0.74110  0.07650  0.02250  1.0000 -0.082205867
C   C43       1.0  0.70410  0.08990  0.98630  1.0000 -0.1107276283
C   C44       1.0  0.67710  0.15570  0.20830  1.0000 0.6611817651
C   C45       1.0  0.73230  0.95090  0.64470  1.0000 0.3336778157
C   C46       1.0  0.51220  0.09840  0.87840  1.0000 -0.1323247045
C   C47       1.0  0.46630  0.09090  0.93570  1.0000 -0.0898504364
C   C48       1.0  0.67710  0.95090  0.70830  1.0000 -0.0171501272
C   C49       1.0  0.57790  0.94530  0.83190  1.0000 -0.0350412294
C   C50       1.0  0.73860  0.80160  0.66100  1.0000 -0.0898504364
C   C51       1.0  0.78430  0.80890  0.60290  1.0000 -0.1107276283
C   C52       1.0  0.52940  0.93880  0.89640  1.0000 0.6526854508
C   C53       1.0  0.72910  0.13770  0.70130  1.0000 0.352921801
C   C54       1.0  0.73540  0.14500  0.61440  1.0000 0.0100118457
C   C55       1.0  0.85250  0.06750  0.48630  1.0000 -0.0983233968
C   C56       1.0  0.87070  0.06150  0.39470  1.0000 -0.0898504364
C   C57       1.0  0.76120  0.14480  0.44020  1.0000 -0.0084323541
C   C58       1.0  0.63730  0.23250  0.57590  1.0000 -0.0898504364
C   C59       1.0  0.62980  0.22640  0.66120  1.0000 -0.1201345997
C   C60       1.0  0.79190  0.12310  0.33090  1.0000 0.6211809091
C   C61       1.0  0.93220  0.31360  0.10020  1.0000 0.0100118457
C   C62       1.0  0.93670  0.35890  0.07630  1.0000 -0.1406333256
C   C63       1.0  0.82280  0.48680  0.12480  1.0000 0.0100118457
C   C64       1.0  0.71100  0.56140  0.19180  1.0000 -0.1406333256
C   C65       1.0  0.71070  0.51070  0.21190  1.0000 -0.0017565524
C   C66       1.0  0.81520  0.39200  0.17040  1.0000 -0.1201345997
C   C67       1.0  0.04800  0.17800  0.05340  1.0000 0.352921801
C   C68       1.0  0.11370  0.14470  0.05790  1.0000 0.0172909763
C   C69       1.0  0.25550  0.99090  0.96510  1.0000 -0.1201345997
C   C70       1.0  0.31350  0.95750  0.97710  1.0000 -0.0983233968
C   C71       1.0  0.23000  0.07660  0.08260  1.0000 -0.0580447778
C   C72       1.0  0.09010  0.22750  0.17350  1.0000 -0.082205867
C   C73       1.0  0.03030  0.26370  0.16010  1.0000 -0.1107276283
C   C74       1.0  0.29110  0.04170  0.09430  1.0000 0.6611817651
C   C75       1.0  0.57790  0.60530  0.29910  1.0000 0.3336778157
C   C76       1.0  0.73900  0.37160  0.15160  1.0000 -0.1323247045
C   C77       1.0  0.74290  0.31430  0.15910  1.0000 -0.0898504364
C   C78       1.0  0.58630  0.54170  0.29910  1.0000 -0.0171501272
C   C79       1.0  0.60510  0.41810  0.30470  1.0000 -0.0340049387
C   C80       1.0  0.45120  0.58900  0.44840  1.0000 -0.0898504364
C   C81       1.0  0.44610  0.64710  0.44110  1.0000 -0.1107276283
C   C82       1.0  0.61460  0.35360  0.31120  1.0000 0.6526854508
C   C83       1.0  0.81810  0.54870  0.11230  1.0000 0.352921801
C   C84       1.0  0.74480  0.63560  0.10500  1.0000 0.0100118457
C   C85       1.0  0.65630  0.76370  0.18250  1.0000 -0.0983233968
C   C86       1.0  0.57690  0.85530  0.18850  1.0000 -0.0898504364
C   C87       1.0  0.59620  0.80980  0.10520  1.0000 -0.0084323541
C   C88       1.0  0.69570  0.67410  0.01750  1.0000 -0.0898504364
C   C89       1.0  0.76740  0.58880  0.02360  1.0000 -0.1201345997
C   C90       1.0  0.49590  0.91910  0.12690  1.0000 0.6211809091
C   C91       1.0  0.31360  0.93220  0.65400  1.0000 0.0100118457
C   C92       1.0  0.35890  0.93670  0.62810  1.0000 -0.1406333256
C   C93       1.0  0.48680  0.82280  0.56560  1.0000 0.0100118457
C   C94       1.0  0.56140  0.71100  0.53580  1.0000 -0.1406333256
C   C95       1.0  0.51070  0.71070  0.56670  1.0000 -0.0017565524
C   C96       1.0  0.39200  0.81520  0.62240  1.0000 -0.1201345997
C   C97       1.0  0.17800  0.04800  0.72060  1.0000 0.352921801
C   C98       1.0  0.14470  0.11370  0.68370  1.0000 0.0172909763
C   C99       1.0  0.99090  0.25550  0.78850  1.0000 -0.1201345997
C   C100      1.0  0.95750  0.31350  0.75190  1.0000 -0.0983233968
C   C101      1.0  0.07660  0.23000  0.61080  1.0000 -0.0580447778
C   C102      1.0  0.22750  0.09010  0.50890  1.0000 -0.082205867
C   C103      1.0  0.26370  0.03030  0.54590  1.0000 -0.1107276283
C   C104      1.0  0.04170  0.29110  0.57290  1.0000 0.6611817651
C   C105      1.0  0.60530  0.57790  0.51770  1.0000 0.3336778157
C   C106      1.0  0.37160  0.73900  0.73780  1.0000 -0.1323247045
C   C107      1.0  0.31430  0.74290  0.78370  1.0000 -0.0898504364
C   C108      1.0  0.54170  0.58630  0.57290  1.0000 -0.0171501272
C   C109      1.0  0.41810  0.60510  0.67210  1.0000 -0.0340049387
C   C110      1.0  0.58900  0.45120  0.51140  1.0000 -0.0898504364
C   C111      1.0  0.64710  0.44610  0.46570  1.0000 -0.1107276283
C   C112      1.0  0.35360  0.61460  0.72060  1.0000 0.6526854508
C   C113      1.0  0.54870  0.81810  0.52090  1.0000 0.352921801
C   C114      1.0  0.63560  0.74480  0.51460  1.0000 0.0100118457
C   C115      1.0  0.76370  0.65630  0.39750  1.0000 -0.0983233968
C   C116      1.0  0.85530  0.57690  0.37930  1.0000 -0.0898504364
C   C117      1.0  0.80980  0.59620  0.48880  1.0000 -0.0084323541
C   C118      1.0  0.67410  0.69570  0.61270  1.0000 -0.0898504364
C   C119      1.0  0.58880  0.76740  0.62020  1.0000 -0.1201345997
C   C120      1.0  0.91910  0.49590  0.45810  1.0000 0.6211809091
O   O1        1.0  0.23182  0.45122  0.16858  1.0000 -0.3766888358
O   O2        1.0  0.27857  0.55637  0.80423  1.0000 -0.7529492505
O   O3        1.0  0.02410  0.82610  0.05750  1.0000 -0.6534902282
O   O4        1.0  0.87719  0.81979  0.79081  1.0000 -0.372058896
O   O5        1.0  0.06736  0.39136  0.48824  1.0000 -0.7052254803
O   O6        1.0  0.81356  0.62396  0.76124  1.0000 -0.6188573368
O   O7        1.0  0.13910  0.75750  0.37910  1.0000 -0.3495816119
O   O8        1.0  0.18018  0.70802  0.75398  1.0000 -0.7336585351
O   O9        1.0  0.03325  0.91385  0.85235  1.0000 -0.6015160806
O   O10       1.0  0.45122  0.23182  0.14838  1.0000 -0.3766888358
O   O11       1.0  0.55637  0.27857  0.36083  1.0000 -0.7529492505
O   O12       1.0  0.82610  0.02410  0.09230  1.0000 -0.6534902282
O   O13       1.0  0.81979  0.87719  0.51221  1.0000 -0.372058896
O   O14       1.0  0.39136  0.06736  0.05304  1.0000 -0.7052254803
O   O15       1.0  0.62396  0.81356  0.80124  1.0000 -0.6188573368
O   O16       1.0  0.75750  0.13910  0.72430  1.0000 -0.3495816119
O   O17       1.0  0.70802  0.18018  0.35782  1.0000 -0.7336585351
O   O18       1.0  0.91385  0.03325  0.20055  1.0000 -0.6015160806
O   O19       1.0  0.08142  0.10162  0.01818  1.0000 -0.3766888358
O   O20       1.0  0.44577  0.88917  0.97143  1.0000 -0.7529492505
O   O21       1.0  0.19250  0.15770  0.22590  1.0000 -0.6534902282
O   O22       1.0  0.45919  0.73779  0.37281  1.0000 -0.372058896
O   O23       1.0  0.76176  0.19696  0.18264  1.0000 -0.7052254803
O   O24       1.0  0.48876  0.44876  0.43644  1.0000 -0.6188573368
O   O25       1.0  0.87090  0.52570  0.11090  1.0000 -0.3495816119
O   O26       1.0  0.49602  0.89218  0.06982  1.0000 -0.7336585351
O   O27       1.0  0.39765  0.04945  0.21675  1.0000 -0.6015160806
O   O28       1.0  0.10162  0.08142  0.79878  1.0000 -0.3766888358
O   O29       1.0  0.88917  0.44577  0.69363  1.0000 -0.7529492505
O   O30       1.0  0.15770  0.19250  0.42390  1.0000 -0.6534902282
O   O31       1.0  0.73779  0.45919  0.43021  1.0000 -0.372058896
O   O32       1.0  0.19696  0.76176  0.85864  1.0000 -0.7052254803
O   O33       1.0  0.44876  0.48876  0.62604  1.0000 -0.6188573368
O   O34       1.0  0.52570  0.87090  0.49250  1.0000 -0.3495816119
O   O35       1.0  0.89218  0.49602  0.54198  1.0000 -0.7336585351
O   O36       1.0  0.04945  0.39765  0.33615  1.0000 -0.6015160806
