# DDEC6 charges by PACMAN v1.1 (https://github.com/mtap-research/PACMAN-charge/)
data_2018[Yb][nan]3[ASR]1
_chemical_formula_sum              "Yb4 H60 C120 O36"
_cell_length_a       31.1754
_cell_length_b       26.2266
_cell_length_c       17.8649
_cell_angle_alpha    87.8544
_cell_angle_beta     57.2109
_cell_angle_gamma    34.9347

_symmetry_space_group_name_H-M    "P 1"
_symmetry_Int_Tables_number       1

loop_
  _symmetry_equiv_pos_as_xyz
  'x, y, z'

loop_
  _atom_site_type_symbol
  _atom_site_label
  _atom_site_symmetry_multiplicity
  _atom_site_fract_x
  _atom_site_fract_y
  _atom_site_fract_z
  _atom_site_occupancy
  _atom_site_charge
Yb  Yb1       1.0  0.96963  0.96963  0.03037  1.0000 2.1454427834
Yb  Yb2       1.0  0.21963  0.21963  0.28037  1.0000 2.1454427834
Yb  Yb3       1.0  0.44417  0.44417  0.55583  1.0000 2.0883732434
Yb  Yb4       1.0  0.69417  0.69417  0.80583  1.0000 2.0883732434
H   H1        1.0  0.63627  0.34407  0.81931  1.0000 0.121218815
H   H2        1.0  0.01218  0.00672  0.62806  1.0000 0.1111702682
H   H3        1.0  0.84554  0.28436  0.65448  1.0000 0.1111702682
H   H4        1.0  0.99688  0.86460  0.62380  1.0000 0.1288495883
H   H5        1.0  0.14676  0.69700  0.59738  1.0000 0.1288495883
H   H6        1.0  0.93367  0.01601  0.89183  1.0000 0.121218815
H   H7        1.0  0.80917  0.16213  0.89393  1.0000 0.1111702682
H   H8        1.0  0.81833  0.35207  0.79615  1.0000 0.121218815
H   H9        1.0  0.80926  0.44880  0.78746  1.0000 0.1358520235
H   H10       1.0  0.29360  0.99244  0.30420  1.0000 0.1288495883
H   H11       1.0  0.30982  0.88718  0.30824  1.0000 0.121218815
H   H12       1.0  0.34401  0.73821  0.94774  1.0000 0.121218815
H   H13       1.0  0.71029  0.28905  0.63260  1.0000 0.1111702682
H   H14       1.0  0.61674  0.34242  0.60688  1.0000 0.121218815
H   H15       1.0  0.24702  0.79522  0.92514  1.0000 0.1288495883
H   H16       1.0  0.34407  0.63627  0.20035  1.0000 0.121218815
H   H17       1.0  0.00672  0.01218  0.35304  1.0000 0.1111702682
H   H18       1.0  0.28436  0.84554  0.21562  1.0000 0.1111702682
H   H19       1.0  0.86460  0.99688  0.51472  1.0000 0.1288495883
H   H20       1.0  0.69700  0.14676  0.55886  1.0000 0.1288495883
H   H21       1.0  0.01601  0.93367  0.15849  1.0000 0.121218815
H   H22       1.0  0.16213  0.80917  0.13477  1.0000 0.1111702682
H   H23       1.0  0.35207  0.81833  0.03345  1.0000 0.121218815
H   H24       1.0  0.44880  0.80926  0.95448  1.0000 0.1358520235
H   H25       1.0  0.99244  0.29360  0.40976  1.0000 0.1288495883
H   H26       1.0  0.88718  0.30982  0.49476  1.0000 0.121218815
H   H27       1.0  0.73821  0.34401  0.97004  1.0000 0.121218815
H   H28       1.0  0.28904  0.71030  0.36806  1.0000 0.1111702682
H   H29       1.0  0.34242  0.61674  0.43396  1.0000 0.121218815
H   H30       1.0  0.79522  0.24702  0.03262  1.0000 0.1288495883
H   H31       1.0  0.43069  0.04965  0.61373  1.0000 0.121218815
H   H32       1.0  0.62194  0.89696  0.23782  1.0000 0.1111702682
H   H33       1.0  0.59552  0.03438  0.40446  1.0000 0.1111702682
H   H34       1.0  0.62620  0.73528  0.25312  1.0000 0.1288495883
H   H35       1.0  0.65262  0.69114  0.10324  1.0000 0.1288495883
H   H36       1.0  0.35817  0.09151  0.31633  1.0000 0.121218815
H   H37       1.0  0.35607  0.11523  0.44083  1.0000 0.1111702682
H   H38       1.0  0.45385  0.21655  0.43167  1.0000 0.1288495883
H   H39       1.0  0.46254  0.29552  0.44074  1.0000 0.1358520235
H   H40       1.0  0.94580  0.84024  0.95640  1.0000 0.1288495883
H   H41       1.0  0.94176  0.75524  0.94018  1.0000 0.121218815
H   H42       1.0  0.30226  0.27996  0.90599  1.0000 0.121218815
H   H43       1.0  0.61740  0.88194  0.53970  1.0000 0.1111702682
H   H44       1.0  0.64312  0.81604  0.63326  1.0000 0.121218815
H   H45       1.0  0.32486  0.21738  0.00298  1.0000 0.1288495883
H   H46       1.0  0.04965  0.43069  0.90593  1.0000 0.121218815
H   H47       1.0  0.89696  0.62194  0.24328  1.0000 0.1111702682
H   H48       1.0  0.03438  0.59552  0.96564  1.0000 0.1111702682
H   H49       1.0  0.73528  0.62620  0.38540  1.0000 0.1288495883
H   H50       1.0  0.69114  0.65262  0.55300  1.0000 0.1288495883
H   H51       1.0  0.09151  0.35817  0.23399  1.0000 0.121218815
H   H52       1.0  0.11523  0.35607  0.08787  1.0000 0.1111702682
H   H53       1.0  0.21655  0.45385  0.89793  1.0000 0.121218815
H   H54       1.0  0.29552  0.46254  0.80120  1.0000 0.1358520235
H   H55       1.0  0.84024  0.94580  0.25756  1.0000 0.1288495883
H   H56       1.0  0.75524  0.94176  0.36282  1.0000 0.121218815
H   H57       1.0  0.27996  0.30226  0.51179  1.0000 0.121218815
H   H58       1.0  0.88194  0.61740  0.96096  1.0000 0.1111702682
H   H59       1.0  0.81604  0.64312  0.90758  1.0000 0.121218815
H   H60       1.0  0.21738  0.32486  0.45478  1.0000 0.1288495883
C   C1        1.0  0.71270  0.29250  0.77350  1.0000 -0.1375498403
C   C2        1.0  0.82600  0.16560  0.72640  1.0000 -0.0023951782
C   C3        1.0  0.93820  0.09100  0.65900  1.0000 -0.1280516179
C   C4        1.0  0.94750  0.13410  0.63390  1.0000 -0.0386643707
C   C5        1.0  0.83900  0.25640  0.67560  1.0000 -0.1109822931
C   C6        1.0  0.71930  0.33870  0.74930  1.0000 -0.0023951782
C   C7        1.0  0.82870  0.10630  0.73970  1.0000 0.3572457801
C   C8        1.0  0.89970  0.01990  0.75010  1.0000 0.010001792
C   C9        1.0  0.99060  0.89020  0.67180  1.0000 -0.0983576164
C   C10       1.0  0.07650  0.79210  0.65990  1.0000 -0.0905780052
C   C11       1.0  0.05230  0.84310  0.74690  1.0000 -0.0023951782
C   C12       1.0  0.95140  0.98120  0.83280  1.0000 -0.0905780052
C   C13       1.0  0.87540  0.07020  0.83580  1.0000 -0.1280516179
C   C14       1.0  0.15590  0.73130  0.72270  1.0000 0.6207290287
C   C15       1.0  0.07480  0.04340  0.54860  1.0000 0.293404005
C   C16       1.0  0.06330  0.11130  0.55270  1.0000 0.010001792
C   C17       1.0  0.91380  0.27920  0.69680  1.0000 -0.1280516179
C   C18       1.0  0.90840  0.33720  0.69080  1.0000 -0.0782717173
C   C19       1.0  0.04760  0.23180  0.54420  1.0000 -0.0568928313
C   C20       1.0  0.19940  0.06320  0.40080  1.0000 -0.0905780052
C   C21       1.0  0.20870  0.00030  0.40370  1.0000 -0.1164305587
C   C22       1.0  0.03670  0.29730  0.53690  1.0000 0.6495160456
C   C23       1.0  0.60560  0.47060  0.79540  1.0000 0.3510005172
C   C24       1.0  0.39970  0.65790  0.87770  1.0000 -0.1164305587
C   C25       1.0  0.61730  0.39110  0.69090  1.0000 -0.1109822931
C   C26       1.0  0.56060  0.42340  0.67660  1.0000 -0.0905780052
C   C27       1.0  0.42330  0.57330  0.76470  1.0000 -0.0386643707
C   C28       1.0  0.34050  0.69290  0.86590  1.0000 -0.0983576164
C   C29       1.0  0.54010  0.50510  0.78670  1.0000 0.0243452416
C   C30       1.0  0.36060  0.60880  0.75320  1.0000 0.6742959465
C   C31       1.0  0.29250  0.71270  0.22130  1.0000 -0.1375498403
C   C32       1.0  0.16560  0.82600  0.28200  1.0000 -0.0023951782
C   C33       1.0  0.09100  0.93820  0.31180  1.0000 -0.1280516179
C   C34       1.0  0.13410  0.94750  0.28450  1.0000 -0.0386643707
C   C35       1.0  0.25640  0.83900  0.22900  1.0000 -0.1164305587
C   C36       1.0  0.33870  0.71930  0.19270  1.0000 -0.0023951782
C   C37       1.0  0.10630  0.82870  0.32530  1.0000 0.3572457801
C   C38       1.0  0.01990  0.89970  0.33030  1.0000 0.010001792
C   C39       1.0  0.89020  0.99060  0.44740  1.0000 -0.0983576164
C   C40       1.0  0.79210  0.07650  0.47150  1.0000 -0.0905780052
C   C41       1.0  0.84310  0.05230  0.35770  1.0000 -0.0023951782
C   C42       1.0  0.98120  0.95140  0.23460  1.0000 -0.0905780052
C   C43       1.0  0.07020  0.87540  0.21860  1.0000 -0.1280516179
C   C44       1.0  0.73130  0.15590  0.39010  1.0000 0.6207290287
C   C45       1.0  0.04340  0.07480  0.33320  1.0000 0.293404005
C   C46       1.0  0.11130  0.06330  0.27270  1.0000 0.010001792
C   C47       1.0  0.27920  0.91380  0.11020  1.0000 -0.1280516179
C   C48       1.0  0.33720  0.90840  0.06360  1.0000 -0.0782717173
C   C49       1.0  0.23180  0.04760  0.17640  1.0000 -0.0568928313
C   C50       1.0  0.06320  0.19940  0.33660  1.0000 -0.0905780052
C   C51       1.0  0.00030  0.20870  0.38730  1.0000 -0.1164305587
C   C52       1.0  0.29730  0.03670  0.12910  1.0000 0.6495160456
C   C53       1.0  0.47060  0.60560  0.12840  1.0000 0.3510005172
C   C54       1.0  0.65790  0.39970  0.06470  1.0000 -0.1164305587
C   C55       1.0  0.39110  0.61730  0.30070  1.0000 -0.1109822931
C   C56       1.0  0.42340  0.56060  0.33940  1.0000 -0.0905780052
C   C57       1.0  0.57330  0.42330  0.23870  1.0000 -0.0386643707
C   C58       1.0  0.69290  0.34050  0.10070  1.0000 -0.0983576164
C   C59       1.0  0.50510  0.54010  0.16810  1.0000 0.0243452416
C   C60       1.0  0.60880  0.36060  0.27740  1.0000 0.6742959465
C   C61       1.0  0.47650  0.02870  0.53730  1.0000 -0.1375498403
C   C62       1.0  0.52360  0.96800  0.42400  1.0000 -0.0023951782
C   C63       1.0  0.59100  0.93820  0.31180  1.0000 -0.1280516179
C   C64       1.0  0.61610  0.96550  0.30250  1.0000 -0.0386643707
C   C65       1.0  0.57440  0.02100  0.41100  1.0000 -0.1109822931
C   C66       1.0  0.50070  0.05730  0.53070  1.0000 -0.0023951782
C   C67       1.0  0.51030  0.92470  0.42130  1.0000 0.3572457801
C   C68       1.0  0.49990  0.91970  0.35030  1.0000 0.010001792
C   C69       1.0  0.57820  0.80260  0.25940  1.0000 -0.0983576164
C   C70       1.0  0.59010  0.77850  0.17350  1.0000 -0.0905780052
C   C71       1.0  0.50310  0.89230  0.19770  1.0000 -0.0023951782
C   C72       1.0  0.41720  0.01540  0.29860  1.0000 -0.0905780052
C   C73       1.0  0.41420  0.03140  0.37460  1.0000 -0.1280516179
C   C74       1.0  0.52730  0.85990  0.09410  1.0000 0.6207290287
C   C75       1.0  0.70140  0.91680  0.17520  1.0000 0.293404005
C   C76       1.0  0.69730  0.97730  0.18670  1.0000 0.010001792
C   C77       1.0  0.55320  0.13980  0.33620  1.0000 -0.1280516179
C   C78       1.0  0.55920  0.18640  0.34160  1.0000 -0.0782717173
C   C79       1.0  0.70580  0.07360  0.20240  1.0000 -0.0568928313
C   C80       1.0  0.84920  0.91340  0.05060  1.0000 -0.0905780052
C   C81       1.0  0.84630  0.86270  0.04130  1.0000 -0.1164305587
C   C82       1.0  0.71310  0.12090  0.21330  1.0000 0.6495160456
C   C83       1.0  0.45460  0.12160  0.64440  1.0000 0.3510005172
C   C84       1.0  0.37230  0.18530  0.85030  1.0000 -0.1164305587
C   C85       1.0  0.55910  0.94930  0.63270  1.0000 -0.1109822931
C   C86       1.0  0.57340  0.91060  0.68940  1.0000 -0.0905780052
C   C87       1.0  0.48530  0.01130  0.82670  1.0000 -0.0386643707
C   C88       1.0  0.38410  0.14930  0.90950  1.0000 -0.0983576164
C   C89       1.0  0.46330  0.08190  0.70990  1.0000 0.0243452416
C   C90       1.0  0.49680  0.97260  0.88940  1.0000 0.6742959465
C   C91       1.0  0.02870  0.47650  0.95750  1.0000 -0.1375498403
C   C92       1.0  0.96800  0.52360  0.08440  1.0000 -0.0023951782
C   C93       1.0  0.93820  0.59100  0.15900  1.0000 -0.1280516179
C   C94       1.0  0.96550  0.61610  0.11590  1.0000 -0.0386643707
C   C95       1.0  0.02100  0.57440  0.99360  1.0000 -0.1164305587
C   C96       1.0  0.05730  0.50070  0.91130  1.0000 -0.0023951782
C   C97       1.0  0.92470  0.51030  0.14370  1.0000 0.3572457801
C   C98       1.0  0.91970  0.49990  0.23010  1.0000 0.010001792
C   C99       1.0  0.80260  0.57820  0.35980  1.0000 -0.0983576164
C   C100      1.0  0.77850  0.59010  0.45790  1.0000 -0.0905780052
C   C101      1.0  0.89230  0.50310  0.40690  1.0000 -0.0023951782
C   C102      1.0  0.01540  0.41720  0.26880  1.0000 -0.0905780052
C   C103      1.0  0.03140  0.41420  0.17980  1.0000 -0.1280516179
C   C104      1.0  0.85990  0.52730  0.51870  1.0000 0.6207290287
C   C105      1.0  0.91680  0.70140  0.20660  1.0000 0.293404005
C   C106      1.0  0.97730  0.69730  0.13870  1.0000 0.010001792
C   C107      1.0  0.13980  0.55320  0.97080  1.0000 -0.1280516179
C   C108      1.0  0.18640  0.55920  0.91280  1.0000 -0.0782717173
C   C109      1.0  0.07360  0.70580  0.01820  1.0000 -0.0568928313
C   C110      1.0  0.91340  0.84920  0.18680  1.0000 -0.0905780052
C   C111      1.0  0.86270  0.84630  0.24970  1.0000 -0.1164305587
C   C112      1.0  0.12090  0.71310  0.95270  1.0000 0.6495160456
C   C113      1.0  0.12160  0.45460  0.77940  1.0000 0.3510005172
C   C114      1.0  0.18530  0.37230  0.59210  1.0000 -0.1164305587
C   C115      1.0  0.94930  0.55910  0.85890  1.0000 -0.1109822931
C   C116      1.0  0.91060  0.57340  0.82660  1.0000 -0.0905780052
C   C117      1.0  0.01130  0.48530  0.67670  1.0000 -0.0386643707
C   C118      1.0  0.14930  0.38410  0.55710  1.0000 -0.0983576164
C   C119      1.0  0.08190  0.46330  0.74490  1.0000 0.0243452416
C   C120      1.0  0.97260  0.49680  0.64120  1.0000 0.6742959465
O   O1        1.0  0.77710  0.12670  0.74130  1.0000 -0.3348376457
O   O2        1.0  0.25450  0.60010  0.63310  1.0000 -0.6105130319
O   O3        1.0  0.15420  0.76160  0.78060  1.0000 -0.7589985584
O   O4        1.0  0.19700  0.90860  0.47260  1.0000 -0.375917234
O   O5        1.0  0.88660  0.45760  0.66700  1.0000 -0.7137793157
O   O6        1.0  0.15820  0.20840  0.41580  1.0000 -0.5997448866
O   O7        1.0  0.57460  0.54540  0.82660  1.0000 -0.3699884121
O   O8        1.0  0.46180  0.49060  0.62020  1.0000 -0.653842688
O   O9        1.0  0.20520  0.76280  0.87780  1.0000 -0.7544520502
O   O10       1.0  0.12670  0.77710  0.35490  1.0000 -0.3382586642
O   O11       1.0  0.60010  0.25450  0.51230  1.0000 -0.6105130319
O   O12       1.0  0.76160  0.15420  0.30360  1.0000 -0.7589985584
O   O13       1.0  0.90860  0.19700  0.42180  1.0000 -0.375917234
O   O14       1.0  0.45760  0.88660  0.98880  1.0000 -0.7137793157
O   O15       1.0  0.20840  0.15820  0.21760  1.0000 -0.5997448866
O   O16       1.0  0.54540  0.57460  0.05340  1.0000 -0.3699884121
O   O17       1.0  0.49060  0.46180  0.42740  1.0000 -0.653842688
O   O18       1.0  0.76280  0.20520  0.15420  1.0000 -0.7544520502
O   O19       1.0  0.50870  0.89510  0.47290  1.0000 -0.3382586642
O   O20       1.0  0.61690  0.73770  0.99550  1.0000 -0.6105130319
O   O21       1.0  0.46940  0.94640  0.09580  1.0000 -0.7589985584
O   O22       1.0  0.77740  0.82820  0.05300  1.0000 -0.375917234
O   O23       1.0  0.58300  0.26120  0.36340  1.0000 -0.7137793157
O   O24       1.0  0.83420  0.03240  0.09180  1.0000 -0.5997448866
O   O25       1.0  0.42340  0.19660  0.67540  1.0000 -0.3699884121
O   O26       1.0  0.62980  0.82260  0.78820  1.0000 -0.653842688
O   O27       1.0  0.37220  0.09580  0.04480  1.0000 -0.7544520502
O   O28       1.0  0.89510  0.50870  0.12330  1.0000 -0.3382586642
O   O29       1.0  0.73770  0.61690  0.64990  1.0000 -0.6105130319
O   O30       1.0  0.94640  0.46940  0.48840  1.0000 -0.7589985584
O   O31       1.0  0.82820  0.77740  0.34140  1.0000 -0.375917234
O   O32       1.0  0.26120  0.58300  0.79240  1.0000 -0.7137793157
O   O33       1.0  0.03240  0.83420  0.04160  1.0000 -0.5997448866
O   O34       1.0  0.19660  0.42340  0.70460  1.0000 -0.3699884121
O   O35       1.0  0.82260  0.62980  0.75940  1.0000 -0.653842688
O   O36       1.0  0.09580  0.37220  0.48720  1.0000 -0.7544520502
