# DDEC6 charges by PACMAN v1.1 (https://github.com/mtap-research/PACMAN-charge/)
data_2018[Cu][nan]2[ASR]2
_chemical_formula_sum              "Cu8 H104 C148 N40 O8"
_cell_length_a       21.185
_cell_length_b       9.808
_cell_length_c       25.521
_cell_angle_alpha    90
_cell_angle_beta     90.92
_cell_angle_gamma    90

_symmetry_space_group_name_H-M    "P 1"
_symmetry_Int_Tables_number       1

loop_
  _symmetry_equiv_pos_as_xyz
  'x, y, z'

loop_
  _atom_site_type_symbol
  _atom_site_label
  _atom_site_symmetry_multiplicity
  _atom_site_fract_x
  _atom_site_fract_y
  _atom_site_fract_z
  _atom_site_occupancy
  _atom_site_charge
Cu  Cu1       1.0  0.87375  0.61281  0.25704  1.0000 0.4305199113
Cu  Cu2       1.0  0.88633  0.12314  0.75614  1.0000 0.1884382493
Cu  Cu3       1.0  0.12625  0.38719  0.74296  1.0000 0.4305199113
Cu  Cu4       1.0  0.11367  0.87686  0.24386  1.0000 0.1848393805
Cu  Cu5       1.0  0.62625  0.61281  0.74296  1.0000 0.435811115
Cu  Cu6       1.0  0.61367  0.12314  0.24386  1.0000 0.1848393805
Cu  Cu7       1.0  0.37375  0.38719  0.25704  1.0000 0.4305199113
Cu  Cu8       1.0  0.38633  0.87686  0.75614  1.0000 0.1884382493
H   H1        1.0  0.83805  0.91989  0.49862  1.0000 0.2718237913
H   H2        1.0  0.83316  0.91368  0.58618  1.0000 0.1288639768
H   H3        1.0  0.83697  0.32284  0.58262  1.0000 0.1390184061
H   H4        1.0  0.76918  0.41268  0.41128  1.0000 0.1390184061
H   H5        1.0  0.85229  0.92467  0.67520  1.0000 0.1022050668
H   H6        1.0  0.90227  0.91956  0.84148  1.0000 0.1022050668
H   H7        1.0  0.98874  0.40154  0.10798  1.0000 0.1390184061
H   H8        1.0  0.94147  0.88101  0.24127  1.0000 0.0909392146
H   H9        1.0  0.95491  0.04089  0.17733  1.0000 0.1288639768
H   H10       1.0  0.91590  0.91010  0.93059  1.0000 0.1390184061
H   H11       1.0  0.92675  0.31227  0.84130  1.0000 0.1093120004
H   H12       1.0  0.83305  0.19331  0.15198  1.0000 0.1390184061
H   H13       1.0  0.85338  0.32144  0.67165  1.0000 0.1093120004
H   H14       1.0  0.90088  0.81393  0.43349  1.0000 0.1288639768
H   H15       1.0  0.93887  0.31700  0.93100  1.0000 0.1390184061
H   H16       1.0  0.91411  0.18863  0.35856  1.0000 0.1390184061
H   H17       1.0  0.79051  0.03811  0.33725  1.0000 0.1288639768
H   H18       1.0  0.84831  0.81421  0.08057  1.0000 0.1488293237
H   H19       1.0  0.83350  0.66373  0.14753  1.0000 0.1093120004
H   H20       1.0  0.97054  0.54883  0.17594  1.0000 0.1093120004
H   H21       1.0  0.81776  0.35614  0.21643  1.0000 0.1022050668
H   H22       1.0  0.91795  0.66792  0.36542  1.0000 0.1093120004
H   H23       1.0  0.80355  0.87593  0.27418  1.0000 0.1022050668
H   H24       1.0  0.78187  0.55519  0.34213  1.0000 0.1022050668
H   H25       1.0  0.92849  0.34943  0.29498  1.0000 0.1160524819
H   H26       1.0  0.01859  0.75066  0.31027  1.0000 0.0802467555
H   H27       1.0  0.16195  0.08011  0.50138  1.0000 0.2718237913
H   H28       1.0  0.16684  0.08632  0.41382  1.0000 0.1288639768
H   H29       1.0  0.16303  0.67716  0.41738  1.0000 0.1390184061
H   H30       1.0  0.23082  0.58732  0.58872  1.0000 0.1390184061
H   H31       1.0  0.14771  0.07533  0.32480  1.0000 0.1022050668
H   H32       1.0  0.09773  0.08044  0.15852  1.0000 0.1022050668
H   H33       1.0  0.01126  0.59846  0.89202  1.0000 0.1390184061
H   H34       1.0  0.05853  0.11899  0.75873  1.0000 0.0909392146
H   H35       1.0  0.04509  0.95911  0.82267  1.0000 0.1288639768
H   H36       1.0  0.08410  0.08990  0.06941  1.0000 0.1390184061
H   H37       1.0  0.07325  0.68773  0.15870  1.0000 0.1093120004
H   H38       1.0  0.16695  0.80669  0.84802  1.0000 0.1390184061
H   H39       1.0  0.14662  0.67856  0.32835  1.0000 0.1093120004
H   H40       1.0  0.09912  0.18607  0.56651  1.0000 0.1288639768
H   H41       1.0  0.06113  0.68300  0.06900  1.0000 0.1390184061
H   H42       1.0  0.08589  0.81137  0.64144  1.0000 0.1390184061
H   H43       1.0  0.20949  0.96189  0.66275  1.0000 0.1288639768
H   H44       1.0  0.15169  0.18579  0.91943  1.0000 0.1488293237
H   H45       1.0  0.16650  0.33627  0.85247  1.0000 0.1093120004
H   H46       1.0  0.02946  0.45117  0.82406  1.0000 0.1093120004
H   H47       1.0  0.18224  0.64386  0.78357  1.0000 0.1022050668
H   H48       1.0  0.08205  0.33208  0.63458  1.0000 0.1093120004
H   H49       1.0  0.19645  0.12407  0.72582  1.0000 0.1093120004
H   H50       1.0  0.21813  0.44481  0.65787  1.0000 0.1022050668
H   H51       1.0  0.07151  0.65057  0.70502  1.0000 0.1160524819
H   H52       1.0  0.98141  0.24934  0.68973  1.0000 0.0802467555
H   H53       1.0  0.66195  0.91989  0.50138  1.0000 0.2718237913
H   H54       1.0  0.66684  0.91368  0.41382  1.0000 0.1288639768
H   H55       1.0  0.66303  0.32284  0.41738  1.0000 0.1390184061
H   H56       1.0  0.73082  0.41268  0.58872  1.0000 0.1390184061
H   H57       1.0  0.64771  0.92467  0.32480  1.0000 0.1022050668
H   H58       1.0  0.59773  0.91956  0.15852  1.0000 0.1022050668
H   H59       1.0  0.51126  0.40154  0.89202  1.0000 0.1390184061
H   H60       1.0  0.55853  0.88101  0.75873  1.0000 0.0909392146
H   H61       1.0  0.54509  0.04089  0.82267  1.0000 0.1288639768
H   H62       1.0  0.58410  0.91010  0.06941  1.0000 0.1390184061
H   H63       1.0  0.57325  0.31227  0.15870  1.0000 0.1093120004
H   H64       1.0  0.66695  0.19331  0.84802  1.0000 0.1390184061
H   H65       1.0  0.64662  0.32144  0.32835  1.0000 0.1093120004
H   H66       1.0  0.59912  0.81393  0.56651  1.0000 0.1288639768
H   H67       1.0  0.56113  0.31700  0.06900  1.0000 0.1390184061
H   H68       1.0  0.58589  0.18863  0.64144  1.0000 0.1390184061
H   H69       1.0  0.70949  0.03811  0.66275  1.0000 0.1288639768
H   H70       1.0  0.65169  0.81421  0.91943  1.0000 0.1488293237
H   H71       1.0  0.66650  0.66373  0.85247  1.0000 0.1093120004
H   H72       1.0  0.52946  0.54883  0.82406  1.0000 0.1093120004
H   H73       1.0  0.68224  0.35614  0.78357  1.0000 0.1022050668
H   H74       1.0  0.58205  0.66792  0.63458  1.0000 0.1093120004
H   H75       1.0  0.69645  0.87593  0.72582  1.0000 0.1022050668
H   H76       1.0  0.71813  0.55519  0.65787  1.0000 0.1022050668
H   H77       1.0  0.57151  0.34943  0.70502  1.0000 0.1160524819
H   H78       1.0  0.48141  0.75066  0.68973  1.0000 0.0802467555
H   H79       1.0  0.33805  0.08011  0.49862  1.0000 0.2718237913
H   H80       1.0  0.33316  0.08632  0.58618  1.0000 0.1288639768
H   H81       1.0  0.33697  0.67716  0.58262  1.0000 0.1390184061
H   H82       1.0  0.26918  0.58732  0.41128  1.0000 0.1390184061
H   H83       1.0  0.35229  0.07533  0.67520  1.0000 0.1022050668
H   H84       1.0  0.40227  0.08044  0.84148  1.0000 0.1022050668
H   H85       1.0  0.48874  0.59846  0.10798  1.0000 0.1390184061
H   H86       1.0  0.44147  0.11899  0.24127  1.0000 0.0909392146
H   H87       1.0  0.45491  0.95911  0.17733  1.0000 0.1288639768
H   H88       1.0  0.41590  0.08990  0.93059  1.0000 0.1390184061
H   H89       1.0  0.42675  0.68773  0.84130  1.0000 0.1093120004
H   H90       1.0  0.33305  0.80669  0.15198  1.0000 0.1390184061
H   H91       1.0  0.35338  0.67856  0.67165  1.0000 0.1093120004
H   H92       1.0  0.40088  0.18607  0.43349  1.0000 0.1288639768
H   H93       1.0  0.43887  0.68300  0.93100  1.0000 0.1390184061
H   H94       1.0  0.41411  0.81137  0.35856  1.0000 0.1390184061
H   H95       1.0  0.29051  0.96189  0.33725  1.0000 0.1288639768
H   H96       1.0  0.34831  0.18579  0.08057  1.0000 0.1488293237
H   H97       1.0  0.33350  0.33627  0.14753  1.0000 0.1093120004
H   H98       1.0  0.47054  0.45117  0.17594  1.0000 0.1093120004
H   H99       1.0  0.31776  0.64386  0.21643  1.0000 0.1022050668
H   H100      1.0  0.41795  0.33208  0.36542  1.0000 0.1093120004
H   H101      1.0  0.30355  0.12407  0.27418  1.0000 0.1093120004
H   H102      1.0  0.28187  0.44481  0.34213  1.0000 0.1022050668
H   H103      1.0  0.42849  0.65057  0.29498  1.0000 0.1160524819
H   H104      1.0  0.51859  0.24934  0.31027  1.0000 0.0802467555
C   C1        1.0  0.84410  0.94510  0.39350  1.0000 0.0909392146
C   C2        1.0  0.90440  0.94400  0.12040  1.0000 0.1093120004
C   C3        1.0  0.83670  0.04260  0.43620  1.0000 0.0239905599
C   C4        1.0  0.83840  0.99770  0.60260  1.0000 -0.2216693745
C   C5        1.0  0.84030  0.24060  0.60060  1.0000 -0.1806555935
C   C6        1.0  0.80060  0.39560  0.38710  1.0000 -0.1935372003
C   C7        1.0  0.83280  0.18320  0.43600  1.0000 0.0511600469
C   C8        1.0  0.83930  0.28010  0.39240  1.0000 0.1093120004
C   C9        1.0  0.91440  0.04260  0.07790  1.0000 0.0511600469
C   C10       1.0  0.84970  0.00530  0.65610  1.0000 0.0511600469
C   C11       1.0  0.90910  0.00030  0.85980  1.0000 0.0323870541
C   C12       1.0  0.95440  0.38900  0.12970  1.0000 -0.2041225094
C   C13       1.0  0.92080  0.18400  0.07880  1.0000 0.0604066066
C   C14       1.0  0.83060  0.11620  0.51620  1.0000 0.2642868287
C   C15       1.0  0.83490  0.11750  0.57390  1.0000 0.0709609105
C   C16       1.0  0.92660  0.11270  0.94110  1.0000 0.0909392146
C   C17       1.0  0.92610  0.11240  0.99850  1.0000 0.2904223926
C   C18       1.0  0.92170  0.86820  0.20880  1.0000 0.0604066066
C   C19       1.0  0.91250  0.27840  0.12260  1.0000 0.1093120004
C   C20       1.0  0.93090  0.96340  0.17025  1.0000 -0.2097823871
C   C21       1.0  0.91700  0.99360  0.91340  1.0000 -0.1604251885
C   C22       1.0  0.92310  0.23100  0.85980  1.0000 0.0604066066
C   C23       1.0  0.86110  0.26570  0.15580  1.0000 -0.2097823871
C   C24       1.0  0.85070  0.23880  0.65390  1.0000 0.0323870541
C   C25       1.0  0.88190  0.83040  0.40100  1.0000 -0.2097823871
C   C26       1.0  0.93100  0.23520  0.91370  1.0000 -0.1806555935
C   C27       1.0  0.88740  0.26380  0.35650  1.0000 -0.2041225094
C   C28       1.0  0.81550  0.96210  0.34418  1.0000 -0.2097823871
C   C29       1.0  0.86750  0.83020  0.11300  1.0000 -0.1744079464
C   C30       1.0  0.85870  0.74000  0.15340  1.0000 0.0393433912
C   C31       1.0  0.94230  0.47750  0.17020  1.0000 0.0604066066
C   C32       1.0  0.85250  0.36400  0.19480  1.0000 0.0604066066
C   C33       1.0  0.89110  0.74190  0.36020  1.0000 0.0511600469
C   C34       1.0  0.82470  0.86600  0.30620  1.0000 0.0393433912
C   C35       1.0  0.80950  0.48220  0.34640  1.0000 0.0239905599
C   C36       1.0  0.89510  0.35960  0.31780  1.0000 0.0709609105
C   C37       1.0  0.02220  0.68930  0.28270  1.0000 0.3971448518
C   C38       1.0  0.15590  0.05490  0.60650  1.0000 0.0909392146
C   C39       1.0  0.09560  0.05600  0.87960  1.0000 0.1093120004
C   C40       1.0  0.16330  0.95740  0.56380  1.0000 0.0239905599
C   C41       1.0  0.16160  0.00230  0.39740  1.0000 -0.2216693745
C   C42       1.0  0.15970  0.75940  0.39940  1.0000 -0.1806555935
C   C43       1.0  0.19940  0.60440  0.61290  1.0000 -0.1935372003
C   C44       1.0  0.16720  0.81680  0.56400  1.0000 0.0511600469
C   C45       1.0  0.16070  0.71990  0.60760  1.0000 0.1093120004
C   C46       1.0  0.08560  0.95740  0.92210  1.0000 0.0393433912
C   C47       1.0  0.15030  0.99470  0.34390  1.0000 0.0511600469
C   C48       1.0  0.09090  0.99970  0.14020  1.0000 0.0323870541
C   C49       1.0  0.04560  0.61100  0.87030  1.0000 -0.2097823871
C   C50       1.0  0.07920  0.81600  0.92120  1.0000 0.0604066066
C   C51       1.0  0.16940  0.88380  0.48380  1.0000 0.2642868287
C   C52       1.0  0.16510  0.88250  0.42610  1.0000 0.0709609105
C   C53       1.0  0.07340  0.88730  0.05890  1.0000 0.0909392146
C   C54       1.0  0.07390  0.88760  0.00150  1.0000 0.2904223926
C   C55       1.0  0.07830  0.13180  0.79120  1.0000 0.0604066066
C   C56       1.0  0.08750  0.72160  0.87740  1.0000 0.1093120004
C   C57       1.0  0.06910  0.03660  0.82975  1.0000 -0.2097823871
C   C58       1.0  0.08300  0.00640  0.08660  1.0000 -0.1604251885
C   C59       1.0  0.07690  0.76900  0.14020  1.0000 0.0604066066
C   C60       1.0  0.13890  0.73430  0.84420  1.0000 -0.2097823871
C   C61       1.0  0.14930  0.76120  0.34610  1.0000 0.0323870541
C   C62       1.0  0.11810  0.16960  0.59900  1.0000 -0.2097823871
C   C63       1.0  0.06900  0.76480  0.08630  1.0000 -0.1806555935
C   C64       1.0  0.11260  0.73620  0.64350  1.0000 -0.2041225094
C   C65       1.0  0.18450  0.03790  0.65582  1.0000 -0.2097823871
C   C66       1.0  0.13250  0.16980  0.88700  1.0000 -0.1744079464
C   C67       1.0  0.14130  0.26000  0.84660  1.0000 0.0393433912
C   C68       1.0  0.05770  0.52250  0.82980  1.0000 0.0604066066
C   C69       1.0  0.14750  0.63600  0.80520  1.0000 0.0604066066
C   C70       1.0  0.10890  0.25810  0.63980  1.0000 0.0511600469
C   C71       1.0  0.17530  0.13400  0.69380  1.0000 0.0393433912
C   C72       1.0  0.19050  0.51780  0.65360  1.0000 0.0239905599
C   C73       1.0  0.10490  0.64040  0.68220  1.0000 0.0709609105
C   C74       1.0  0.97780  0.31070  0.71730  1.0000 0.3971448518
C   C75       1.0  0.65590  0.94510  0.60650  1.0000 0.0909392146
C   C76       1.0  0.59560  0.94400  0.87960  1.0000 0.1093120004
C   C77       1.0  0.66330  0.04260  0.56380  1.0000 0.0239905599
C   C78       1.0  0.66160  0.99770  0.39740  1.0000 -0.2216693745
C   C79       1.0  0.65970  0.24060  0.39940  1.0000 -0.1806555935
C   C80       1.0  0.69940  0.39560  0.61290  1.0000 -0.1935372003
C   C81       1.0  0.66720  0.18320  0.56400  1.0000 0.0511600469
C   C82       1.0  0.66070  0.28010  0.60760  1.0000 0.1093120004
C   C83       1.0  0.58560  0.04260  0.92210  1.0000 0.0511600469
C   C84       1.0  0.65030  0.00530  0.34390  1.0000 0.0511600469
C   C85       1.0  0.59090  0.00030  0.14020  1.0000 0.0323870541
C   C86       1.0  0.54560  0.38900  0.87030  1.0000 -0.2041225094
C   C87       1.0  0.57920  0.18400  0.92120  1.0000 0.0604066066
C   C88       1.0  0.66940  0.11620  0.48380  1.0000 0.2642868287
C   C89       1.0  0.66510  0.11750  0.42610  1.0000 0.0709609105
C   C90       1.0  0.57340  0.11270  0.05890  1.0000 0.0909392146
C   C91       1.0  0.57390  0.11240  0.00150  1.0000 0.2904223926
C   C92       1.0  0.57830  0.86820  0.79120  1.0000 0.0604066066
C   C93       1.0  0.58750  0.27840  0.87740  1.0000 0.1093120004
C   C94       1.0  0.56910  0.96340  0.82975  1.0000 -0.2097823871
C   C95       1.0  0.58300  0.99360  0.08660  1.0000 -0.1604251885
C   C96       1.0  0.57690  0.23100  0.14020  1.0000 0.0604066066
C   C97       1.0  0.63890  0.26570  0.84420  1.0000 -0.2097823871
C   C98       1.0  0.64930  0.23880  0.34610  1.0000 0.0323870541
C   C99       1.0  0.61810  0.83040  0.59900  1.0000 -0.2097823871
C   C100      1.0  0.56900  0.23520  0.08630  1.0000 -0.1806555935
C   C101      1.0  0.61260  0.26380  0.64350  1.0000 -0.2041225094
C   C102      1.0  0.68450  0.96210  0.65582  1.0000 -0.2097823871
C   C103      1.0  0.63250  0.83020  0.88700  1.0000 -0.1744079464
C   C104      1.0  0.64130  0.74000  0.84660  1.0000 0.0393433912
C   C105      1.0  0.55770  0.47750  0.82980  1.0000 0.0604066066
C   C106      1.0  0.64750  0.36400  0.80520  1.0000 0.0604066066
C   C107      1.0  0.60890  0.74190  0.63980  1.0000 0.0511600469
C   C108      1.0  0.67530  0.86600  0.69380  1.0000 0.0393433912
C   C109      1.0  0.69050  0.48220  0.65360  1.0000 0.0239905599
C   C110      1.0  0.60490  0.35960  0.68220  1.0000 0.0709609105
C   C111      1.0  0.47780  0.68930  0.71730  1.0000 0.3971448518
C   C112      1.0  0.34410  0.05490  0.39350  1.0000 0.0909392146
C   C113      1.0  0.40440  0.05600  0.12040  1.0000 0.1093120004
C   C114      1.0  0.33670  0.95740  0.43620  1.0000 0.0239905599
C   C115      1.0  0.33840  0.00230  0.60260  1.0000 -0.2216693745
C   C116      1.0  0.34030  0.75940  0.60060  1.0000 -0.1806555935
C   C117      1.0  0.30060  0.60440  0.38710  1.0000 -0.1935372003
C   C118      1.0  0.33280  0.81680  0.43600  1.0000 0.0511600469
C   C119      1.0  0.33930  0.71990  0.39240  1.0000 0.1093120004
C   C120      1.0  0.41440  0.95740  0.07790  1.0000 0.0511600469
C   C121      1.0  0.34970  0.99470  0.65610  1.0000 0.0511600469
C   C122      1.0  0.40910  0.99970  0.85980  1.0000 0.0323870541
C   C123      1.0  0.45440  0.61100  0.12970  1.0000 -0.2041225094
C   C124      1.0  0.42080  0.81600  0.07880  1.0000 0.0604066066
C   C125      1.0  0.33060  0.88380  0.51620  1.0000 0.2642868287
C   C126      1.0  0.33490  0.88250  0.57390  1.0000 0.0709609105
C   C127      1.0  0.42660  0.88730  0.94110  1.0000 0.0909392146
C   C128      1.0  0.42610  0.88760  0.99850  1.0000 0.2904223926
C   C129      1.0  0.42170  0.13180  0.20880  1.0000 0.0604066066
C   C130      1.0  0.41250  0.72160  0.12260  1.0000 0.1093120004
C   C131      1.0  0.43090  0.03660  0.17025  1.0000 -0.2097823871
C   C132      1.0  0.41700  0.00640  0.91340  1.0000 -0.1604251885
C   C133      1.0  0.42310  0.76900  0.85980  1.0000 0.0604066066
C   C134      1.0  0.36110  0.73430  0.15580  1.0000 -0.2097823871
C   C135      1.0  0.35070  0.76120  0.65390  1.0000 0.0323870541
C   C136      1.0  0.38190  0.16960  0.40100  1.0000 -0.2097823871
C   C137      1.0  0.43100  0.76480  0.91370  1.0000 -0.1806555935
C   C138      1.0  0.38740  0.73620  0.35650  1.0000 -0.2041225094
C   C139      1.0  0.31550  0.03790  0.34418  1.0000 -0.2097823871
C   C140      1.0  0.36750  0.16980  0.11300  1.0000 -0.1744079464
C   C141      1.0  0.35870  0.26000  0.15340  1.0000 0.0393433912
C   C142      1.0  0.44230  0.52250  0.17020  1.0000 0.0604066066
C   C143      1.0  0.35250  0.63600  0.19480  1.0000 0.0604066066
C   C144      1.0  0.39110  0.25810  0.36020  1.0000 0.0511600469
C   C145      1.0  0.32470  0.13400  0.30620  1.0000 0.0393433912
C   C146      1.0  0.30950  0.51780  0.34640  1.0000 0.0239905599
C   C147      1.0  0.39510  0.64040  0.31780  1.0000 0.0709609105
C   C148      1.0  0.52220  0.31070  0.28270  1.0000 0.3971448518
N   N1        1.0  0.85710  0.12280  0.68133  1.0000 -0.2216693745
N   N2        1.0  0.91070  0.11780  0.83257  1.0000 -0.2216693745
N   N3        1.0  0.88570  0.75800  0.20172  1.0000 -0.2307008807
N   N4        1.0  0.82840  0.22860  0.48618  1.0000 -0.3705272697
N   N5        1.0  0.92830  0.22640  0.02846  1.0000 -0.4090450355
N   N6        1.0  0.91730  0.99880  0.02685  1.0000 -0.4090450355
N   N7        1.0  0.83580  0.00220  0.48715  1.0000 -0.3024636381
N   N8        1.0  0.89180  0.46790  0.20246  1.0000 -0.2307008807
N   N9        1.0  0.86300  0.75740  0.31316  1.0000 -0.2307008807
N   N10       1.0  0.85660  0.46720  0.31158  1.0000 -0.2307008807
N   N11       1.0  0.14290  0.87720  0.31867  1.0000 -0.2216693745
N   N12       1.0  0.08930  0.88220  0.16743  1.0000 -0.2216693745
N   N13       1.0  0.11430  0.24200  0.79828  1.0000 -0.2307008807
N   N14       1.0  0.17160  0.77140  0.51382  1.0000 -0.3705272697
N   N15       1.0  0.07170  0.77360  0.97154  1.0000 -0.4090450355
N   N16       1.0  0.08270  0.00120  0.97315  1.0000 -0.4090450355
N   N17       1.0  0.16420  0.99780  0.51285  1.0000 -0.3024636381
N   N18       1.0  0.10820  0.53210  0.79754  1.0000 -0.2307008807
N   N19       1.0  0.13700  0.24260  0.68684  1.0000 -0.2307008807
N   N20       1.0  0.14340  0.53280  0.68842  1.0000 -0.2307008807
N   N21       1.0  0.64290  0.12280  0.31867  1.0000 -0.2216693745
N   N22       1.0  0.58930  0.11780  0.16743  1.0000 -0.2216693745
N   N23       1.0  0.61430  0.75800  0.79828  1.0000 -0.2307008807
N   N24       1.0  0.67160  0.22860  0.51382  1.0000 -0.3705272697
N   N25       1.0  0.57170  0.22640  0.97154  1.0000 -0.4090450355
N   N26       1.0  0.58270  0.99880  0.97315  1.0000 -0.4090450355
N   N27       1.0  0.66420  0.00220  0.51285  1.0000 -0.3024636381
N   N28       1.0  0.60820  0.46790  0.79754  1.0000 -0.2307008807
N   N29       1.0  0.63700  0.75740  0.68684  1.0000 -0.2307008807
N   N30       1.0  0.64340  0.46720  0.68842  1.0000 -0.2307008807
N   N31       1.0  0.35710  0.87720  0.68133  1.0000 -0.2216693745
N   N32       1.0  0.41070  0.88220  0.83257  1.0000 -0.2216693745
N   N33       1.0  0.38570  0.24200  0.20172  1.0000 -0.2307008807
N   N34       1.0  0.32840  0.77140  0.48618  1.0000 -0.3705272697
N   N35       1.0  0.42830  0.77360  0.02846  1.0000 -0.4090450355
N   N36       1.0  0.41730  0.00120  0.02685  1.0000 -0.4090450355
N   N37       1.0  0.33580  0.99780  0.48715  1.0000 -0.3024636381
N   N38       1.0  0.39180  0.53210  0.20246  1.0000 -0.2307008807
N   N39       1.0  0.36300  0.24260  0.31316  1.0000 -0.2307008807
N   N40       1.0  0.35660  0.53280  0.31158  1.0000 -0.2307008807
O   O1        1.0  0.06611  0.70950  0.25028  1.0000 -0.463115903
O   O2        1.0  0.98421  0.59500  0.28039  1.0000 -0.4943684512
O   O3        1.0  0.93389  0.29050  0.74972  1.0000 -0.463115903
O   O4        1.0  0.01579  0.40500  0.71961  1.0000 -0.4943684512
O   O5        1.0  0.43389  0.70950  0.74972  1.0000 -0.463115903
O   O6        1.0  0.51579  0.59500  0.71961  1.0000 -0.4943684512
O   O7        1.0  0.56611  0.29050  0.25028  1.0000 -0.463115903
O   O8        1.0  0.48421  0.40500  0.28039  1.0000 -0.4943684512
