# DDEC6 charges by PACMAN v1.1 (https://github.com/mtap-research/PACMAN-charge/)
data_2018[Cu][nan]3[ASR]12
_chemical_formula_sum              "Cu12 H62 C138 O60"
_cell_length_a       20.9241
_cell_length_b       20.9241
_cell_length_c       18.383
_cell_angle_alpha    90
_cell_angle_beta     90
_cell_angle_gamma    106.308

_symmetry_space_group_name_H-M    "P 1"
_symmetry_Int_Tables_number       1

loop_
  _symmetry_equiv_pos_as_xyz
  'x, y, z'

loop_
  _atom_site_type_symbol
  _atom_site_label
  _atom_site_symmetry_multiplicity
  _atom_site_fract_x
  _atom_site_fract_y
  _atom_site_fract_z
  _atom_site_occupancy
  _atom_site_charge
Cu  Cu1       1.0  0.00139  0.55729  0.41175  1.0000 0.8702310077
Cu  Cu2       1.0  0.95902  0.44406  0.33770  1.0000 0.8504682384
Cu  Cu3       1.0  0.99861  0.44271  0.91175  1.0000 0.8702310077
Cu  Cu4       1.0  0.04098  0.55594  0.83770  1.0000 0.8504682384
Cu  Cu5       1.0  0.55729  0.00139  0.91175  1.0000 0.8702310077
Cu  Cu6       1.0  0.44406  0.95902  0.83770  1.0000 0.8504682384
Cu  Cu7       1.0  0.44271  0.99861  0.41175  1.0000 0.8702310077
Cu  Cu8       1.0  0.55594  0.04098  0.33770  1.0000 0.859292706
Cu  Cu9       1.0  0.35819  0.64181  0.61157  1.0000 0.859292706
Cu  Cu10      1.0  0.43708  0.56292  0.59788  1.0000 0.8504682384
Cu  Cu11      1.0  0.64181  0.35819  0.11157  1.0000 0.859292706
Cu  Cu12      1.0  0.56292  0.43708  0.09788  1.0000 0.8504682384
H   H1        1.0  0.53630  0.22650  0.26750  1.0000 0.1378802857
H   H2        1.0  0.40380  0.33080  0.25300  1.0000 0.1269434418
H   H3        1.0  0.36820  0.16940  0.37760  1.0000 0.1269434418
H   H4        1.0  0.33250  0.35610  0.35580  1.0000 0.113066127
H   H5        1.0  0.13720  0.27080  0.37980  1.0000 0.1208068561
H   H6        1.0  0.25650  0.15990  0.31650  1.0000 0.1208068561
H   H7        1.0  0.31310  0.42170  0.44870  1.0000 0.1208068561
H   H8        1.0  0.20190  0.54810  0.46780  1.0000 0.1378802857
H   H9        1.0  0.13360  0.37880  0.35640  1.0000 0.1208068561
H   H10       1.0  0.07590  0.69010  0.23630  1.0000 0.1208068561
H   H11       1.0  0.10850  0.69030  0.02050  1.0000 0.1269434418
H   H12       1.0  0.02390  0.51950  0.12370  1.0000 0.1378802857
H   H13       1.0  0.04590  0.79430  0.18330  1.0000 0.1208068561
H   H14       1.0  0.10160  0.09640  0.26570  1.0000 0.3304132274
H   H15       1.0  0.99940  0.92580  0.22780  1.0000 0.3479737616
H   H16       1.0  0.46370  0.77350  0.76750  1.0000 0.1378802857
H   H17       1.0  0.59620  0.66920  0.75300  1.0000 0.1269434418
H   H18       1.0  0.63180  0.83060  0.87760  1.0000 0.1269434418
H   H19       1.0  0.66750  0.64390  0.85580  1.0000 0.113066127
H   H20       1.0  0.86280  0.72920  0.87980  1.0000 0.1208068561
H   H21       1.0  0.74350  0.84010  0.81650  1.0000 0.1208068561
H   H22       1.0  0.68690  0.57830  0.94870  1.0000 0.1208068561
H   H23       1.0  0.79810  0.45190  0.96780  1.0000 0.1378802857
H   H24       1.0  0.86640  0.62120  0.85640  1.0000 0.1208068561
H   H25       1.0  0.92410  0.30990  0.73630  1.0000 0.1208068561
H   H26       1.0  0.89150  0.30970  0.52050  1.0000 0.1269434418
H   H27       1.0  0.97610  0.48050  0.62370  1.0000 0.1378802857
H   H28       1.0  0.95410  0.20570  0.68330  1.0000 0.1208068561
H   H29       1.0  0.89840  0.90360  0.76570  1.0000 0.3304132274
H   H30       1.0  0.00060  0.07420  0.72780  1.0000 0.3479737616
H   H31       1.0  0.22650  0.53630  0.76750  1.0000 0.1378802857
H   H32       1.0  0.33080  0.40380  0.75300  1.0000 0.1269434418
H   H33       1.0  0.16940  0.36820  0.87760  1.0000 0.1269434418
H   H34       1.0  0.35610  0.33250  0.85580  1.0000 0.113066127
H   H35       1.0  0.27080  0.13720  0.87980  1.0000 0.1208068561
H   H36       1.0  0.15990  0.25650  0.81650  1.0000 0.1208068561
H   H37       1.0  0.42170  0.31310  0.94870  1.0000 0.1208068561
H   H38       1.0  0.54810  0.20190  0.96780  1.0000 0.1378802857
H   H39       1.0  0.37880  0.13360  0.85640  1.0000 0.1208068561
H   H40       1.0  0.69010  0.07590  0.73630  1.0000 0.1208068561
H   H41       1.0  0.69030  0.10850  0.52050  1.0000 0.1269434418
H   H42       1.0  0.51950  0.02390  0.62370  1.0000 0.1378802857
H   H43       1.0  0.79430  0.04590  0.68330  1.0000 0.1208068561
H   H44       1.0  0.09640  0.10160  0.76570  1.0000 0.3304132274
H   H45       1.0  0.92580  0.99940  0.72780  1.0000 0.3479737616
H   H46       1.0  0.77350  0.46370  0.26750  1.0000 0.1378802857
H   H47       1.0  0.66920  0.59620  0.25300  1.0000 0.1269434418
H   H48       1.0  0.83060  0.63180  0.37760  1.0000 0.1269434418
H   H49       1.0  0.64390  0.66750  0.35580  1.0000 0.113066127
H   H50       1.0  0.72920  0.86280  0.37980  1.0000 0.1208068561
H   H51       1.0  0.84010  0.74350  0.31650  1.0000 0.1208068561
H   H52       1.0  0.57830  0.68690  0.44870  1.0000 0.1208068561
H   H53       1.0  0.45190  0.79810  0.46780  1.0000 0.1378802857
H   H54       1.0  0.62120  0.86640  0.35640  1.0000 0.1208068561
H   H55       1.0  0.30990  0.92410  0.23630  1.0000 0.1208068561
H   H56       1.0  0.30970  0.89150  0.02050  1.0000 0.1269434418
H   H57       1.0  0.48050  0.97610  0.12370  1.0000 0.1378802857
H   H58       1.0  0.20570  0.95410  0.18330  1.0000 0.1208068561
H   H59       1.0  0.90360  0.89840  0.26570  1.0000 0.3304132274
H   H60       1.0  0.07420  0.00060  0.22780  1.0000 0.3479737616
H   H61       1.0  0.21750  0.78250  0.09520  1.0000 0.1208068561
H   H62       1.0  0.78250  0.21750  0.59520  1.0000 0.1208068561
C   C1        1.0  0.47492  0.12894  0.35220  1.0000 0.5799891027
C   C2        1.0  0.45465  0.18979  0.32700  1.0000 -0.0109045918
C   C3        1.0  0.49583  0.23331  0.28110  1.0000 -0.1098541343
C   C4        1.0  0.47785  0.28811  0.25430  1.0000 -0.0109045918
C   C5        1.0  0.41659  0.29515  0.27200  1.0000 -0.1338404217
C   C6        1.0  0.37395  0.25125  0.31660  1.0000 0.0695780563
C   C7        1.0  0.39558  0.19886  0.34510  1.0000 -0.1391100264
C   C8        1.0  0.52359  0.33267  0.19900  1.0000 0.5746457266
C   C9        1.0  0.30671  0.25807  0.33380  1.0000 0.0695780563
C   C10       1.0  0.29646  0.31818  0.35430  1.0000 -0.1892826804
C   C11       1.0  0.23417  0.32313  0.37270  1.0000 0.0695780563
C   C12       1.0  0.17942  0.26756  0.36810  1.0000 -0.1465398499
C   C13       1.0  0.18785  0.20675  0.34570  1.0000 -0.0569829434
C   C14       1.0  0.25096  0.20088  0.32970  1.0000 -0.1665398353
C   C15       1.0  0.22568  0.38780  0.39820  1.0000 0.0695780563
C   C16       1.0  0.27351  0.43185  0.43860  1.0000 -0.1391100264
C   C17       1.0  0.26461  0.49227  0.46540  1.0000 -0.0184359891
C   C18       1.0  0.20788  0.50842  0.45040  1.0000 -0.1012738203
C   C19       1.0  0.15698  0.46428  0.40750  1.0000 -0.0272187805
C   C20       1.0  0.16695  0.40731  0.38380  1.0000 -0.1205071011
C   C21       1.0  0.31667  0.53683  0.51390  1.0000 0.5799891027
C   C22       1.0  0.09238  0.47950  0.39420  1.0000 0.5799891027
C   C23       1.0  0.13050  0.14930  0.33700  1.0000 0.5156620345
C   C24       1.0  0.02175  0.56139  0.25710  1.0000 0.5746457266
C   C25       1.0  0.04756  0.59764  0.19070  1.0000 -0.0488062245
C   C26       1.0  0.07381  0.66733  0.19240  1.0000 -0.1391100264
C   C27       1.0  0.09673  0.70255  0.12870  1.0000 0.0601038835
C   C28       1.0  0.09301  0.66737  0.06320  1.0000 -0.1338404217
C   C29       1.0  0.06713  0.60031  0.06150  1.0000 -0.0184359891
C   C30       1.0  0.04310  0.56524  0.12560  1.0000 -0.0934523759
C   C31       1.0  0.05604  0.56290  0.98960  1.0000 0.5799891027
C   C32       1.0  0.12868  0.77700  0.13560  1.0000 0.0695780563
C   C33       1.0  0.09033  0.81407  0.17170  1.0000 -0.1823264533
C   C34       1.0  0.52508  0.87106  0.85220  1.0000 0.5799891027
C   C35       1.0  0.54535  0.81021  0.82700  1.0000 -0.0109045918
C   C36       1.0  0.50417  0.76669  0.78110  1.0000 -0.1098541343
C   C37       1.0  0.52215  0.71189  0.75430  1.0000 -0.0109045918
C   C38       1.0  0.58341  0.70485  0.77200  1.0000 -0.1338404217
C   C39       1.0  0.62605  0.74875  0.81660  1.0000 0.0695780563
C   C40       1.0  0.60442  0.80114  0.84510  1.0000 -0.1391100264
C   C41       1.0  0.47641  0.66733  0.69900  1.0000 0.5799891027
C   C42       1.0  0.69329  0.74193  0.83380  1.0000 0.0695780563
C   C43       1.0  0.70354  0.68182  0.85430  1.0000 -0.1892826804
C   C44       1.0  0.76583  0.67687  0.87270  1.0000 0.0695780563
C   C45       1.0  0.82058  0.73244  0.86810  1.0000 -0.1465398499
C   C46       1.0  0.81215  0.79325  0.84570  1.0000 -0.0569829434
C   C47       1.0  0.74904  0.79912  0.82970  1.0000 -0.1665398353
C   C48       1.0  0.77432  0.61220  0.89820  1.0000 0.0695780563
C   C49       1.0  0.72649  0.56815  0.93860  1.0000 -0.1391100264
C   C50       1.0  0.73539  0.50773  0.96540  1.0000 -0.0184359891
C   C51       1.0  0.79212  0.49158  0.95040  1.0000 -0.1012738203
C   C52       1.0  0.84302  0.53572  0.90750  1.0000 -0.0272187805
C   C53       1.0  0.83305  0.59269  0.88380  1.0000 -0.1205071011
C   C54       1.0  0.68333  0.46317  0.01390  1.0000 0.5799891027
C   C55       1.0  0.90762  0.52050  0.89420  1.0000 0.5799891027
C   C56       1.0  0.86950  0.85070  0.83700  1.0000 0.5156620345
C   C57       1.0  0.97825  0.43861  0.75710  1.0000 0.5746457266
C   C58       1.0  0.95244  0.40236  0.69070  1.0000 -0.0488062245
C   C59       1.0  0.92619  0.33267  0.69240  1.0000 -0.1391100264
C   C60       1.0  0.90327  0.29745  0.62870  1.0000 0.0601038835
C   C61       1.0  0.90699  0.33263  0.56320  1.0000 -0.1338404217
C   C62       1.0  0.93287  0.39969  0.56150  1.0000 -0.0184359891
C   C63       1.0  0.95690  0.43476  0.62560  1.0000 -0.0934523759
C   C64       1.0  0.94396  0.43710  0.48960  1.0000 0.5799891027
C   C65       1.0  0.87132  0.22300  0.63560  1.0000 0.0695780563
C   C66       1.0  0.90967  0.18593  0.67170  1.0000 -0.1823264533
C   C67       1.0  0.12894  0.47492  0.85220  1.0000 0.5799891027
C   C68       1.0  0.18979  0.45465  0.82700  1.0000 -0.0109045918
C   C69       1.0  0.23331  0.49583  0.78110  1.0000 -0.1098541343
C   C70       1.0  0.28811  0.47785  0.75430  1.0000 -0.0109045918
C   C71       1.0  0.29515  0.41659  0.77200  1.0000 -0.1338404217
C   C72       1.0  0.25125  0.37395  0.81660  1.0000 0.0695780563
C   C73       1.0  0.19886  0.39558  0.84510  1.0000 -0.1391100264
C   C74       1.0  0.33267  0.52359  0.69900  1.0000 0.5746457266
C   C75       1.0  0.25807  0.30671  0.83380  1.0000 0.0695780563
C   C76       1.0  0.31818  0.29646  0.85430  1.0000 -0.1892826804
C   C77       1.0  0.32313  0.23417  0.87270  1.0000 0.0695780563
C   C78       1.0  0.26756  0.17942  0.86810  1.0000 -0.1465398499
C   C79       1.0  0.20675  0.18785  0.84570  1.0000 -0.0569829434
C   C80       1.0  0.20088  0.25096  0.82970  1.0000 -0.1665398353
C   C81       1.0  0.38780  0.22568  0.89820  1.0000 0.0695780563
C   C82       1.0  0.43185  0.27351  0.93860  1.0000 -0.1391100264
C   C83       1.0  0.49227  0.26461  0.96540  1.0000 -0.0184359891
C   C84       1.0  0.50842  0.20788  0.95040  1.0000 -0.1012738203
C   C85       1.0  0.46428  0.15698  0.90750  1.0000 -0.0272187805
C   C86       1.0  0.40731  0.16695  0.88380  1.0000 -0.1205071011
C   C87       1.0  0.53683  0.31667  0.01390  1.0000 0.5799891027
C   C88       1.0  0.47950  0.09238  0.89420  1.0000 0.5799891027
C   C89       1.0  0.14930  0.13050  0.83700  1.0000 0.5156620345
C   C90       1.0  0.56139  0.02175  0.75710  1.0000 0.5746457266
C   C91       1.0  0.59764  0.04756  0.69070  1.0000 -0.0488062245
C   C92       1.0  0.66733  0.07381  0.69240  1.0000 -0.1391100264
C   C93       1.0  0.70255  0.09673  0.62870  1.0000 0.0601038835
C   C94       1.0  0.66737  0.09301  0.56320  1.0000 -0.1338404217
C   C95       1.0  0.60031  0.06713  0.56150  1.0000 -0.0184359891
C   C96       1.0  0.56524  0.04310  0.62560  1.0000 -0.0934523759
C   C97       1.0  0.56290  0.05604  0.48960  1.0000 0.5799891027
C   C98       1.0  0.77700  0.12868  0.63560  1.0000 0.0695780563
C   C99       1.0  0.81407  0.09033  0.67170  1.0000 -0.1823264533
C   C100      1.0  0.87106  0.52508  0.35220  1.0000 0.5799891027
C   C101      1.0  0.81021  0.54535  0.32700  1.0000 -0.0109045918
C   C102      1.0  0.76669  0.50417  0.28110  1.0000 -0.1098541343
C   C103      1.0  0.71189  0.52215  0.25430  1.0000 -0.0109045918
C   C104      1.0  0.70485  0.58341  0.27200  1.0000 -0.1338404217
C   C105      1.0  0.74875  0.62605  0.31660  1.0000 0.0695780563
C   C106      1.0  0.80114  0.60442  0.34510  1.0000 -0.1391100264
C   C107      1.0  0.66733  0.47641  0.19900  1.0000 0.5746457266
C   C108      1.0  0.74193  0.69329  0.33380  1.0000 0.0695780563
C   C109      1.0  0.68182  0.70354  0.35430  1.0000 -0.1892826804
C   C110      1.0  0.67687  0.76583  0.37270  1.0000 0.0695780563
C   C111      1.0  0.73244  0.82058  0.36810  1.0000 -0.1465398499
C   C112      1.0  0.79325  0.81215  0.34570  1.0000 -0.0569829434
C   C113      1.0  0.79912  0.74904  0.32970  1.0000 -0.1665398353
C   C114      1.0  0.61220  0.77432  0.39820  1.0000 0.0695780563
C   C115      1.0  0.56815  0.72649  0.43860  1.0000 -0.1465398499
C   C116      1.0  0.50773  0.73539  0.46540  1.0000 -0.0184359891
C   C117      1.0  0.49158  0.79212  0.45040  1.0000 -0.1012738203
C   C118      1.0  0.53572  0.84302  0.40750  1.0000 -0.0272187805
C   C119      1.0  0.59269  0.83305  0.38380  1.0000 -0.1205071011
C   C120      1.0  0.46317  0.68333  0.51390  1.0000 0.5799891027
C   C121      1.0  0.52050  0.90762  0.39420  1.0000 0.5799891027
C   C122      1.0  0.85070  0.86950  0.33700  1.0000 0.5156620345
C   C123      1.0  0.43861  0.97825  0.25710  1.0000 0.5746457266
C   C124      1.0  0.40236  0.95244  0.19070  1.0000 -0.0488062245
C   C125      1.0  0.33267  0.92619  0.19240  1.0000 -0.1391100264
C   C126      1.0  0.29745  0.90327  0.12870  1.0000 0.0601038835
C   C127      1.0  0.33263  0.90699  0.06320  1.0000 -0.1338404217
C   C128      1.0  0.39969  0.93287  0.06150  1.0000 -0.0184359891
C   C129      1.0  0.43476  0.95690  0.12560  1.0000 -0.0934523759
C   C130      1.0  0.43710  0.94396  0.98960  1.0000 0.5799891027
C   C131      1.0  0.22300  0.87132  0.13560  1.0000 0.0695780563
C   C132      1.0  0.18593  0.90967  0.17170  1.0000 -0.1823264533
C   C133      1.0  0.12040  0.87960  0.18890  1.0000 -0.0184359891
C   C134      1.0  0.19302  0.80698  0.11890  1.0000 -0.1600689837
C   C135      1.0  0.07980  0.92020  0.22310  1.0000 0.5635321638
C   C136      1.0  0.87960  0.12040  0.68890  1.0000 -0.0184359891
C   C137      1.0  0.80698  0.19302  0.61890  1.0000 -0.1600689837
C   C138      1.0  0.92020  0.07980  0.72310  1.0000 0.5635321638
O   O1        1.0  0.43368  0.08746  0.39198  1.0000 -0.531174902
O   O2        1.0  0.52834  0.12230  0.32993  1.0000 -0.5010906482
O   O3        1.0  0.57443  0.31595  0.18353  1.0000 -0.5211967456
O   O4        1.0  0.50747  0.38151  0.17546  1.0000 -0.5088530094
O   O5        1.0  0.36785  0.51933  0.52673  1.0000 -0.5211967456
O   O6        1.0  0.30311  0.58717  0.53774  1.0000 -0.5088530094
O   O7        1.0  0.08577  0.53313  0.42113  1.0000 -0.5211967456
O   O8        1.0  0.05011  0.43797  0.35906  1.0000 -0.5088530094
O   O9        1.0  0.02978  0.59578  0.31574  1.0000 -0.5393432179
O   O10       1.0  0.99400  0.50026  0.25358  1.0000 -0.5088530094
O   O11       1.0  0.03200  0.50002  0.99394  1.0000 -0.531174902
O   O12       1.0  0.06889  0.59681  0.93292  1.0000 -0.5211967456
O   O13       1.0  0.13070  0.10090  0.29670  1.0000 -0.4508264503
O   O14       1.0  0.07800  0.14900  0.36460  1.0000 -0.4508264503
O   O15       1.0  0.01779  0.89621  0.23220  1.0000 -0.4138196507
O   O16       1.0  0.56632  0.91254  0.89198  1.0000 -0.531174902
O   O17       1.0  0.47166  0.87770  0.82993  1.0000 -0.5010906482
O   O18       1.0  0.42557  0.68405  0.68353  1.0000 -0.5211967456
O   O19       1.0  0.49253  0.61849  0.67546  1.0000 -0.5088530094
O   O20       1.0  0.63215  0.48067  0.02673  1.0000 -0.5211967456
O   O21       1.0  0.69689  0.41283  0.03774  1.0000 -0.5088530094
O   O22       1.0  0.91423  0.46687  0.92113  1.0000 -0.5211967456
O   O23       1.0  0.94989  0.56203  0.85906  1.0000 -0.5088530094
O   O24       1.0  0.97022  0.40422  0.81574  1.0000 -0.5393432179
O   O25       1.0  0.00600  0.49974  0.75358  1.0000 -0.5088530094
O   O26       1.0  0.96800  0.49998  0.49394  1.0000 -0.531174902
O   O27       1.0  0.93111  0.40319  0.43292  1.0000 -0.5211967456
O   O28       1.0  0.86930  0.89910  0.79670  1.0000 -0.4564534226
O   O29       1.0  0.92200  0.85100  0.86460  1.0000 -0.4508264503
O   O30       1.0  0.98221  0.10379  0.73220  1.0000 -0.4188664505
O   O31       1.0  0.08746  0.43368  0.89198  1.0000 -0.531174902
O   O32       1.0  0.12230  0.52834  0.82993  1.0000 -0.5010906482
O   O33       1.0  0.31595  0.57443  0.68353  1.0000 -0.5211967456
O   O34       1.0  0.38151  0.50747  0.67546  1.0000 -0.5088530094
O   O35       1.0  0.51933  0.36785  0.02673  1.0000 -0.5211967456
O   O36       1.0  0.58717  0.30311  0.03774  1.0000 -0.5088530094
O   O37       1.0  0.53313  0.08577  0.92113  1.0000 -0.531174902
O   O38       1.0  0.43797  0.05011  0.85906  1.0000 -0.5088530094
O   O39       1.0  0.59578  0.02978  0.81574  1.0000 -0.5393432179
O   O40       1.0  0.50026  0.99400  0.75358  1.0000 -0.5088530094
O   O41       1.0  0.50002  0.03200  0.49394  1.0000 -0.531174902
O   O42       1.0  0.59681  0.06889  0.43292  1.0000 -0.5211967456
O   O43       1.0  0.10090  0.13070  0.79670  1.0000 -0.4508264503
O   O44       1.0  0.14900  0.07800  0.86460  1.0000 -0.4508264503
O   O45       1.0  0.89621  0.01779  0.73220  1.0000 -0.4188664505
O   O46       1.0  0.91254  0.56632  0.39198  1.0000 -0.531174902
O   O47       1.0  0.87770  0.47166  0.32993  1.0000 -0.5010906482
O   O48       1.0  0.68405  0.42557  0.18353  1.0000 -0.5211967456
O   O49       1.0  0.61849  0.49253  0.17546  1.0000 -0.5088530094
O   O50       1.0  0.48067  0.63215  0.52673  1.0000 -0.5211967456
O   O51       1.0  0.41283  0.69689  0.53774  1.0000 -0.5088530094
O   O52       1.0  0.46687  0.91423  0.42113  1.0000 -0.531174902
O   O53       1.0  0.56203  0.94989  0.35906  1.0000 -0.5088530094
O   O54       1.0  0.40422  0.97022  0.31574  1.0000 -0.5393432179
O   O55       1.0  0.49974  0.00600  0.25358  1.0000 -0.5088530094
O   O56       1.0  0.49998  0.96800  0.99394  1.0000 -0.531174902
O   O57       1.0  0.40319  0.93111  0.93292  1.0000 -0.5211967456
O   O58       1.0  0.89910  0.86930  0.29670  1.0000 -0.4508264503
O   O59       1.0  0.85100  0.92200  0.36460  1.0000 -0.4508264503
O   O60       1.0  0.10379  0.98221  0.23220  1.0000 -0.4138196507
