# DDEC6 charges by PACMAN v1.1 (https://github.com/mtap-research/PACMAN-charge/)
data_2018[Al][nan]3[ASR]2
_chemical_formula_sum              "Al4 H16 C32 O20"
_cell_length_a       12.0162
_cell_length_b       12.0162
_cell_length_c       12.0162
_cell_angle_alpha    103.914
_cell_angle_beta     103.914
_cell_angle_gamma    121.269

_symmetry_space_group_name_H-M    "P 1"
_symmetry_Int_Tables_number       1

loop_
  _symmetry_equiv_pos_as_xyz
  'x, y, z'

loop_
  _atom_site_type_symbol
  _atom_site_label
  _atom_site_symmetry_multiplicity
  _atom_site_fract_x
  _atom_site_fract_y
  _atom_site_fract_z
  _atom_site_occupancy
  _atom_site_charge
Al  Al1       1.0  0.44660  0.94660  0.89320  1.0000 1.6477309751
Al  Al2       1.0  0.05340  0.55340  0.10680  1.0000 1.6477309751
Al  Al3       1.0  0.19660  0.80340  0.00000  1.0000 1.6477309751
Al  Al4       1.0  0.80340  0.19660  0.00000  1.0000 1.6477309751
H   H1        1.0  0.89620  0.45080  0.69680  1.0000 0.1052518177
H   H2        1.0  0.75400  0.19940  0.30320  1.0000 0.1052518177
H   H3        1.0  0.70080  0.50400  0.05460  1.0000 0.1052518177
H   H4        1.0  0.44940  0.64620  0.94540  1.0000 0.1052518177
H   H5        1.0  0.35380  0.55060  0.05460  1.0000 0.1052518177
H   H6        1.0  0.49600  0.29920  0.94540  1.0000 0.1052518177
H   H7        1.0  0.54920  0.10380  0.30320  1.0000 0.1052518177
H   H8        1.0  0.80060  0.24600  0.69680  1.0000 0.1052518177
H   H9        1.0  0.44600  0.87500  0.07100  1.0000 0.4120022568
H   H10       1.0  0.80400  0.37500  0.92900  1.0000 0.4120022568
H   H11       1.0  0.12500  0.55400  0.92900  1.0000 0.4120022568
H   H12       1.0  0.62500  0.19600  0.07100  1.0000 0.4120022568
H   H13       1.0  0.13950  0.63950  0.50000  1.0000 0.1315830338
H   H14       1.0  0.88950  0.88950  0.00000  1.0000 0.1315830338
H   H15       1.0  0.11050  0.11050  0.00000  1.0000 0.1315830338
H   H16       1.0  0.36050  0.86050  0.50000  1.0000 0.1315830338
C   C1        1.0  0.14890  0.69430  0.73680  1.0000 0.6418036657
C   C2        1.0  0.03100  0.56240  0.61320  1.0000 -0.0325818372
C   C3        1.0  0.91050  0.44190  0.61320  1.0000 -0.1488595468
C   C4        1.0  0.95750  0.41210  0.26320  1.0000 0.6418036657
C   C5        1.0  0.94920  0.41780  0.38680  1.0000 -0.0325818372
C   C6        1.0  0.82870  0.29730  0.38680  1.0000 -0.1488595468
C   C7        1.0  0.94430  0.70750  0.04540  1.0000 0.6418036657
C   C8        1.0  0.81240  0.69920  0.03140  1.0000 -0.0325818372
C   C9        1.0  0.69190  0.57870  0.03140  1.0000 -0.1488595468
C   C10       1.0  0.66210  0.89890  0.95460  1.0000 0.6418036657
C   C11       1.0  0.66780  0.78100  0.96860  1.0000 -0.0325818372
C   C12       1.0  0.54730  0.66050  0.96860  1.0000 -0.1488595468
C   C13       1.0  0.10110  0.33790  0.04540  1.0000 0.6418036657
C   C14       1.0  0.21900  0.33220  0.03140  1.0000 -0.0325818372
C   C15       1.0  0.33950  0.45270  0.03140  1.0000 -0.1488595468
C   C16       1.0  0.29250  0.05570  0.95460  1.0000 0.6418036657
C   C17       1.0  0.30080  0.18760  0.96860  1.0000 -0.0325818372
C   C18       1.0  0.42130  0.30810  0.96860  1.0000 -0.1488595468
C   C19       1.0  0.30570  0.85110  0.26320  1.0000 0.6418036657
C   C20       1.0  0.43760  0.96900  0.38680  1.0000 -0.0325818372
C   C21       1.0  0.55810  0.08950  0.38680  1.0000 -0.1488595468
C   C22       1.0  0.58790  0.04250  0.73680  1.0000 0.6418036657
C   C23       1.0  0.58220  0.05080  0.61320  1.0000 -0.0325818372
C   C24       1.0  0.70270  0.17130  0.61320  1.0000 -0.1488595468
C   C25       1.0  0.05040  0.55040  0.50000  1.0000 -0.11346236
C   C26       1.0  0.80940  0.30940  0.50000  1.0000 0.067538588
C   C27       1.0  0.80040  0.80040  0.00000  1.0000 -0.11346236
C   C28       1.0  0.55940  0.55940  0.00000  1.0000 0.067538588
C   C29       1.0  0.19960  0.19960  0.00000  1.0000 -0.11346236
C   C30       1.0  0.44060  0.44060  0.00000  1.0000 0.067538588
C   C31       1.0  0.44960  0.94960  0.50000  1.0000 -0.11346236
C   C32       1.0  0.69060  0.19060  0.50000  1.0000 0.067538588
O   O1        1.0  0.27380  0.76740  0.74320  1.0000 -0.5409425733
O   O2        1.0  0.11270  0.72040  0.82350  1.0000 -0.591503152
O   O3        1.0  0.02420  0.53060  0.25680  1.0000 -0.5409425733
O   O4        1.0  0.89690  0.28920  0.17650  1.0000 -0.591503152
O   O5        1.0  0.01740  0.77420  0.99360  1.0000 -0.5409425733
O   O6        1.0  0.97040  0.64690  0.10770  1.0000 -0.591503152
O   O7        1.0  0.78060  0.02380  0.00640  1.0000 -0.5409425733
O   O8        1.0  0.53920  0.86270  0.89230  1.0000 -0.591503152
O   O9        1.0  0.97620  0.21940  0.99360  1.0000 -0.5409425733
O   O10       1.0  0.13730  0.46080  0.10770  1.0000 -0.591503152
O   O11       1.0  0.22580  0.98260  0.00640  1.0000 -0.5409425733
O   O12       1.0  0.35310  0.02960  0.89230  1.0000 -0.591503152
O   O13       1.0  0.23260  0.72620  0.25680  1.0000 -0.5409425733
O   O14       1.0  0.27960  0.88730  0.17650  1.0000 -0.591503152
O   O15       1.0  0.46940  0.97580  0.74320  1.0000 -0.5409425733
O   O16       1.0  0.71080  0.10310  0.82350  1.0000 -0.591503152
O   O17       1.0  0.37440  0.87500  0.99940  1.0000 -1.0117292417
O   O18       1.0  0.87560  0.37500  0.00060  1.0000 -1.0117292417
O   O19       1.0  0.12500  0.62560  0.00060  1.0000 -1.0117292417
O   O20       1.0  0.62500  0.12440  0.99940  1.0000 -1.0117292417
