# DDEC6 charges by PACMAN v1.1 (https://github.com/mtap-research/PACMAN-charge/)
data_2018[Dy][nan]3[ASR]1
_chemical_formula_sum              "Dy4 H60 C120 O36"
_cell_length_a       31.4184
_cell_length_b       26.4828
_cell_length_c       17.93
_cell_angle_alpha    87.845
_cell_angle_beta     57.3851
_cell_angle_gamma    34.7699

_symmetry_space_group_name_H-M    "P 1"
_symmetry_Int_Tables_number       1

loop_
  _symmetry_equiv_pos_as_xyz
  'x, y, z'

loop_
  _atom_site_type_symbol
  _atom_site_label
  _atom_site_symmetry_multiplicity
  _atom_site_fract_x
  _atom_site_fract_y
  _atom_site_fract_z
  _atom_site_occupancy
  _atom_site_charge
Dy  Dy1       1.0  0.69237  0.69237  0.80763  1.0000 2.1463366036
Dy  Dy2       1.0  0.44237  0.44237  0.55763  1.0000 2.1463366036
Dy  Dy3       1.0  0.91693  0.91693  0.08307  1.0000 2.0755708699
Dy  Dy4       1.0  0.16693  0.16693  0.33307  1.0000 2.0755708699
H   H1        1.0  0.48458  0.48234  0.15480  1.0000 0.1099940051
H   H2        1.0  0.31686  0.75966  0.18386  1.0000 0.1099940051
H   H3        1.0  0.10986  0.81800  0.34828  1.0000 0.1180524831
H   H4        1.0  0.28586  0.63224  0.41918  1.0000 0.1099940051
H   H5        1.0  0.41475  0.48161  0.41089  1.0000 0.1180524831
H   H6        1.0  0.61696  0.17360  0.12716  1.0000 0.1291696628
H   H7        1.0  0.47466  0.33470  0.14410  1.0000 0.1291696628
H   H8        1.0  0.29566  0.82110  0.31512  1.0000 0.1180524831
H   H9        1.0  0.28583  0.91793  0.31391  1.0000 0.1382051592
H   H10       1.0  0.76764  0.46316  0.83208  1.0000 0.1291696628
H   H11       1.0  0.78141  0.36099  0.83689  1.0000 0.1180524831
H   H12       1.0  0.81857  0.21033  0.47342  1.0000 0.1180524831
H   H13       1.0  0.71543  0.26847  0.46085  1.0000 0.1291696628
H   H14       1.0  0.09077  0.81647  0.13431  1.0000 0.1291696628
H   H15       1.0  0.18903  0.75867  0.15307  1.0000 0.1099940051
H   H16       1.0  0.48234  0.48458  0.87828  1.0000 0.1099940051
H   H17       1.0  0.75966  0.31686  0.73962  1.0000 0.1099940051
H   H18       1.0  0.81800  0.10986  0.72386  1.0000 0.1180524831
H   H19       1.0  0.63224  0.28586  0.66272  1.0000 0.1099940051
H   H20       1.0  0.48161  0.41475  0.69275  1.0000 0.1180524831
H   H21       1.0  0.17360  0.61696  0.08228  1.0000 0.1291696628
H   H22       1.0  0.33470  0.47466  0.04654  1.0000 0.1291696628
H   H23       1.0  0.82110  0.29566  0.56812  1.0000 0.1180524831
H   H24       1.0  0.91793  0.28583  0.48233  1.0000 0.1382051592
H   H25       1.0  0.46316  0.76764  0.93712  1.0000 0.1291696628
H   H26       1.0  0.36099  0.78141  0.02071  1.0000 0.1180524831
H   H27       1.0  0.21034  0.81858  0.49767  1.0000 0.1180524831
H   H28       1.0  0.26847  0.71543  0.55525  1.0000 0.1291696628
H   H29       1.0  0.81647  0.09077  0.95845  1.0000 0.1291696628
H   H30       1.0  0.75867  0.18903  0.89923  1.0000 0.1099940051
H   H31       1.0  0.09520  0.37172  0.76542  1.0000 0.1099940051
H   H32       1.0  0.06614  0.51038  0.93314  1.0000 0.1099940051
H   H33       1.0  0.90172  0.52614  0.14014  1.0000 0.1180524831
H   H34       1.0  0.83082  0.58728  0.96414  1.0000 0.1099940051
H   H35       1.0  0.83911  0.55725  0.83525  1.0000 0.1180524831
H   H36       1.0  0.12284  0.16772  0.63304  1.0000 0.1291696628
H   H37       1.0  0.10590  0.20346  0.77534  1.0000 0.1291696628
H   H38       1.0  0.93488  0.68188  0.95434  1.0000 0.1180524831
H   H39       1.0  0.93609  0.76767  0.96417  1.0000 0.1382051592
H   H40       1.0  0.41792  0.31288  0.48236  1.0000 0.1291696628
H   H41       1.0  0.41311  0.22929  0.46859  1.0000 0.1180524831
H   H42       1.0  0.77658  0.75233  0.43143  1.0000 0.1180524831
H   H43       1.0  0.78915  0.69475  0.53457  1.0000 0.1291696628
H   H44       1.0  0.11569  0.29155  0.15923  1.0000 0.1291696628
H   H45       1.0  0.09693  0.35077  0.06097  1.0000 0.1099940051
H   H46       1.0  0.37172  0.09520  0.76766  1.0000 0.1099940051
H   H47       1.0  0.51038  0.06614  0.49034  1.0000 0.1099940051
H   H48       1.0  0.52614  0.90172  0.43200  1.0000 0.1180524831
H   H49       1.0  0.58728  0.83082  0.61776  1.0000 0.1099940051
H   H50       1.0  0.55725  0.83911  0.76839  1.0000 0.1180524831
H   H51       1.0  0.16772  0.12284  0.07640  1.0000 0.1291696628
H   H52       1.0  0.20346  0.10590  0.91530  1.0000 0.1291696628
H   H53       1.0  0.68188  0.93488  0.42890  1.0000 0.1180524831
H   H54       1.0  0.76767  0.93609  0.33207  1.0000 0.1382051592
H   H55       1.0  0.31288  0.41792  0.78684  1.0000 0.1291696628
H   H56       1.0  0.22929  0.41311  0.88901  1.0000 0.1180524831
H   H57       1.0  0.75233  0.77658  0.03966  1.0000 0.1180524831
H   H58       1.0  0.69475  0.78915  0.98153  1.0000 0.1291696628
H   H59       1.0  0.29155  0.11569  0.43353  1.0000 0.1291696628
H   H60       1.0  0.35077  0.09693  0.49133  1.0000 0.1099940051
C   C1        1.0  0.41140  0.56540  0.18460  1.0000 -0.1304382747
C   C2        1.0  0.41900  0.60920  0.16080  1.0000 -0.0312759357
C   C3        1.0  0.31230  0.72990  0.20210  1.0000 -0.111110492
C   C4        1.0  0.19290  0.81190  0.27410  1.0000 -0.0069812437
C   C5        1.0  0.18800  0.76460  0.29940  1.0000 -0.1304382747
C   C6        1.0  0.30050  0.63850  0.25150  1.0000 -0.0009384257
C   C7        1.0  0.30260  0.58000  0.26600  1.0000 0.3555458074
C   C8        1.0  0.37500  0.49340  0.27460  1.0000 -0.0009384257
C   C9        1.0  0.35240  0.54040  0.35960  1.0000 -0.1215558986
C   C10       1.0  0.42860  0.45080  0.35520  1.0000 -0.1004143317
C   C11       1.0  0.52440  0.31760  0.27240  1.0000 0.0082174931
C   C12       1.0  0.54860  0.26700  0.18700  1.0000 -0.1004143317
C   C13       1.0  0.46730  0.36070  0.19330  1.0000 -0.1004143317
C   C14       1.0  0.62990  0.20190  0.24810  1.0000 0.6085407918
C   C15       1.0  0.54550  0.51890  0.07710  1.0000 0.2916875442
C   C16       1.0  0.53800  0.58300  0.07700  1.0000 0.0082174931
C   C17       1.0  0.39030  0.74930  0.21870  1.0000 -0.1304382747
C   C18       1.0  0.38270  0.80870  0.21730  1.0000 -0.090921406
C   C19       1.0  0.52110  0.70330  0.07070  1.0000 -0.0312759357
C   C20       1.0  0.67330  0.53430  0.92770  1.0000 -0.1004143317
C   C21       1.0  0.68160  0.47300  0.93100  1.0000 -0.111110492
C   C22       1.0  0.51290  0.76710  0.06290  1.0000 0.6517234926
C   C23       1.0  0.07910  0.94390  0.32210  1.0000 0.3383650144
C   C24       1.0  0.01190  0.97950  0.31650  1.0000 0.0200511065
C   C25       1.0  0.87240  0.13120  0.40680  1.0000 -0.111110492
C   C26       1.0  0.81330  0.16410  0.39590  1.0000 -0.1004143317
C   C27       1.0  0.89680  0.04560  0.29240  1.0000 -0.041701481
C   C28       1.0  0.03410  0.89750  0.20450  1.0000 -0.1004143317
C   C29       1.0  0.09420  0.86140  0.21460  1.0000 -0.1004143317
C   C30       1.0  0.83770  0.07730  0.27870  1.0000 0.6585055476
C   C31       1.0  0.56540  0.41140  0.83860  1.0000 -0.1304382747
C   C32       1.0  0.60920  0.41900  0.81100  1.0000 -0.0312759357
C   C33       1.0  0.72990  0.31230  0.75570  1.0000 -0.111110492
C   C34       1.0  0.81190  0.19290  0.72110  1.0000 -0.0069812437
C   C35       1.0  0.76460  0.18800  0.74800  1.0000 -0.1304382747
C   C36       1.0  0.63850  0.30050  0.80950  1.0000 -0.0009384257
C   C37       1.0  0.58000  0.30260  0.85140  1.0000 0.3555458074
C   C38       1.0  0.49340  0.37500  0.85700  1.0000 -0.0009384257
C   C39       1.0  0.54040  0.35240  0.74760  1.0000 -0.1215558986
C   C40       1.0  0.45080  0.42860  0.76540  1.0000 -0.1004143317
C   C41       1.0  0.31760  0.52440  0.88560  1.0000 0.0082174931
C   C42       1.0  0.26700  0.54860  0.99740  1.0000 -0.1004143317
C   C43       1.0  0.36070  0.46730  0.97870  1.0000 -0.1004143317
C   C44       1.0  0.20190  0.62990  0.92010  1.0000 0.6085407918
C   C45       1.0  0.51890  0.54550  0.85850  1.0000 0.2916875442
C   C46       1.0  0.58300  0.53800  0.80200  1.0000 0.0082174931
C   C47       1.0  0.74930  0.39030  0.64170  1.0000 -0.1304382747
C   C48       1.0  0.80870  0.38270  0.59130  1.0000 -0.090921406
C   C49       1.0  0.70330  0.52110  0.70490  1.0000 -0.0312759357
C   C50       1.0  0.53430  0.67330  0.86470  1.0000 -0.1004143317
C   C51       1.0  0.47300  0.68160  0.91440  1.0000 -0.111110492
C   C52       1.0  0.76710  0.51290  0.65710  1.0000 0.6517234926
C   C53       1.0  0.94390  0.07910  0.65490  1.0000 0.3383650144
C   C54       1.0  0.97950  0.01190  0.69210  1.0000 0.0200511065
C   C55       1.0  0.13120  0.87240  0.58960  1.0000 -0.111110492
C   C56       1.0  0.16410  0.81330  0.62670  1.0000 -0.1004143317
C   C57       1.0  0.04560  0.89680  0.76520  1.0000 -0.041701481
C   C58       1.0  0.89750  0.03410  0.86390  1.0000 -0.1004143317
C   C59       1.0  0.86140  0.09420  0.82980  1.0000 -0.1004143317
C   C60       1.0  0.07730  0.83770  0.80630  1.0000 0.6585055476
C   C61       1.0  0.06540  0.41140  0.83860  1.0000 -0.1304382747
C   C62       1.0  0.08920  0.43900  0.83100  1.0000 -0.0312759357
C   C63       1.0  0.04790  0.49430  0.93770  1.0000 -0.111110492
C   C64       1.0  0.97590  0.52890  0.05710  1.0000 -0.0069812437
C   C65       1.0  0.95060  0.50200  0.06200  1.0000 -0.1304382747
C   C66       1.0  0.99850  0.44050  0.94950  1.0000 -0.0009384257
C   C67       1.0  0.98400  0.39860  0.94740  1.0000 0.3555458074
C   C68       1.0  0.97540  0.39300  0.87500  1.0000 -0.0009384257
C   C69       1.0  0.89040  0.50240  0.89760  1.0000 -0.1215558986
C   C70       1.0  0.89480  0.48460  0.82140  1.0000 -0.1004143317
C   C71       1.0  0.97760  0.36440  0.72560  1.0000 0.0082174931
C   C72       1.0  0.06300  0.25260  0.70140  1.0000 -0.1004143317
C   C73       1.0  0.05670  0.27130  0.78270  1.0000 -0.1004143317
C   C74       1.0  0.00190  0.32990  0.62010  1.0000 0.6085407918
C   C75       1.0  0.17290  0.39150  0.70450  1.0000 0.2916875442
C   C76       1.0  0.17300  0.44800  0.71200  1.0000 0.0082174931
C   C77       1.0  0.03130  0.60830  0.85970  1.0000 -0.1304382747
C   C78       1.0  0.03270  0.65870  0.86730  1.0000 -0.090921406
C   C79       1.0  0.17930  0.54510  0.72890  1.0000 -0.0312759357
C   C80       1.0  0.32230  0.38530  0.57670  1.0000 -0.1004143317
C   C81       1.0  0.31900  0.33560  0.56840  1.0000 -0.111110492
C   C82       1.0  0.18710  0.59290  0.73710  1.0000 0.6517234926
C   C83       1.0  0.92790  0.59510  0.17090  1.0000 0.3383650144
C   C84       1.0  0.93350  0.55790  0.23810  1.0000 0.0200511065
C   C85       1.0  0.84320  0.66040  0.37760  1.0000 -0.111110492
C   C86       1.0  0.85410  0.62330  0.43670  1.0000 -0.1004143317
C   C87       1.0  0.95760  0.48480  0.35320  1.0000 -0.041701481
C   C88       1.0  0.04550  0.38610  0.21590  1.0000 -0.1004143317
C   C89       1.0  0.03540  0.42020  0.15580  1.0000 -0.1004143317
C   C90       1.0  0.97130  0.44370  0.41230  1.0000 0.6585055476
C   C91       1.0  0.41140  0.06540  0.68460  1.0000 -0.1304382747
C   C92       1.0  0.43900  0.08920  0.64080  1.0000 -0.0312759357
C   C93       1.0  0.49430  0.04790  0.52010  1.0000 -0.111110492
C   C94       1.0  0.52890  0.97590  0.43810  1.0000 -0.0069812437
C   C95       1.0  0.50200  0.95060  0.48540  1.0000 -0.1304382747
C   C96       1.0  0.44050  0.99850  0.61150  1.0000 -0.0009384257
C   C97       1.0  0.39860  0.98400  0.67000  1.0000 0.3555458074
C   C98       1.0  0.39300  0.97540  0.75660  1.0000 -0.0009384257
C   C99       1.0  0.50240  0.89040  0.70960  1.0000 -0.1215558986
C   C100      1.0  0.48460  0.89480  0.79920  1.0000 -0.1004143317
C   C101      1.0  0.36440  0.97760  0.93240  1.0000 0.0082174931
C   C102      1.0  0.25260  0.06300  0.98300  1.0000 -0.1004143317
C   C103      1.0  0.27130  0.05670  0.88930  1.0000 -0.1004143317
C   C104      1.0  0.32990  0.00190  0.04810  1.0000 0.6085407918
C   C105      1.0  0.39150  0.17290  0.73110  1.0000 0.2916875442
C   C106      1.0  0.44800  0.17300  0.66700  1.0000 0.0082174931
C   C107      1.0  0.60830  0.03130  0.50070  1.0000 -0.1304382747
C   C108      1.0  0.65870  0.03270  0.44130  1.0000 -0.090921406
C   C109      1.0  0.54510  0.17930  0.54670  1.0000 -0.0312759357
C   C110      1.0  0.38530  0.32230  0.71570  1.0000 -0.1004143317
C   C111      1.0  0.33560  0.31900  0.77700  1.0000 -0.111110492
C   C112      1.0  0.59290  0.18710  0.48290  1.0000 0.6517234926
C   C113      1.0  0.59510  0.92790  0.30610  1.0000 0.3383650144
C   C114      1.0  0.55790  0.93350  0.27050  1.0000 0.0200511065
C   C115      1.0  0.66040  0.84320  0.11880  1.0000 -0.111110492
C   C116      1.0  0.62330  0.85410  0.08590  1.0000 -0.1004143317
C   C117      1.0  0.48480  0.95760  0.20440  1.0000 -0.041701481
C   C118      1.0  0.38610  0.04550  0.35250  1.0000 -0.1004143317
C   C119      1.0  0.42020  0.03540  0.38860  1.0000 -0.1004143317
C   C120      1.0  0.44370  0.97130  0.17270  1.0000 0.6585055476
O   O1        1.0  0.25130  0.60090  0.26710  1.0000 -0.3330244835
O   O2        1.0  0.62930  0.23130  0.30470  1.0000 -0.7612774785
O   O3        1.0  0.72430  0.07610  0.16130  1.0000 -0.5640455003
O   O4        1.0  0.67050  0.38170  0.99810  1.0000 -0.4019565473
O   O5        1.0  0.36620  0.92340  0.19080  1.0000 -0.6975306983
O   O6        1.0  0.63520  0.67620  0.93980  1.0000 -0.6071488972
O   O7        1.0  0.04520  0.02060  0.35580  1.0000 -0.3699723597
O   O8        1.0  0.93510  0.96410  0.14870  1.0000 -0.6161587949
O   O9        1.0  0.68230  0.23190  0.40250  1.0000 -0.7612774785
O   O10       1.0  0.60090  0.25130  0.88070  1.0000 -0.3353137787
O   O11       1.0  0.23130  0.62930  0.83470  1.0000 -0.7612774785
O   O12       1.0  0.07610  0.72430  0.03830  1.0000 -0.5640455003
O   O13       1.0  0.38170  0.67050  0.94970  1.0000 -0.4019565473
O   O14       1.0  0.92340  0.36620  0.51960  1.0000 -0.6975306983
O   O15       1.0  0.67620  0.63520  0.74880  1.0000 -0.6071488972
O   O16       1.0  0.02060  0.04520  0.57840  1.0000 -0.3699723597
O   O17       1.0  0.96410  0.93510  0.95210  1.0000 -0.6161587949
O   O18       1.0  0.23190  0.68230  0.68330  1.0000 -0.7612774785
O   O19       1.0  0.98290  0.36930  0.99870  1.0000 -0.3330244835
O   O20       1.0  0.94530  0.41530  0.62070  1.0000 -0.7612774785
O   O21       1.0  0.08870  0.21170  0.52570  1.0000 -0.5640455003
O   O22       1.0  0.25190  0.30030  0.57950  1.0000 -0.4019565473
O   O23       1.0  0.05920  0.73040  0.88380  1.0000 -0.6975306983
O   O24       1.0  0.31020  0.50120  0.61480  1.0000 -0.6071488972
O   O25       1.0  0.89420  0.67160  0.20480  1.0000 -0.3699723597
O   O26       1.0  0.10130  0.29790  0.31490  1.0000 -0.6161587949
O   O27       1.0  0.84750  0.56670  0.56770  1.0000 -0.7612774785
O   O28       1.0  0.36930  0.98290  0.64910  1.0000 -0.3330244835
O   O29       1.0  0.41530  0.94530  0.01870  1.0000 -0.7612774785
O   O30       1.0  0.21170  0.08870  0.17390  1.0000 -0.5640455003
O   O31       1.0  0.30030  0.25190  0.86830  1.0000 -0.4019565473
O   O32       1.0  0.73040  0.05920  0.32660  1.0000 -0.6975306983
O   O33       1.0  0.50120  0.31020  0.57380  1.0000 -0.6071488972
O   O34       1.0  0.67160  0.89420  0.22940  1.0000 -0.3699723597
O   O35       1.0  0.29790  0.10130  0.28590  1.0000 -0.6161587949
O   O36       1.0  0.56670  0.84750  0.01810  1.0000 -0.7612774785
