# DDEC6 charges by PACMAN v1.1 (https://github.com/mtap-research/PACMAN-charge/)
data_2018[Cr][tbo]3[ASR]1
_chemical_formula_sum              "Cr12 H24 C72 O48"
_cell_length_a       18.8892
_cell_length_b       18.8892
_cell_length_c       18.8892
_cell_angle_alpha    60
_cell_angle_beta     60
_cell_angle_gamma    60

_symmetry_space_group_name_H-M    "P 1"
_symmetry_Int_Tables_number       1

loop_
  _symmetry_equiv_pos_as_xyz
  'x, y, z'

loop_
  _atom_site_type_symbol
  _atom_site_label
  _atom_site_symmetry_multiplicity
  _atom_site_fract_x
  _atom_site_fract_y
  _atom_site_fract_z
  _atom_site_occupancy
  _atom_site_charge
Cr  Cr1       1.0  0.06204  0.50000  0.93796  1.0000 0.9357324469
Cr  Cr2       1.0  0.93796  0.50000  0.06204  1.0000 0.9340006414
Cr  Cr3       1.0  0.50000  0.06204  0.50000  1.0000 0.9340006414
Cr  Cr4       1.0  0.50000  0.93796  0.50000  1.0000 0.9357324469
Cr  Cr5       1.0  0.50000  0.93796  0.06204  1.0000 0.9340006414
Cr  Cr6       1.0  0.50000  0.06204  0.93796  1.0000 0.9357324469
Cr  Cr7       1.0  0.06204  0.50000  0.50000  1.0000 0.9357324469
Cr  Cr8       1.0  0.93796  0.50000  0.50000  1.0000 0.9357324469
Cr  Cr9       1.0  0.93796  0.06204  0.50000  1.0000 0.9357324469
Cr  Cr10      1.0  0.06204  0.93796  0.50000  1.0000 0.9357324469
Cr  Cr11      1.0  0.50000  0.50000  0.06204  1.0000 0.9340006414
Cr  Cr12      1.0  0.50000  0.50000  0.93796  1.0000 0.9357324469
H   H1        1.0  0.98721  0.77199  0.77199  1.0000 0.1382749903
H   H2        1.0  0.77199  0.46881  0.98721  1.0000 0.1382749903
H   H3        1.0  0.77199  0.98721  0.46881  1.0000 0.1382749903
H   H4        1.0  0.46881  0.77199  0.77199  1.0000 0.1382749903
H   H5        1.0  0.77199  0.77199  0.98721  1.0000 0.1382749903
H   H6        1.0  0.46881  0.98721  0.77199  1.0000 0.1382749903
H   H7        1.0  0.98721  0.46881  0.77199  1.0000 0.1382749903
H   H8        1.0  0.77199  0.77199  0.46881  1.0000 0.1382749903
H   H9        1.0  0.77199  0.98721  0.77199  1.0000 0.1382749903
H   H10       1.0  0.98721  0.77199  0.46881  1.0000 0.1382749903
H   H11       1.0  0.46881  0.77199  0.98721  1.0000 0.1382749903
H   H12       1.0  0.77199  0.46881  0.77199  1.0000 0.1382749903
H   H13       1.0  0.01279  0.53119  0.22801  1.0000 0.1382749903
H   H14       1.0  0.22801  0.22801  0.01279  1.0000 0.1382749903
H   H15       1.0  0.22801  0.22801  0.53119  1.0000 0.1382749903
H   H16       1.0  0.53119  0.01279  0.22801  1.0000 0.1382749903
H   H17       1.0  0.22801  0.53119  0.01279  1.0000 0.1382749903
H   H18       1.0  0.53119  0.22801  0.22801  1.0000 0.1382749903
H   H19       1.0  0.01279  0.22801  0.22801  1.0000 0.1382749903
H   H20       1.0  0.22801  0.01279  0.53119  1.0000 0.1382749903
H   H21       1.0  0.22801  0.53119  0.22801  1.0000 0.1382749903
H   H22       1.0  0.01279  0.22801  0.53119  1.0000 0.1382749903
H   H23       1.0  0.53119  0.22801  0.01279  1.0000 0.1382749903
H   H24       1.0  0.22801  0.01279  0.22801  1.0000 0.1382749903
C   C1        1.0  0.92892  0.80082  0.80082  1.0000 -0.09612145
C   C2        1.0  0.80082  0.46944  0.92892  1.0000 -0.09612145
C   C3        1.0  0.80082  0.92892  0.46944  1.0000 -0.09612145
C   C4        1.0  0.46944  0.80082  0.80082  1.0000 -0.09612145
C   C5        1.0  0.80082  0.80082  0.92892  1.0000 -0.09612145
C   C6        1.0  0.46944  0.92892  0.80082  1.0000 -0.09612145
C   C7        1.0  0.92892  0.46944  0.80082  1.0000 -0.09612145
C   C8        1.0  0.80082  0.80082  0.46944  1.0000 -0.09612145
C   C9        1.0  0.80082  0.92892  0.80082  1.0000 -0.09612145
C   C10       1.0  0.92892  0.80082  0.46944  1.0000 -0.09612145
C   C11       1.0  0.46944  0.80082  0.92892  1.0000 -0.0944303569
C   C12       1.0  0.80082  0.46944  0.80082  1.0000 -0.09612145
C   C13       1.0  0.07108  0.53056  0.19918  1.0000 -0.09612145
C   C14       1.0  0.19918  0.19918  0.07108  1.0000 -0.09612145
C   C15       1.0  0.19918  0.19918  0.53056  1.0000 -0.09612145
C   C16       1.0  0.53056  0.07108  0.19918  1.0000 -0.0944303569
C   C17       1.0  0.19918  0.53056  0.07108  1.0000 -0.09612145
C   C18       1.0  0.53056  0.19918  0.19918  1.0000 -0.0944303569
C   C19       1.0  0.07108  0.19918  0.19918  1.0000 -0.09612145
C   C20       1.0  0.19918  0.07108  0.53056  1.0000 -0.09612145
C   C21       1.0  0.19918  0.53056  0.19918  1.0000 -0.0944303569
C   C22       1.0  0.07108  0.19918  0.53056  1.0000 -0.09612145
C   C23       1.0  0.53056  0.19918  0.07108  1.0000 -0.0944303569
C   C24       1.0  0.19918  0.07108  0.19918  1.0000 -0.0944303569
C   C25       1.0  0.88580  0.75856  0.88580  1.0000 -0.0330417235
C   C26       1.0  0.92976  0.66494  0.92976  1.0000 0.5744874995
C   C27       1.0  0.88580  0.46984  0.88580  1.0000 -0.0330417235
C   C28       1.0  0.92976  0.47554  0.92976  1.0000 0.5744874995
C   C29       1.0  0.75856  0.88580  0.46984  1.0000 -0.0330417235
C   C30       1.0  0.66494  0.92976  0.47554  1.0000 0.5744874995
C   C31       1.0  0.46984  0.88580  0.75856  1.0000 -0.0330417235
C   C32       1.0  0.47554  0.92976  0.66494  1.0000 0.5744874995
C   C33       1.0  0.75856  0.88580  0.88580  1.0000 -0.0330417235
C   C34       1.0  0.66494  0.92976  0.92976  1.0000 0.5744874995
C   C35       1.0  0.46984  0.88580  0.88580  1.0000 -0.0330417235
C   C36       1.0  0.47554  0.92976  0.92976  1.0000 0.5744874995
C   C37       1.0  0.88580  0.46984  0.75856  1.0000 -0.0330417235
C   C38       1.0  0.92976  0.47554  0.66494  1.0000 0.5753461721
C   C39       1.0  0.88580  0.75856  0.46984  1.0000 -0.0330417235
C   C40       1.0  0.92976  0.66494  0.47554  1.0000 0.5744874995
C   C41       1.0  0.88580  0.88580  0.75856  1.0000 -0.0330417235
C   C42       1.0  0.92976  0.92976  0.66494  1.0000 0.5744874995
C   C43       1.0  0.88580  0.88580  0.46984  1.0000 -0.0330417235
C   C44       1.0  0.92976  0.92976  0.47554  1.0000 0.5744874995
C   C45       1.0  0.46984  0.75856  0.88580  1.0000 -0.0330417235
C   C46       1.0  0.47554  0.66494  0.92976  1.0000 0.5744874995
C   C47       1.0  0.75856  0.46984  0.88580  1.0000 -0.0330417235
C   C48       1.0  0.66494  0.47554  0.92976  1.0000 0.5744874995
C   C49       1.0  0.11420  0.53016  0.11420  1.0000 -0.0330417235
C   C50       1.0  0.07024  0.52446  0.07024  1.0000 0.5744874995
C   C51       1.0  0.11420  0.24144  0.11420  1.0000 -0.0330417235
C   C52       1.0  0.07024  0.33506  0.07024  1.0000 0.5744874995
C   C53       1.0  0.24144  0.11420  0.53016  1.0000 -0.0330417235
C   C54       1.0  0.33506  0.07024  0.52446  1.0000 0.5744874995
C   C55       1.0  0.53016  0.11420  0.24144  1.0000 -0.0356299874
C   C56       1.0  0.52446  0.07024  0.33506  1.0000 0.5744874995
C   C57       1.0  0.24144  0.53016  0.11420  1.0000 -0.0356299874
C   C58       1.0  0.33506  0.52446  0.07024  1.0000 0.5744874995
C   C59       1.0  0.53016  0.24144  0.11420  1.0000 -0.0356299874
C   C60       1.0  0.52446  0.33506  0.07024  1.0000 0.5744874995
C   C61       1.0  0.11420  0.11420  0.24144  1.0000 -0.0330417235
C   C62       1.0  0.07024  0.07024  0.33506  1.0000 0.5744874995
C   C63       1.0  0.11420  0.11420  0.53016  1.0000 -0.0330417235
C   C64       1.0  0.07024  0.07024  0.52446  1.0000 0.5753461721
C   C65       1.0  0.11420  0.53016  0.24144  1.0000 -0.0330417235
C   C66       1.0  0.07024  0.52446  0.33506  1.0000 0.5744874995
C   C67       1.0  0.11420  0.24144  0.53016  1.0000 -0.0330417235
C   C68       1.0  0.07024  0.33506  0.52446  1.0000 0.5744874995
C   C69       1.0  0.53016  0.11420  0.11420  1.0000 -0.0356299874
C   C70       1.0  0.52446  0.07024  0.07024  1.0000 0.5744874995
C   C71       1.0  0.24144  0.11420  0.11420  1.0000 -0.0330417235
C   C72       1.0  0.33506  0.07024  0.07024  1.0000 0.5744874995
O   O1        1.0  0.00577  0.62795  0.88719  1.0000 -0.5256401856
O   O2        1.0  0.88719  0.47909  0.00577  1.0000 -0.5256401856
O   O3        1.0  0.62795  0.00577  0.47909  1.0000 -0.5256401856
O   O4        1.0  0.47909  0.88719  0.62795  1.0000 -0.5256401856
O   O5        1.0  0.62795  0.88719  0.00577  1.0000 -0.5256401856
O   O6        1.0  0.47909  0.00577  0.88719  1.0000 -0.5256401856
O   O7        1.0  0.00577  0.47909  0.62795  1.0000 -0.5256401856
O   O8        1.0  0.88719  0.62795  0.47909  1.0000 -0.5256401856
O   O9        1.0  0.88719  0.00577  0.62795  1.0000 -0.5256401856
O   O10       1.0  0.00577  0.88719  0.47909  1.0000 -0.5256401856
O   O11       1.0  0.47909  0.62795  0.00577  1.0000 -0.5256401856
O   O12       1.0  0.62795  0.47909  0.88719  1.0000 -0.5256401856
O   O13       1.0  0.99423  0.52091  0.11281  1.0000 -0.5256401856
O   O14       1.0  0.11281  0.37205  0.99423  1.0000 -0.5256401856
O   O15       1.0  0.37205  0.11281  0.52091  1.0000 -0.5256401856
O   O16       1.0  0.52091  0.99423  0.37205  1.0000 -0.5256401856
O   O17       1.0  0.37205  0.52091  0.99423  1.0000 -0.5256401856
O   O18       1.0  0.52091  0.37205  0.11281  1.0000 -0.5256401856
O   O19       1.0  0.99423  0.11281  0.37205  1.0000 -0.5256401856
O   O20       1.0  0.11281  0.99423  0.52091  1.0000 -0.5256401856
O   O21       1.0  0.11281  0.52091  0.37205  1.0000 -0.5256401856
O   O22       1.0  0.99423  0.37205  0.52091  1.0000 -0.5256401856
O   O23       1.0  0.52091  0.11281  0.99423  1.0000 -0.5256401856
O   O24       1.0  0.37205  0.99423  0.11281  1.0000 -0.5256401856
O   O25       1.0  0.99423  0.37205  0.11281  1.0000 -0.5256401856
O   O26       1.0  0.11281  0.52091  0.99423  1.0000 -0.5256401856
O   O27       1.0  0.37205  0.99423  0.52091  1.0000 -0.5256401856
O   O28       1.0  0.52091  0.11281  0.37205  1.0000 -0.5256401856
O   O29       1.0  0.37205  0.11281  0.99423  1.0000 -0.5256401856
O   O30       1.0  0.52091  0.99423  0.11281  1.0000 -0.5256401856
O   O31       1.0  0.99423  0.52091  0.37205  1.0000 -0.5256401856
O   O32       1.0  0.11281  0.37205  0.52091  1.0000 -0.5256401856
O   O33       1.0  0.11281  0.99423  0.37205  1.0000 -0.5256401856
O   O34       1.0  0.99423  0.11281  0.52091  1.0000 -0.5256401856
O   O35       1.0  0.52091  0.37205  0.99423  1.0000 -0.5256401856
O   O36       1.0  0.37205  0.52091  0.11281  1.0000 -0.5246678588
O   O37       1.0  0.00577  0.47909  0.88719  1.0000 -0.5256401856
O   O38       1.0  0.88719  0.62795  0.00577  1.0000 -0.5256401856
O   O39       1.0  0.62795  0.88719  0.47909  1.0000 -0.5256401856
O   O40       1.0  0.47909  0.00577  0.62795  1.0000 -0.5256401856
O   O41       1.0  0.62795  0.47909  0.00577  1.0000 -0.5256401856
O   O42       1.0  0.47909  0.62795  0.88719  1.0000 -0.5256401856
O   O43       1.0  0.00577  0.88719  0.62795  1.0000 -0.5256401856
O   O44       1.0  0.88719  0.00577  0.47909  1.0000 -0.5256401856
O   O45       1.0  0.88719  0.47909  0.62795  1.0000 -0.5256401856
O   O46       1.0  0.00577  0.62795  0.47909  1.0000 -0.5256401856
O   O47       1.0  0.47909  0.88719  0.00577  1.0000 -0.5256401856
O   O48       1.0  0.62795  0.00577  0.88719  1.0000 -0.5256401856
