# DDEC6 charges by PACMAN v1.1 (https://github.com/mtap-research/PACMAN-charge/)
data_2018[Ho][hcb]2[ASR]1
_chemical_formula_sum              "Ho2 C18 Br6 O12"
_cell_length_a       9.9434
_cell_length_b       10.6296
_cell_length_c       12.788
_cell_angle_alpha    79.606
_cell_angle_beta     72.886
_cell_angle_gamma    86.086

_symmetry_space_group_name_H-M    "P 1"
_symmetry_Int_Tables_number       1

loop_
  _symmetry_equiv_pos_as_xyz
  'x, y, z'

loop_
  _atom_site_type_symbol
  _atom_site_label
  _atom_site_symmetry_multiplicity
  _atom_site_fract_x
  _atom_site_fract_y
  _atom_site_fract_z
  _atom_site_occupancy
  _atom_site_charge
Ho  Ho1       1.0  0.72679  0.18286  0.66988  1.0000 1.9988519158
Ho  Ho2       1.0  0.27321  0.81714  0.33012  1.0000 1.9988519158
C   C1        1.0  0.42390  0.92720  0.95240  1.0000 -0.1694074068
C   C2        1.0  0.52660  0.00980  0.88190  1.0000 0.2914847142
C   C3        1.0  0.60640  0.08990  0.93180  1.0000 0.2914847142
C   C4        1.0  0.61110  0.90440  0.48000  1.0000 -0.1584816022
C   C5        1.0  0.62910  0.00830  0.52640  1.0000 0.2769923068
C   C6        1.0  0.51030  0.11010  0.54800  1.0000 0.2769923068
C   C7        1.0  0.03740  0.50620  0.60050  1.0000 -0.1694074068
C   C8        1.0  0.94980  0.40870  0.59920  1.0000 0.2769923068
C   C9        1.0  0.91190  0.40220  0.49250  1.0000 0.2569399234
C   C10       1.0  0.57610  0.07280  0.04760  1.0000 -0.1694074068
C   C11       1.0  0.47340  0.99020  0.11810  1.0000 0.2914847142
C   C12       1.0  0.39360  0.91010  0.06820  1.0000 0.295031121
C   C13       1.0  0.38890  0.09560  0.52000  1.0000 -0.1584816022
C   C14       1.0  0.37090  0.99170  0.47360  1.0000 0.2769923068
C   C15       1.0  0.48970  0.88990  0.45200  1.0000 0.2769923068
C   C16       1.0  0.96260  0.49380  0.39950  1.0000 -0.1584816022
C   C17       1.0  0.05020  0.59130  0.40080  1.0000 0.2769923068
C   C18       1.0  0.08810  0.59780  0.50750  1.0000 0.2569399234
Br  Br1       1.0  0.32163  0.83318  0.88944  1.0000 0.0036427491
Br  Br2       1.0  0.75895  0.78185  0.45044  1.0000 -0.0328138489
Br  Br3       1.0  0.08408  0.51311  0.73215  1.0000 0.0635642726
Br  Br4       1.0  0.67837  0.16682  0.11056  1.0000 0.0117164776
Br  Br5       1.0  0.24105  0.21815  0.54956  1.0000 -0.042040877
Br  Br6       1.0  0.91592  0.48689  0.26785  1.0000 0.0635642726
O   O1        1.0  0.56130  0.02750  0.77800  1.0000 -0.5362925324
O   O2        1.0  0.69480  0.16450  0.86340  1.0000 -0.5588184092
O   O3        1.0  0.73730  0.03030  0.55320  1.0000 -0.5306447241
O   O4        1.0  0.53510  0.20020  0.58970  1.0000 -0.4946772847
O   O5        1.0  0.89910  0.32300  0.67970  1.0000 -0.5306447241
O   O6        1.0  0.83590  0.30910  0.49820  1.0000 -0.5588184092
O   O7        1.0  0.43870  0.97250  0.22200  1.0000 -0.5362925324
O   O8        1.0  0.30520  0.83550  0.13660  1.0000 -0.5676950011
O   O9        1.0  0.26270  0.96970  0.44680  1.0000 -0.5306447241
O   O10       1.0  0.46490  0.79980  0.41030  1.0000 -0.4981489274
O   O11       1.0  0.10090  0.67700  0.32030  1.0000 -0.5306447241
O   O12       1.0  0.16410  0.69090  0.50180  1.0000 -0.5536668095
