# DDEC6 charges by PACMAN v1.1 (https://github.com/mtap-research/PACMAN-charge/)
data_2018[Fe][nuc]3[ASR]3
_chemical_formula_sum              "Fe12 H56 C120 O52"
_cell_length_a       10.997
_cell_length_b       10.997
_cell_length_c       47.113
_cell_angle_alpha    90
_cell_angle_beta     90
_cell_angle_gamma    90

_symmetry_space_group_name_H-M    "P 1"
_symmetry_Int_Tables_number       1

loop_
  _symmetry_equiv_pos_as_xyz
  'x, y, z'

loop_
  _atom_site_type_symbol
  _atom_site_label
  _atom_site_symmetry_multiplicity
  _atom_site_fract_x
  _atom_site_fract_y
  _atom_site_fract_z
  _atom_site_occupancy
  _atom_site_charge
Fe  Fe1       1.0  0.83729  0.96519  0.47278  1.0000 1.2028032301
Fe  Fe2       1.0  0.16271  0.03481  0.97278  1.0000 1.2028032301
Fe  Fe3       1.0  0.53481  0.33729  0.72278  1.0000 1.2028032301
Fe  Fe4       1.0  0.46519  0.66271  0.22278  1.0000 1.2028032301
Fe  Fe5       1.0  0.66271  0.46519  0.77722  1.0000 1.2028032301
Fe  Fe6       1.0  0.33729  0.53481  0.27722  1.0000 1.2028032301
Fe  Fe7       1.0  0.96519  0.83729  0.52722  1.0000 1.2028032301
Fe  Fe8       1.0  0.03481  0.16271  0.02722  1.0000 1.2028032301
Fe  Fe9       1.0  0.08710  0.08710  0.50000  1.0000 1.1722148714
Fe  Fe10      1.0  0.91290  0.91290  0.00000  1.0000 1.1722148714
Fe  Fe11      1.0  0.41290  0.58710  0.75000  1.0000 1.1722148714
Fe  Fe12      1.0  0.58710  0.41290  0.25000  1.0000 1.1722148714
H   H1        1.0  0.92450  0.46480  0.49500  1.0000 0.1369555632
H   H2        1.0  0.77310  0.64140  0.42900  1.0000 0.1286559138
H   H3        1.0  0.76960  0.27780  0.43120  1.0000 0.1286559138
H   H4        1.0  0.59250  0.59940  0.40300  1.0000 0.1189158649
H   H5        1.0  0.49960  0.59580  0.35940  1.0000 0.1369555632
H   H6        1.0  0.71020  0.31830  0.33630  1.0000 0.1286559138
H   H7        1.0  0.79130  0.31200  0.38150  1.0000 0.1189158649
H   H8        1.0  0.07550  0.53520  0.99500  1.0000 0.1369555632
H   H9        1.0  0.22690  0.35860  0.92900  1.0000 0.1286559138
H   H10       1.0  0.23040  0.72220  0.93120  1.0000 0.1286559138
H   H11       1.0  0.40750  0.40060  0.90300  1.0000 0.1189158649
H   H12       1.0  0.50040  0.40420  0.85940  1.0000 0.1369555632
H   H13       1.0  0.28980  0.68170  0.83630  1.0000 0.1286559138
H   H14       1.0  0.20870  0.68800  0.88150  1.0000 0.1189158649
H   H15       1.0  0.03520  0.42450  0.74500  1.0000 0.1369555632
H   H16       1.0  0.85860  0.27310  0.67900  1.0000 0.1286559138
H   H17       1.0  0.22220  0.26960  0.68120  1.0000 0.1286559138
H   H18       1.0  0.90060  0.09250  0.65300  1.0000 0.1189158649
H   H19       1.0  0.90420  0.99960  0.60940  1.0000 0.1369555632
H   H20       1.0  0.18170  0.21020  0.58630  1.0000 0.1286559138
H   H21       1.0  0.18800  0.29130  0.63150  1.0000 0.1189158649
H   H22       1.0  0.96480  0.57550  0.24500  1.0000 0.1369555632
H   H23       1.0  0.14140  0.72690  0.17900  1.0000 0.1286559138
H   H24       1.0  0.77780  0.73040  0.18120  1.0000 0.1286559138
H   H25       1.0  0.09940  0.90750  0.15300  1.0000 0.1189158649
H   H26       1.0  0.09580  0.00040  0.10940  1.0000 0.1369555632
H   H27       1.0  0.81830  0.78980  0.08630  1.0000 0.1286559138
H   H28       1.0  0.81200  0.70870  0.13150  1.0000 0.1189158649
H   H29       1.0  0.57550  0.96480  0.75500  1.0000 0.1369555632
H   H30       1.0  0.72690  0.14140  0.82100  1.0000 0.1286559138
H   H31       1.0  0.73040  0.77780  0.81880  1.0000 0.1286559138
H   H32       1.0  0.90750  0.09940  0.84700  1.0000 0.1189158649
H   H33       1.0  0.00040  0.09580  0.89060  1.0000 0.1369555632
H   H34       1.0  0.78980  0.81830  0.91370  1.0000 0.1286559138
H   H35       1.0  0.70870  0.81200  0.86850  1.0000 0.1189158649
H   H36       1.0  0.42450  0.03520  0.25500  1.0000 0.1369555632
H   H37       1.0  0.27310  0.85860  0.32100  1.0000 0.1286559138
H   H38       1.0  0.26960  0.22220  0.31880  1.0000 0.1286559138
H   H39       1.0  0.09250  0.90060  0.34700  1.0000 0.1189158649
H   H40       1.0  0.99960  0.90420  0.39060  1.0000 0.1369555632
H   H41       1.0  0.21020  0.18170  0.41370  1.0000 0.1286559138
H   H42       1.0  0.29130  0.18800  0.36850  1.0000 0.1189158649
H   H43       1.0  0.46480  0.92450  0.50500  1.0000 0.1369555632
H   H44       1.0  0.64140  0.77310  0.57100  1.0000 0.1286559138
H   H45       1.0  0.27780  0.76960  0.56880  1.0000 0.1286559138
H   H46       1.0  0.59940  0.59250  0.59700  1.0000 0.1189158649
H   H47       1.0  0.59580  0.49960  0.64060  1.0000 0.1369555632
H   H48       1.0  0.31830  0.71020  0.66370  1.0000 0.1286559138
H   H49       1.0  0.31200  0.79130  0.61850  1.0000 0.1189158649
H   H50       1.0  0.53520  0.07550  0.00500  1.0000 0.1369555632
H   H51       1.0  0.35860  0.22690  0.07100  1.0000 0.1286559138
H   H52       1.0  0.72220  0.23040  0.06880  1.0000 0.1286559138
H   H53       1.0  0.40060  0.40750  0.09700  1.0000 0.1189158649
H   H54       1.0  0.40420  0.50040  0.14060  1.0000 0.1369555632
H   H55       1.0  0.68170  0.28980  0.16370  1.0000 0.1286559138
H   H56       1.0  0.68800  0.20870  0.11850  1.0000 0.1189158649
C   C1        1.0  0.88130  0.23440  0.47932  1.0000 0.6015129494
C   C2        1.0  0.85030  0.35360  0.46522  1.0000 -0.0098360401
C   C3        1.0  0.88210  0.46390  0.47789  1.0000 -0.1033733542
C   C4        1.0  0.85020  0.57140  0.46489  1.0000 -0.0258815657
C   C5        1.0  0.79190  0.56880  0.43811  1.0000 -0.141508152
C   C6        1.0  0.76280  0.45970  0.42547  1.0000 0.0601741095
C   C7        1.0  0.79090  0.35180  0.43935  1.0000 -0.141508152
C   C8        1.0  0.87950  0.69210  0.47782  1.0000 0.6015129494
C   C9        1.0  0.70290  0.45980  0.39697  1.0000 0.0809838186
C   C10       1.0  0.61620  0.54140  0.38976  1.0000 -0.141508152
C   C11       1.0  0.56190  0.54130  0.36336  1.0000 -0.0876599344
C   C12       1.0  0.60030  0.46030  0.34292  1.0000 -0.0258815657
C   C13       1.0  0.68560  0.37490  0.34981  1.0000 -0.0876599344
C   C14       1.0  0.73560  0.37230  0.37675  1.0000 -0.1460585295
C   C15       1.0  0.54610  0.46300  0.31340  1.0000 0.6015129494
C   C16       1.0  0.11870  0.76560  0.97932  1.0000 0.6015129494
C   C17       1.0  0.14970  0.64640  0.96522  1.0000 -0.0098360401
C   C18       1.0  0.11790  0.53610  0.97789  1.0000 -0.1033733542
C   C19       1.0  0.14980  0.42860  0.96489  1.0000 -0.0258815657
C   C20       1.0  0.20810  0.43120  0.93811  1.0000 -0.141508152
C   C21       1.0  0.23720  0.54030  0.92547  1.0000 0.0601741095
C   C22       1.0  0.20910  0.64820  0.93935  1.0000 -0.141508152
C   C23       1.0  0.12050  0.30790  0.97782  1.0000 0.6015129494
C   C24       1.0  0.29710  0.54020  0.89697  1.0000 0.0809838186
C   C25       1.0  0.38380  0.45860  0.88976  1.0000 -0.141508152
C   C26       1.0  0.43810  0.45870  0.86336  1.0000 -0.0876599344
C   C27       1.0  0.39970  0.53970  0.84292  1.0000 -0.0258815657
C   C28       1.0  0.31440  0.62510  0.84981  1.0000 -0.0876599344
C   C29       1.0  0.26440  0.62770  0.87675  1.0000 -0.1460585295
C   C30       1.0  0.45390  0.53700  0.81340  1.0000 0.6015129494
C   C31       1.0  0.26560  0.38130  0.72932  1.0000 0.6015129494
C   C32       1.0  0.14640  0.35030  0.71522  1.0000 -0.0098360401
C   C33       1.0  0.03610  0.38210  0.72789  1.0000 -0.1033733542
C   C34       1.0  0.92860  0.35020  0.71489  1.0000 -0.0258815657
C   C35       1.0  0.93120  0.29190  0.68811  1.0000 -0.141508152
C   C36       1.0  0.04030  0.26280  0.67547  1.0000 0.0601741095
C   C37       1.0  0.14820  0.29090  0.68935  1.0000 -0.141508152
C   C38       1.0  0.80790  0.37950  0.72782  1.0000 0.6015129494
C   C39       1.0  0.04020  0.20290  0.64697  1.0000 0.0809838186
C   C40       1.0  0.95860  0.11620  0.63976  1.0000 -0.141508152
C   C41       1.0  0.95870  0.06190  0.61336  1.0000 -0.0876599344
C   C42       1.0  0.03970  0.10030  0.59292  1.0000 -0.0258815657
C   C43       1.0  0.12510  0.18560  0.59981  1.0000 -0.0876599344
C   C44       1.0  0.12770  0.23560  0.62675  1.0000 -0.1460585295
C   C45       1.0  0.03700  0.04610  0.56340  1.0000 0.6015129494
C   C46       1.0  0.73440  0.61870  0.22932  1.0000 0.6015129494
C   C47       1.0  0.85360  0.64970  0.21522  1.0000 -0.0098360401
C   C48       1.0  0.96390  0.61790  0.22789  1.0000 -0.1033733542
C   C49       1.0  0.07140  0.64980  0.21489  1.0000 -0.0258815657
C   C50       1.0  0.06880  0.70810  0.18811  1.0000 -0.141508152
C   C51       1.0  0.95970  0.73720  0.17547  1.0000 0.0601741095
C   C52       1.0  0.85180  0.70910  0.18935  1.0000 -0.141508152
C   C53       1.0  0.19210  0.62050  0.22782  1.0000 0.6015129494
C   C54       1.0  0.95980  0.79710  0.14697  1.0000 0.0809838186
C   C55       1.0  0.04140  0.88380  0.13976  1.0000 -0.141508152
C   C56       1.0  0.04130  0.93810  0.11336  1.0000 -0.0876599344
C   C57       1.0  0.96030  0.89970  0.09292  1.0000 -0.0249426941
C   C58       1.0  0.87490  0.81440  0.09981  1.0000 -0.0876599344
C   C59       1.0  0.87230  0.76440  0.12675  1.0000 -0.1460585295
C   C60       1.0  0.96300  0.95390  0.06340  1.0000 0.6015129494
C   C61       1.0  0.61870  0.73440  0.77068  1.0000 0.6015129494
C   C62       1.0  0.64970  0.85360  0.78478  1.0000 -0.0098360401
C   C63       1.0  0.61790  0.96390  0.77211  1.0000 -0.1033733542
C   C64       1.0  0.64980  0.07140  0.78511  1.0000 -0.0258815657
C   C65       1.0  0.70810  0.06880  0.81189  1.0000 -0.141508152
C   C66       1.0  0.73720  0.95970  0.82453  1.0000 0.0601741095
C   C67       1.0  0.70910  0.85180  0.81065  1.0000 -0.141508152
C   C68       1.0  0.62050  0.19210  0.77218  1.0000 0.6015129494
C   C69       1.0  0.79710  0.95980  0.85303  1.0000 0.0809838186
C   C70       1.0  0.88380  0.04140  0.86024  1.0000 -0.141508152
C   C71       1.0  0.93810  0.04130  0.88664  1.0000 -0.0876599344
C   C72       1.0  0.89970  0.96030  0.90708  1.0000 -0.0249426941
C   C73       1.0  0.81440  0.87490  0.90019  1.0000 -0.0876599344
C   C74       1.0  0.76440  0.87230  0.87325  1.0000 -0.1460585295
C   C75       1.0  0.95390  0.96300  0.93660  1.0000 0.6015129494
C   C76       1.0  0.38130  0.26560  0.27068  1.0000 0.6015129494
C   C77       1.0  0.35030  0.14640  0.28478  1.0000 -0.0098360401
C   C78       1.0  0.38210  0.03610  0.27211  1.0000 -0.1033733542
C   C79       1.0  0.35020  0.92860  0.28511  1.0000 -0.0258815657
C   C80       1.0  0.29190  0.93120  0.31189  1.0000 -0.141508152
C   C81       1.0  0.26280  0.04030  0.32453  1.0000 0.0601741095
C   C82       1.0  0.29090  0.14820  0.31065  1.0000 -0.141508152
C   C83       1.0  0.37950  0.80790  0.27218  1.0000 0.6015129494
C   C84       1.0  0.20290  0.04020  0.35303  1.0000 0.0809838186
C   C85       1.0  0.11620  0.95860  0.36024  1.0000 -0.141508152
C   C86       1.0  0.06190  0.95870  0.38664  1.0000 -0.0876599344
C   C87       1.0  0.10030  0.03970  0.40708  1.0000 -0.0258815657
C   C88       1.0  0.18560  0.12510  0.40019  1.0000 -0.0876599344
C   C89       1.0  0.23560  0.12770  0.37325  1.0000 -0.1460585295
C   C90       1.0  0.04610  0.03700  0.43660  1.0000 0.6015129494
C   C91       1.0  0.23440  0.88130  0.52068  1.0000 0.6015129494
C   C92       1.0  0.35360  0.85030  0.53478  1.0000 -0.0098360401
C   C93       1.0  0.46390  0.88210  0.52211  1.0000 -0.1033733542
C   C94       1.0  0.57140  0.85020  0.53511  1.0000 -0.0258815657
C   C95       1.0  0.56880  0.79190  0.56189  1.0000 -0.141508152
C   C96       1.0  0.45970  0.76280  0.57453  1.0000 0.0601741095
C   C97       1.0  0.35180  0.79090  0.56065  1.0000 -0.141508152
C   C98       1.0  0.69210  0.87950  0.52218  1.0000 0.6015129494
C   C99       1.0  0.45980  0.70290  0.60303  1.0000 0.0809838186
C   C100      1.0  0.54140  0.61620  0.61024  1.0000 -0.141508152
C   C101      1.0  0.54130  0.56190  0.63664  1.0000 -0.0876599344
C   C102      1.0  0.46030  0.60030  0.65708  1.0000 -0.0258815657
C   C103      1.0  0.37490  0.68560  0.65019  1.0000 -0.0876599344
C   C104      1.0  0.37230  0.73560  0.62325  1.0000 -0.1460585295
C   C105      1.0  0.46300  0.54610  0.68660  1.0000 0.6015129494
C   C106      1.0  0.76560  0.11870  0.02068  1.0000 0.6015129494
C   C107      1.0  0.64640  0.14970  0.03478  1.0000 -0.0098360401
C   C108      1.0  0.53610  0.11790  0.02211  1.0000 -0.1033733542
C   C109      1.0  0.42860  0.14980  0.03511  1.0000 -0.0258815657
C   C110      1.0  0.43120  0.20810  0.06189  1.0000 -0.141508152
C   C111      1.0  0.54030  0.23720  0.07453  1.0000 0.0601741095
C   C112      1.0  0.64820  0.20910  0.06065  1.0000 -0.141508152
C   C113      1.0  0.30790  0.12050  0.02218  1.0000 0.6015129494
C   C114      1.0  0.54020  0.29710  0.10303  1.0000 0.0809838186
C   C115      1.0  0.45860  0.38380  0.11024  1.0000 -0.141508152
C   C116      1.0  0.45870  0.43810  0.13664  1.0000 -0.0876599344
C   C117      1.0  0.53970  0.39970  0.15708  1.0000 -0.0258815657
C   C118      1.0  0.62510  0.31440  0.15019  1.0000 -0.0876599344
C   C119      1.0  0.62770  0.26440  0.12325  1.0000 -0.1460585295
C   C120      1.0  0.53700  0.45390  0.18660  1.0000 0.6015129494
O   O1        1.0  0.81590  0.14560  0.47182  1.0000 -0.5563112142
O   O2        1.0  0.96620  0.23130  0.49669  1.0000 -0.5370224135
O   O3        1.0  0.94690  0.69460  0.49944  1.0000 -0.5321284513
O   O4        1.0  0.82800  0.78250  0.46671  1.0000 -0.5563112142
O   O5        1.0  0.44910  0.52580  0.31092  1.0000 -0.5507303121
O   O6        1.0  0.60080  0.40860  0.29433  1.0000 -0.5321284513
O   O7        1.0  0.18410  0.85440  0.97182  1.0000 -0.5563112142
O   O8        1.0  0.03380  0.76870  0.99669  1.0000 -0.5370224135
O   O9        1.0  0.05310  0.30540  0.99944  1.0000 -0.5321284513
O   O10       1.0  0.17200  0.21750  0.96671  1.0000 -0.5563112142
O   O11       1.0  0.55090  0.47420  0.81092  1.0000 -0.5507303121
O   O12       1.0  0.39920  0.59140  0.79433  1.0000 -0.5321284513
O   O13       1.0  0.35440  0.31590  0.72182  1.0000 -0.5563112142
O   O14       1.0  0.26870  0.46620  0.74669  1.0000 -0.5370224135
O   O15       1.0  0.80540  0.44690  0.74944  1.0000 -0.5321284513
O   O16       1.0  0.71750  0.32800  0.71671  1.0000 -0.5563112142
O   O17       1.0  0.97420  0.94910  0.56092  1.0000 -0.5507303121
O   O18       1.0  0.09140  0.10080  0.54433  1.0000 -0.5321284513
O   O19       1.0  0.64560  0.68410  0.22182  1.0000 -0.5563112142
O   O20       1.0  0.73130  0.53380  0.24669  1.0000 -0.5370224135
O   O21       1.0  0.19460  0.55310  0.24944  1.0000 -0.5321284513
O   O22       1.0  0.28250  0.67200  0.21671  1.0000 -0.5563112142
O   O23       1.0  0.02580  0.05090  0.06092  1.0000 -0.5507303121
O   O24       1.0  0.90860  0.89920  0.04433  1.0000 -0.5321284513
O   O25       1.0  0.68410  0.64560  0.77818  1.0000 -0.5563112142
O   O26       1.0  0.53380  0.73130  0.75331  1.0000 -0.5370224135
O   O27       1.0  0.55310  0.19460  0.75056  1.0000 -0.5321284513
O   O28       1.0  0.67200  0.28250  0.78329  1.0000 -0.5563112142
O   O29       1.0  0.05090  0.02580  0.93908  1.0000 -0.5507303121
O   O30       1.0  0.89920  0.90860  0.95567  1.0000 -0.5321284513
O   O31       1.0  0.31590  0.35440  0.27818  1.0000 -0.5563112142
O   O32       1.0  0.46620  0.26870  0.25331  1.0000 -0.5370224135
O   O33       1.0  0.44690  0.80540  0.25056  1.0000 -0.5321284513
O   O34       1.0  0.32800  0.71750  0.28329  1.0000 -0.5563112142
O   O35       1.0  0.94910  0.97420  0.43908  1.0000 -0.5507303121
O   O36       1.0  0.10080  0.09140  0.45567  1.0000 -0.5321284513
O   O37       1.0  0.14560  0.81590  0.52818  1.0000 -0.5563112142
O   O38       1.0  0.23130  0.96620  0.50331  1.0000 -0.5370224135
O   O39       1.0  0.69460  0.94690  0.50056  1.0000 -0.5321284513
O   O40       1.0  0.78250  0.82800  0.53329  1.0000 -0.5563112142
O   O41       1.0  0.52580  0.44910  0.68908  1.0000 -0.5507303121
O   O42       1.0  0.40860  0.60080  0.70567  1.0000 -0.5321284513
O   O43       1.0  0.85440  0.18410  0.02818  1.0000 -0.5563112142
O   O44       1.0  0.76870  0.03380  0.00331  1.0000 -0.5370224135
O   O45       1.0  0.30540  0.05310  0.00056  1.0000 -0.5321284513
O   O46       1.0  0.21750  0.17200  0.03329  1.0000 -0.5563112142
O   O47       1.0  0.47420  0.55090  0.18908  1.0000 -0.5507303121
O   O48       1.0  0.59140  0.39920  0.20567  1.0000 -0.5321284513
O   O49       1.0  0.96130  0.96130  0.50000  1.0000 -0.9135748985
O   O50       1.0  0.03870  0.03870  0.00000  1.0000 -0.9156378748
O   O51       1.0  0.53870  0.46130  0.75000  1.0000 -0.9135748985
O   O52       1.0  0.46130  0.53870  0.25000  1.0000 -0.9135748985
