# DDEC6 charges by PACMAN v1.1 (https://github.com/mtap-research/PACMAN-charge/)
data_2018[Eu][flu]3[ASR]4
_chemical_formula_sum              "Eu2 P2 H24 C42 O14"
_cell_length_a       10.873
_cell_length_b       11.867
_cell_length_c       14.461
_cell_angle_alpha    74.805
_cell_angle_beta     74.205
_cell_angle_gamma    65.02

_symmetry_space_group_name_H-M    "P 1"
_symmetry_Int_Tables_number       1

loop_
  _symmetry_equiv_pos_as_xyz
  'x, y, z'

loop_
  _atom_site_type_symbol
  _atom_site_label
  _atom_site_symmetry_multiplicity
  _atom_site_fract_x
  _atom_site_fract_y
  _atom_site_fract_z
  _atom_site_occupancy
  _atom_site_charge
Eu  Eu1       1.0  0.00378  0.44832  0.37164  1.0000 2.1214895786
Eu  Eu2       1.0  0.99622  0.55168  0.62836  1.0000 2.1214895786
P   P1        1.0  0.84651  0.28459  0.26947  1.0000 0.9042665304
P   P2        1.0  0.15349  0.71541  0.73053  1.0000 0.9042665304
H   H1        1.0  0.03780  0.09980  0.38050  1.0000 0.1205205397
H   H2        1.0  0.10070  0.88530  0.43640  1.0000 0.1205205397
H   H3        1.0  0.87950  0.87060  0.26170  1.0000 0.1351624967
H   H4        1.0  0.80310  0.08620  0.21440  1.0000 0.1122010603
H   H5        1.0  0.03520  0.18540  0.10690  1.0000 0.1122010603
H   H6        1.0  0.08510  0.25890  0.94310  1.0000 0.1277089657
H   H7        1.0  0.73790  0.56870  0.97080  1.0000 0.1205205397
H   H8        1.0  0.69760  0.49900  0.13740  1.0000 0.1205205397
H   H9        1.0  0.71590  0.32870  0.45560  1.0000 0.1277089657
H   H10       1.0  0.49600  0.36760  0.54770  1.0000 0.1205205397
H   H11       1.0  0.35610  0.38680  0.31300  1.0000 0.1277089657
H   H12       1.0  0.57790  0.33740  0.22140  1.0000 0.1122010603
H   H13       1.0  0.96220  0.90020  0.61950  1.0000 0.1205205397
H   H14       1.0  0.89930  0.11470  0.56360  1.0000 0.1205205397
H   H15       1.0  0.12050  0.12940  0.73830  1.0000 0.1351624967
H   H16       1.0  0.19690  0.91380  0.78560  1.0000 0.1122010603
H   H17       1.0  0.96480  0.81460  0.89310  1.0000 0.1122010603
H   H18       1.0  0.91490  0.74110  0.05690  1.0000 0.1277089657
H   H19       1.0  0.26210  0.43130  0.02920  1.0000 0.1205205397
H   H20       1.0  0.30240  0.50100  0.86260  1.0000 0.1205205397
H   H21       1.0  0.28410  0.67130  0.54440  1.0000 0.1277089657
H   H22       1.0  0.50400  0.63240  0.45230  1.0000 0.1205205397
H   H23       1.0  0.64390  0.61320  0.68700  1.0000 0.1277089657
H   H24       1.0  0.42210  0.66260  0.77860  1.0000 0.1122010603
C   C1        1.0  0.91220  0.11530  0.29400  1.0000 -0.160199643
C   C2        1.0  0.00260  0.05420  0.35890  1.0000 -0.0834655671
C   C3        1.0  0.04120  0.92540  0.39190  1.0000 -0.0980752871
C   C4        1.0  0.99130  0.85660  0.35860  1.0000 -0.0073912381
C   C5        1.0  0.90690  0.91770  0.28840  1.0000 -0.0926036289
C   C6        1.0  0.86370  0.04590  0.25820  1.0000 -0.1063962488
C   C7        1.0  0.02430  0.71750  0.40040  1.0000 0.6306403221
C   C8        1.0  0.86240  0.33480  0.14040  1.0000 -0.160199643
C   C9        1.0  0.97670  0.26360  0.08010  1.0000 -0.0926036289
C   C10       1.0  0.00550  0.30600  0.98160  1.0000 -0.0980752871
C   C11       1.0  0.91350  0.42110  0.93980  1.0000 -0.0045209269
C   C12       1.0  0.79890  0.49220  0.99810  1.0000 -0.0926036289
C   C13       1.0  0.77430  0.44960  0.09820  1.0000 -0.0834655671
C   C14       1.0  0.94410  0.46410  0.83240  1.0000 0.5583603324
C   C15       1.0  0.67000  0.32920  0.32860  1.0000 -0.160199643
C   C16       1.0  0.64420  0.33890  0.42690  1.0000 -0.0692541378
C   C17       1.0  0.51190  0.36380  0.48190  1.0000 -0.0980752871
C   C18       1.0  0.40350  0.38290  0.43910  1.0000 -0.0073912381
C   C19       1.0  0.42880  0.37380  0.34190  1.0000 -0.0926036289
C   C20       1.0  0.56180  0.34540  0.28630  1.0000 -0.0980752871
C   C21       1.0  0.26020  0.41490  0.49980  1.0000 0.620464796
C   C22       1.0  0.08780  0.88470  0.70600  1.0000 -0.160199643
C   C23       1.0  0.99740  0.94580  0.64110  1.0000 -0.0834655671
C   C24       1.0  0.95880  0.07460  0.60810  1.0000 -0.0980752871
C   C25       1.0  0.00870  0.14340  0.64140  1.0000 -0.0073912381
C   C26       1.0  0.09310  0.08230  0.71160  1.0000 -0.0926036289
C   C27       1.0  0.13630  0.95410  0.74180  1.0000 -0.1063962488
C   C28       1.0  0.97570  0.28250  0.59960  1.0000 0.6306403221
C   C29       1.0  0.13760  0.66520  0.85960  1.0000 -0.160199643
C   C30       1.0  0.02330  0.73640  0.91990  1.0000 -0.0926036289
C   C31       1.0  0.99450  0.69400  0.01840  1.0000 -0.0926036289
C   C32       1.0  0.08650  0.57890  0.06020  1.0000 -0.0073912381
C   C33       1.0  0.20110  0.50780  0.00190  1.0000 -0.0926036289
C   C34       1.0  0.22570  0.55040  0.90180  1.0000 -0.0834655671
C   C35       1.0  0.05590  0.53590  0.16760  1.0000 0.5583603324
C   C36       1.0  0.33000  0.67080  0.67140  1.0000 -0.160199643
C   C37       1.0  0.35580  0.66110  0.57310  1.0000 -0.0692541378
C   C38       1.0  0.48810  0.63620  0.51810  1.0000 -0.0980752871
C   C39       1.0  0.59650  0.61710  0.56090  1.0000 -0.0073912381
C   C40       1.0  0.57120  0.62620  0.65810  1.0000 -0.0926036289
C   C41       1.0  0.43820  0.65460  0.71370  1.0000 -0.0980752871
C   C42       1.0  0.73980  0.58510  0.50020  1.0000 0.620464796
O   O1        1.0  0.92180  0.33140  0.31270  1.0000 -0.7751433312
O   O2        1.0  0.05970  0.68170  0.48250  1.0000 -0.6781203507
O   O3        1.0  0.01120  0.65240  0.35150  1.0000 -0.6422071515
O   O4        1.0  0.84560  0.54520  0.79010  1.0000 -0.6629686116
O   O5        1.0  0.06440  0.42340  0.78780  1.0000 -0.5869686959
O   O6        1.0  0.16480  0.42370  0.46260  1.0000 -0.7366891562
O   O7        1.0  0.24190  0.43620  0.58360  1.0000 -0.6067206918
O   O8        1.0  0.07820  0.66860  0.68730  1.0000 -0.7751433312
O   O9        1.0  0.94030  0.31830  0.51750  1.0000 -0.6781203507
O   O10       1.0  0.98880  0.34760  0.64850  1.0000 -0.6422071515
O   O11       1.0  0.15440  0.45480  0.20990  1.0000 -0.6629686116
O   O12       1.0  0.93560  0.57660  0.21220  1.0000 -0.5869686959
O   O13       1.0  0.83520  0.57630  0.53740  1.0000 -0.7366891562
O   O14       1.0  0.75810  0.56380  0.41640  1.0000 -0.6067206918
