# DDEC6 charges by PACMAN v1.1 (https://github.com/mtap-research/PACMAN-charge/)
data_2018[CdFe][flu]3[ASR]1
_chemical_formula_sum              "Cd4 Fe4 H64 C120 N8 O26"
_cell_length_a       11.7597
_cell_length_b       14.8279
_cell_length_c       22.2202
_cell_angle_alpha    89.653
_cell_angle_beta     104.056
_cell_angle_gamma    113.113

_symmetry_space_group_name_H-M    "P 1"
_symmetry_Int_Tables_number       1

loop_
  _symmetry_equiv_pos_as_xyz
  'x, y, z'

loop_
  _atom_site_type_symbol
  _atom_site_label
  _atom_site_symmetry_multiplicity
  _atom_site_fract_x
  _atom_site_fract_y
  _atom_site_fract_z
  _atom_site_occupancy
  _atom_site_charge
Cd  Cd1       1.0  0.34179  0.96839  0.51896  1.0000 1.0207634363
Cd  Cd2       1.0  0.38332  0.76719  0.43232  1.0000 1.0565860066
Cd  Cd3       1.0  0.65821  0.03161  0.48104  1.0000 1.0207634363
Cd  Cd4       1.0  0.61668  0.23281  0.56768  1.0000 1.0565860066
Fe  Fe1       1.0  0.59060  0.65797  0.00321  1.0000 0.8825441989
Fe  Fe2       1.0  0.81777  0.87670  0.98250  1.0000 0.8702031466
Fe  Fe3       1.0  0.40940  0.34203  0.99679  1.0000 0.8702031466
Fe  Fe4       1.0  0.18223  0.12330  0.01750  1.0000 0.8634609374
H   H1        1.0  0.80740  0.54220  0.83910  1.0000 0.1106388405
H   H2        1.0  0.80970  0.46160  0.75250  1.0000 0.1106388405
H   H3        1.0  0.45380  0.42800  0.67130  1.0000 0.1297951192
H   H4        1.0  0.34080  0.49470  0.72780  1.0000 0.1198060104
H   H5        1.0  0.32230  0.55290  0.81640  1.0000 0.1297951192
H   H6        1.0  0.76980  0.54570  0.92360  1.0000 0.0844272095
H   H7        1.0  0.78960  0.79880  0.24940  1.0000 0.1106388405
H   H8        1.0  0.80170  0.87370  0.33960  1.0000 0.1297951192
H   H9        1.0  0.43190  0.82380  0.28440  1.0000 0.1198060104
H   H10       1.0  0.30790  0.74650  0.17750  1.0000 0.1198060104
H   H11       1.0  0.29610  0.68510  0.08410  1.0000 0.1198060104
H   H12       1.0  0.75930  0.70410  0.17600  1.0000 0.089588999
H   H13       1.0  0.87590  0.62980  0.18620  1.0000 0.1297951192
H   H14       1.0  0.03110  0.57660  0.18040  1.0000 0.1198060104
H   H15       1.0  0.03830  0.52370  0.08630  1.0000 0.1106388405
H   H16       1.0  0.88690  0.51800  0.99620  1.0000 0.1198060104
H   H17       1.0  0.69920  0.74060  0.73310  1.0000 0.1198060104
H   H18       1.0  0.63070  0.73860  0.62910  1.0000 0.1297951192
H   H19       1.0  0.53560  0.96600  0.65040  1.0000 0.1297951192
H   H20       1.0  0.55550  0.02800  0.75490  1.0000 0.1106388405
H   H21       1.0  0.63340  0.04060  0.85980  1.0000 0.1297951192
H   H22       1.0  0.82160  0.78660  0.82050  1.0000 0.089588999
H   H23       1.0  0.10570  0.79270  0.19500  1.0000 0.1106388405
H   H24       1.0  0.18420  0.79320  0.30000  1.0000 0.1297951192
H   H25       1.0  0.07240  0.00320  0.33470  1.0000 0.1297951192
H   H26       1.0  0.95180  0.06180  0.24950  1.0000 0.1198060104
H   H27       1.0  0.86320  0.06070  0.14590  1.0000 0.1297951192
H   H28       1.0  0.06680  0.81580  0.10390  1.0000 0.089588999
H   H29       1.0  0.17040  0.78560  0.04960  1.0000 0.1297951192
H   H30       1.0  0.22740  0.71020  0.97910  1.0000 0.1297951192
H   H31       1.0  0.11310  0.67700  0.87600  1.0000 0.1198060104
H   H32       1.0  0.95700  0.73300  0.84010  1.0000 0.1297951192
H   H33       1.0  0.19260  0.45780  0.16090  1.0000 0.1106388405
H   H34       1.0  0.19030  0.53840  0.24750  1.0000 0.1106388405
H   H35       1.0  0.54620  0.57200  0.32870  1.0000 0.1297951192
H   H36       1.0  0.65920  0.50530  0.27220  1.0000 0.1198060104
H   H37       1.0  0.67770  0.44710  0.18360  1.0000 0.1297951192
H   H38       1.0  0.23020  0.45430  0.07640  1.0000 0.0844272095
H   H39       1.0  0.21040  0.20120  0.75060  1.0000 0.1106388405
H   H40       1.0  0.19830  0.12630  0.66040  1.0000 0.1297951192
H   H41       1.0  0.56810  0.17620  0.71560  1.0000 0.1198060104
H   H42       1.0  0.69210  0.25350  0.82250  1.0000 0.1198060104
H   H43       1.0  0.70390  0.31490  0.91590  1.0000 0.1198060104
H   H44       1.0  0.24070  0.29590  0.82400  1.0000 0.089588999
H   H45       1.0  0.12410  0.37020  0.81380  1.0000 0.1297951192
H   H46       1.0  0.96890  0.42340  0.81960  1.0000 0.1198060104
H   H47       1.0  0.96170  0.47630  0.91370  1.0000 0.1106388405
H   H48       1.0  0.11310  0.48200  0.00380  1.0000 0.1198060104
H   H49       1.0  0.30080  0.25940  0.26690  1.0000 0.1198060104
H   H50       1.0  0.36930  0.26140  0.37090  1.0000 0.1297951192
H   H51       1.0  0.46440  0.03400  0.34960  1.0000 0.1297951192
H   H52       1.0  0.44450  0.97200  0.24510  1.0000 0.1106388405
H   H53       1.0  0.36660  0.95940  0.14020  1.0000 0.1297951192
H   H54       1.0  0.17840  0.21340  0.17950  1.0000 0.089588999
H   H55       1.0  0.89430  0.20730  0.80500  1.0000 0.1106388405
H   H56       1.0  0.81580  0.20680  0.70000  1.0000 0.1297951192
H   H57       1.0  0.92760  0.99680  0.66530  1.0000 0.1297951192
H   H58       1.0  0.04820  0.93820  0.75050  1.0000 0.1198060104
H   H59       1.0  0.13680  0.93930  0.85410  1.0000 0.1297951192
H   H60       1.0  0.93320  0.18420  0.89610  1.0000 0.089588999
H   H61       1.0  0.82960  0.21440  0.95040  1.0000 0.1297951192
H   H62       1.0  0.77260  0.28980  0.02090  1.0000 0.1297951192
H   H63       1.0  0.88690  0.32300  0.12400  1.0000 0.1198060104
H   H64       1.0  0.04300  0.26700  0.15990  1.0000 0.1297951192
C   C1        1.0  0.60700  0.55520  0.87230  1.0000 -0.1211672869
C   C2        1.0  0.62150  0.52050  0.81430  1.0000 0.059962239
C   C3        1.0  0.73270  0.51440  0.80710  1.0000 -0.1790188906
C   C4        1.0  0.73580  0.46910  0.75460  1.0000 -0.1211672869
C   C5        1.0  0.62660  0.43390  0.70380  1.0000 0.0020138145
C   C6        1.0  0.52370  0.44790  0.70610  1.0000 -0.1309152625
C   C7        1.0  0.51810  0.49270  0.76060  1.0000 0.0509108043
C   C8        1.0  0.40740  0.50870  0.76370  1.0000 -0.1309152625
C   C9        1.0  0.39600  0.54340  0.81680  1.0000 -0.2210475822
C   C10       1.0  0.49480  0.56590  0.87380  1.0000 0.3220249755
C   C11       1.0  0.70270  0.56130  0.92780  1.0000 0.089588999
C   C12       1.0  0.62390  0.36900  0.65010  1.0000 0.5610478315
C   C13       1.0  0.59150  0.71880  0.14780  1.0000 -0.1211672869
C   C14       1.0  0.60290  0.76570  0.20670  1.0000 0.059962239
C   C15       1.0  0.71660  0.80380  0.25530  1.0000 -0.1529281196
C   C16       1.0  0.72330  0.84700  0.30980  1.0000 -0.0897234018
C   C17       1.0  0.61620  0.85330  0.32320  1.0000 -0.0042022016
C   C18       1.0  0.50380  0.81840  0.27730  1.0000 -0.1529281196
C   C19       1.0  0.49520  0.77500  0.22040  1.0000 0.059962239
C   C20       1.0  0.38030  0.74170  0.17060  1.0000 -0.1211672869
C   C21       1.0  0.37290  0.70410  0.11490  1.0000 -0.2210475822
C   C22       1.0  0.47630  0.69170  0.10040  1.0000 0.3220249755
C   C23       1.0  0.69160  0.69160  0.14070  1.0000 0.1106388405
C   C24       1.0  0.63400  0.90730  0.38580  1.0000 0.5610478315
C   C25       1.0  0.79810  0.58250  0.03580  1.0000 0.1483741172
C   C26       1.0  0.79450  0.61560  0.09420  1.0000 0.1483741172
C   C27       1.0  0.88050  0.61040  0.14750  1.0000 -0.1697787053
C   C28       1.0  0.97170  0.57730  0.14440  1.0000 -0.1004117802
C   C29       1.0  0.97510  0.54550  0.08850  1.0000 -0.1121843936
C   C30       1.0  0.88640  0.54450  0.03390  1.0000 -0.1632401404
C   C31       1.0  0.72180  0.86890  0.82610  1.0000 -0.1121843936
C   C32       1.0  0.66750  0.85810  0.75870  1.0000 0.059962239
C   C33       1.0  0.66850  0.78730  0.71720  1.0000 -0.1632401404
C   C34       1.0  0.62600  0.78540  0.65500  1.0000 -0.0897234018
C   C35       1.0  0.57510  0.85130  0.62820  1.0000 -0.0276156963
C   C36       1.0  0.56880  0.92100  0.66700  1.0000 -0.1392947864
C   C37       1.0  0.61380  0.92250  0.73240  1.0000 0.059962239
C   C38       1.0  0.59840  0.98910  0.77210  1.0000 -0.1121843936
C   C39       1.0  0.64550  0.99670  0.83490  1.0000 -0.2210475822
C   C40       1.0  0.71200  0.94040  0.86360  1.0000 0.3079141173
C   C41       1.0  0.80540  0.82170  0.84960  1.0000 0.089588999
C   C42       1.0  0.53070  0.85210  0.55960  1.0000 0.5824961755
C   C43       1.0  0.98460  0.89940  0.13180  1.0000 -0.1211672869
C   C44       1.0  0.03760  0.89710  0.19890  1.0000 0.059962239
C   C45       1.0  0.09800  0.83570  0.22250  1.0000 -0.1697787053
C   C46       1.0  0.14680  0.83690  0.28580  1.0000 -0.1004117802
C   C47       1.0  0.14130  0.90090  0.32820  1.0000 -0.0276156963
C   C48       1.0  0.07900  0.96080  0.30640  1.0000 -0.1392947864
C   C49       1.0  0.02460  0.95960  0.24170  1.0000 0.0509108043
C   C50       1.0  0.95950  0.02090  0.22060  1.0000 -0.1309152625
C   C51       1.0  0.90760  0.02100  0.15840  1.0000 -0.2210475822
C   C52       1.0  0.92060  0.96120  0.11220  1.0000 0.3220249755
C   C53       1.0  0.01410  0.84820  0.08820  1.0000 0.089588999
C   C54       1.0  0.20360  0.91170  0.39580  1.0000 0.5824961755
C   C55       1.0  0.95670  0.78400  0.92420  1.0000 0.1483741172
C   C56       1.0  0.01900  0.79750  0.98910  1.0000 0.1566210481
C   C57       1.0  0.12380  0.77230  0.00800  1.0000 -0.1697787053
C   C58       1.0  0.15870  0.72820  0.96580  1.0000 -0.0897234018
C   C59       1.0  0.09190  0.71050  0.90370  1.0000 -0.0897234018
C   C60       1.0  0.99630  0.74090  0.88260  1.0000 -0.1790188906
C   C61       1.0  0.39300  0.44480  0.12770  1.0000 -0.1211672869
C   C62       1.0  0.37850  0.47950  0.18570  1.0000 0.059962239
C   C63       1.0  0.26730  0.48560  0.19290  1.0000 -0.1790188906
C   C64       1.0  0.26420  0.53090  0.24540  1.0000 -0.1211672869
C   C65       1.0  0.37340  0.56610  0.29620  1.0000 0.0020138145
C   C66       1.0  0.47630  0.55210  0.29390  1.0000 -0.1309152625
C   C67       1.0  0.48190  0.50730  0.23940  1.0000 0.0509108043
C   C68       1.0  0.59260  0.49130  0.23630  1.0000 -0.1309152625
C   C69       1.0  0.60400  0.45660  0.18320  1.0000 -0.2210475822
C   C70       1.0  0.50520  0.43410  0.12620  1.0000 0.3220249755
C   C71       1.0  0.29730  0.43870  0.07220  1.0000 0.089588999
C   C72       1.0  0.37610  0.63100  0.34990  1.0000 0.5610478315
C   C73       1.0  0.40850  0.28120  0.85220  1.0000 -0.1211672869
C   C74       1.0  0.39710  0.23430  0.79330  1.0000 0.059962239
C   C75       1.0  0.28340  0.19620  0.74470  1.0000 -0.1529281196
C   C76       1.0  0.27670  0.15300  0.69020  1.0000 -0.0897234018
C   C77       1.0  0.38380  0.14670  0.67680  1.0000 -0.0042022016
C   C78       1.0  0.49620  0.18160  0.72270  1.0000 -0.1529281196
C   C79       1.0  0.50480  0.22500  0.77960  1.0000 0.059962239
C   C80       1.0  0.61970  0.25830  0.82940  1.0000 -0.1211672869
C   C81       1.0  0.62710  0.29590  0.88510  1.0000 -0.2210475822
C   C82       1.0  0.52370  0.30830  0.89960  1.0000 0.3220249755
C   C83       1.0  0.30840  0.30840  0.85930  1.0000 0.1106388405
C   C84       1.0  0.36600  0.09270  0.61420  1.0000 0.5610478315
C   C85       1.0  0.20190  0.41750  0.96420  1.0000 0.1483741172
C   C86       1.0  0.20550  0.38440  0.90580  1.0000 0.1483741172
C   C87       1.0  0.11950  0.38960  0.85250  1.0000 -0.1697787053
C   C88       1.0  0.02830  0.42270  0.85560  1.0000 -0.1004117802
C   C89       1.0  0.02490  0.45450  0.91150  1.0000 -0.1121843936
C   C90       1.0  0.11360  0.45550  0.96610  1.0000 -0.1632401404
C   C91       1.0  0.27820  0.13110  0.17390  1.0000 -0.1121843936
C   C92       1.0  0.33250  0.14190  0.24130  1.0000 0.059962239
C   C93       1.0  0.33150  0.21270  0.28280  1.0000 -0.1632401404
C   C94       1.0  0.37400  0.21460  0.34500  1.0000 -0.0897234018
C   C95       1.0  0.42490  0.14870  0.37180  1.0000 -0.0276156963
C   C96       1.0  0.43120  0.07900  0.33300  1.0000 -0.1392947864
C   C97       1.0  0.38620  0.07750  0.26760  1.0000 0.059962239
C   C98       1.0  0.40160  0.01090  0.22790  1.0000 -0.1121843936
C   C99       1.0  0.35450  0.00330  0.16510  1.0000 -0.2210475822
C   C100      1.0  0.28800  0.05960  0.13640  1.0000 0.3079141173
C   C101      1.0  0.19460  0.17830  0.15040  1.0000 0.089588999
C   C102      1.0  0.46930  0.14790  0.44040  1.0000 0.5824961755
C   C103      1.0  0.01540  0.10060  0.86820  1.0000 -0.1211672869
C   C104      1.0  0.96240  0.10290  0.80110  1.0000 0.059962239
C   C105      1.0  0.90200  0.16430  0.77750  1.0000 -0.1697787053
C   C106      1.0  0.85320  0.16310  0.71420  1.0000 -0.1004117802
C   C107      1.0  0.85870  0.09910  0.67180  1.0000 -0.0276156963
C   C108      1.0  0.92100  0.03920  0.69360  1.0000 -0.1392947864
C   C109      1.0  0.97540  0.04040  0.75830  1.0000 0.0509108043
C   C110      1.0  0.04050  0.97910  0.77940  1.0000 -0.1309152625
C   C111      1.0  0.09240  0.97900  0.84160  1.0000 -0.2210475822
C   C112      1.0  0.07940  0.03880  0.88780  1.0000 0.3220249755
C   C113      1.0  0.98590  0.15180  0.91180  1.0000 0.089588999
C   C114      1.0  0.79640  0.08830  0.60420  1.0000 0.5824961755
C   C115      1.0  0.04330  0.21600  0.07580  1.0000 0.1483741172
C   C116      1.0  0.98100  0.20250  0.01090  1.0000 0.1566210481
C   C117      1.0  0.87620  0.22770  0.99200  1.0000 -0.1697787053
C   C118      1.0  0.84130  0.27180  0.03420  1.0000 -0.0897234018
C   C119      1.0  0.90810  0.28950  0.09630  1.0000 -0.0897234018
C   C120      1.0  0.00370  0.25910  0.11740  1.0000 -0.1790188906
N   N1        1.0  0.70300  0.58740  0.98460  1.0000 -0.2733862755
N   N2        1.0  0.69940  0.65190  0.09140  1.0000 -0.2613842693
N   N3        1.0  0.86250  0.82300  0.90900  1.0000 -0.2733862755
N   N4        1.0  0.97210  0.84310  0.02680  1.0000 -0.2733862755
N   N5        1.0  0.29700  0.41260  0.01540  1.0000 -0.2733862755
N   N6        1.0  0.30060  0.34810  0.90860  1.0000 -0.2613842693
N   N7        1.0  0.13750  0.17700  0.09100  1.0000 -0.2733862755
N   N8        1.0  0.02790  0.15690  0.97320  1.0000 -0.2733862755
O   O1        1.0  0.47270  0.59120  0.92410  1.0000 -0.4491644707
O   O2        1.0  0.46120  0.65410  0.04510  1.0000 -0.4564376083
O   O3        1.0  0.67700  0.78240  0.99040  1.0000 -0.712770721
O   O4        1.0  0.76260  0.95850  0.92410  1.0000 -0.4491644707
O   O5        1.0  0.87570  0.96950  0.05430  1.0000 -0.4230877367
O   O6        1.0  0.71230  0.33750  0.65890  1.0000 -0.5806225744
O   O7        1.0  0.53390  0.34570  0.60080  1.0000 -0.5422189442
O   O8        1.0  0.74040  0.95680  0.41810  1.0000 -0.4852583912
O   O9        1.0  0.53060  0.90090  0.39790  1.0000 -0.5978124049
O   O10       1.0  0.26930  0.86360  0.41650  1.0000 -0.5860849229
O   O11       1.0  0.19540  0.97270  0.43210  1.0000 -0.5133187977
O   O12       1.0  0.50900  0.92140  0.53550  1.0000 -0.5978124049
O   O13       1.0  0.51950  0.77740  0.52610  1.0000 -0.5175582078
O   O14       1.0  0.52730  0.40880  0.07590  1.0000 -0.4491644707
O   O15       1.0  0.53880  0.34590  0.95490  1.0000 -0.4564376083
O   O16       1.0  0.32300  0.21760  0.00960  1.0000 -0.712770721
O   O17       1.0  0.23740  0.04150  0.07590  1.0000 -0.4491644707
O   O18       1.0  0.12430  0.03050  0.94570  1.0000 -0.4230877367
O   O19       1.0  0.28770  0.66250  0.34110  1.0000 -0.5806225744
O   O20       1.0  0.46610  0.65430  0.39920  1.0000 -0.5422189442
O   O21       1.0  0.25960  0.04320  0.58190  1.0000 -0.4840123263
O   O22       1.0  0.46940  0.09910  0.60210  1.0000 -0.5978124049
O   O23       1.0  0.73070  0.13640  0.58350  1.0000 -0.5860849229
O   O24       1.0  0.80460  0.02730  0.56790  1.0000 -0.5133187977
O   O25       1.0  0.49100  0.07860  0.46450  1.0000 -0.5978124049
O   O26       1.0  0.48050  0.22260  0.47390  1.0000 -0.5175582078
