# DDEC6 charges by PACMAN v1.1 (https://github.com/mtap-research/PACMAN-charge/)
data_2018[Zn][cds]3[ASR]1
_chemical_formula_sum              "Zn4 H88 C100 N16 O20"
_cell_length_a       14.4323
_cell_length_b       14.4323
_cell_length_c       19.1687
_cell_angle_alpha    57.4479
_cell_angle_beta     122.552
_cell_angle_gamma    125.012

_symmetry_space_group_name_H-M    "P 1"
_symmetry_Int_Tables_number       1

loop_
  _symmetry_equiv_pos_as_xyz
  'x, y, z'

loop_
  _atom_site_type_symbol
  _atom_site_label
  _atom_site_symmetry_multiplicity
  _atom_site_fract_x
  _atom_site_fract_y
  _atom_site_fract_z
  _atom_site_occupancy
  _atom_site_charge
Zn  Zn1       1.0  0.78594  0.21848  0.79365  1.0000 0.7652342515
Zn  Zn2       1.0  0.78152  0.21406  0.29365  1.0000 0.7652342515
Zn  Zn3       1.0  0.21848  0.78594  0.70635  1.0000 0.7652342515
Zn  Zn4       1.0  0.21406  0.78152  0.20635  1.0000 0.7652342515
H   H1        1.0  0.14810  0.33350  0.00400  1.0000 0.1113219881
H   H2        1.0  0.08120  0.40900  0.97670  1.0000 0.1313764021
H   H3        1.0  0.07850  0.20130  0.12590  1.0000 0.0974473015
H   H4        1.0  0.16820  0.33080  0.13060  1.0000 0.0974473015
H   H5        1.0  0.91670  0.25170  0.07370  1.0000 0.0925090455
H   H6        1.0  0.00940  0.37760  0.08480  1.0000 0.1113219881
H   H7        1.0  0.98610  0.15890  0.22460  1.0000 0.1313764021
H   H8        1.0  0.08130  0.28390  0.23640  1.0000 0.1313764021
H   H9        1.0  0.70650  0.03270  0.96010  1.0000 0.1230898943
H   H10       1.0  0.49680  0.12480  0.71970  1.0000 0.1313764021
H   H11       1.0  0.36920  0.97940  0.80840  1.0000 0.1378660199
H   H12       1.0  0.31690  0.85230  0.93100  1.0000 0.1378660199
H   H13       1.0  0.25870  0.69810  0.04950  1.0000 0.1313764021
H   H14       1.0  0.59840  0.73520  0.18990  1.0000 0.1113219881
H   H15       1.0  0.65660  0.88880  0.07100  1.0000 0.1378660199
H   H16       1.0  0.57180  0.73400  0.30010  1.0000 0.1113219881
H   H17       1.0  0.68920  0.68420  0.44530  1.0000 0.1378660199
H   H18       1.0  0.49070  0.33630  0.46990  1.0000 0.1313764021
H   H19       1.0  0.37440  0.38620  0.32650  1.0000 0.1230898943
H   H20       1.0  0.62080  0.29400  0.59630  1.0000 0.1230898943
H   H21       1.0  0.86970  0.50390  0.73870  1.0000 0.1378660199
H   H22       1.0  0.78720  0.62920  0.59300  1.0000 0.1378660199
H   H23       1.0  0.66650  0.85190  0.50400  1.0000 0.1113219881
H   H24       1.0  0.59100  0.91880  0.47670  1.0000 0.1313764021
H   H25       1.0  0.79870  0.92150  0.62590  1.0000 0.0974473015
H   H26       1.0  0.66920  0.83180  0.63060  1.0000 0.0974473015
H   H27       1.0  0.74830  0.08330  0.57370  1.0000 0.0925090455
H   H28       1.0  0.62240  0.99060  0.58480  1.0000 0.1113219881
H   H29       1.0  0.84110  0.01390  0.72460  1.0000 0.1313764021
H   H30       1.0  0.71610  0.91870  0.73640  1.0000 0.1313764021
H   H31       1.0  0.96730  0.29350  0.46010  1.0000 0.1230898943
H   H32       1.0  0.87520  0.50320  0.21970  1.0000 0.1313764021
H   H33       1.0  0.02060  0.63080  0.30840  1.0000 0.1378660199
H   H34       1.0  0.14770  0.68310  0.43100  1.0000 0.1378660199
H   H35       1.0  0.30190  0.74130  0.54950  1.0000 0.1313764021
H   H36       1.0  0.26480  0.40160  0.68990  1.0000 0.1113219881
H   H37       1.0  0.11120  0.34340  0.57100  1.0000 0.1378660199
H   H38       1.0  0.26600  0.42820  0.80010  1.0000 0.1113219881
H   H39       1.0  0.31580  0.31080  0.94530  1.0000 0.1378660199
H   H40       1.0  0.66370  0.50930  0.96990  1.0000 0.1313764021
H   H41       1.0  0.61380  0.62560  0.82650  1.0000 0.1230898943
H   H42       1.0  0.70600  0.37920  0.09630  1.0000 0.1230898943
H   H43       1.0  0.49610  0.13030  0.23870  1.0000 0.1378660199
H   H44       1.0  0.37080  0.21280  0.09300  1.0000 0.1378660199
H   H45       1.0  0.33350  0.14810  0.49600  1.0000 0.1113219881
H   H46       1.0  0.40900  0.08120  0.52330  1.0000 0.1313764021
H   H47       1.0  0.20130  0.07850  0.37410  1.0000 0.0974473015
H   H48       1.0  0.33080  0.16820  0.36940  1.0000 0.0974473015
H   H49       1.0  0.25170  0.91670  0.42630  1.0000 0.0974473015
H   H50       1.0  0.37760  0.00940  0.41520  1.0000 0.1113219881
H   H51       1.0  0.15890  0.98610  0.27540  1.0000 0.1313764021
H   H52       1.0  0.28390  0.08130  0.26360  1.0000 0.1313764021
H   H53       1.0  0.03270  0.70650  0.53990  1.0000 0.1230898943
H   H54       1.0  0.12480  0.49680  0.78030  1.0000 0.1313764021
H   H55       1.0  0.97940  0.36920  0.69160  1.0000 0.1378660199
H   H56       1.0  0.85230  0.31690  0.56900  1.0000 0.1378660199
H   H57       1.0  0.69810  0.25870  0.45050  1.0000 0.1313764021
H   H58       1.0  0.73520  0.59840  0.31010  1.0000 0.1113219881
H   H59       1.0  0.88880  0.65660  0.42900  1.0000 0.1378660199
H   H60       1.0  0.73400  0.57180  0.19990  1.0000 0.1113219881
H   H61       1.0  0.68420  0.68920  0.05470  1.0000 0.1378660199
H   H62       1.0  0.33630  0.49070  0.03010  1.0000 0.1313764021
H   H63       1.0  0.38620  0.37440  0.17350  1.0000 0.1230898943
H   H64       1.0  0.29400  0.62080  0.90370  1.0000 0.1230898943
H   H65       1.0  0.50390  0.86970  0.76130  1.0000 0.1378660199
H   H66       1.0  0.62920  0.78720  0.90700  1.0000 0.1378660199
H   H67       1.0  0.85190  0.66650  0.99600  1.0000 0.1113219881
H   H68       1.0  0.91880  0.59100  0.02330  1.0000 0.1313764021
H   H69       1.0  0.92150  0.79870  0.87410  1.0000 0.0974473015
H   H70       1.0  0.83180  0.66920  0.86940  1.0000 0.0974473015
H   H71       1.0  0.08330  0.74830  0.92630  1.0000 0.0925090455
H   H72       1.0  0.99060  0.62240  0.91520  1.0000 0.1113219881
H   H73       1.0  0.01390  0.84110  0.77540  1.0000 0.1313764021
H   H74       1.0  0.91870  0.71610  0.76360  1.0000 0.1313764021
H   H75       1.0  0.29350  0.96730  0.03990  1.0000 0.1230898943
H   H76       1.0  0.50320  0.87520  0.28030  1.0000 0.1313764021
H   H77       1.0  0.63080  0.02060  0.19160  1.0000 0.1378660199
H   H78       1.0  0.68310  0.14770  0.06900  1.0000 0.1378660199
H   H79       1.0  0.74130  0.30190  0.95050  1.0000 0.1313764021
H   H80       1.0  0.40160  0.26480  0.81010  1.0000 0.1113219881
H   H81       1.0  0.34340  0.11120  0.92900  1.0000 0.1378660199
H   H82       1.0  0.42820  0.26600  0.69990  1.0000 0.1113219881
H   H83       1.0  0.31080  0.31580  0.55470  1.0000 0.1378660199
H   H84       1.0  0.50930  0.66370  0.53010  1.0000 0.1313764021
H   H85       1.0  0.62560  0.61380  0.67350  1.0000 0.1230898943
H   H86       1.0  0.37920  0.70600  0.40370  1.0000 0.1230898943
H   H87       1.0  0.13030  0.49610  0.26130  1.0000 0.1378660199
H   H88       1.0  0.21280  0.37080  0.40700  1.0000 0.1378660199
C   C1        1.0  0.96800  0.25280  0.95090  1.0000 0.6143048303
C   C2        1.0  0.07860  0.32860  0.00460  1.0000 -0.3308493151
C   C3        1.0  0.08840  0.28440  0.09900  1.0000 -0.1385872467
C   C4        1.0  0.99610  0.29390  0.10830  1.0000 -0.1301676734
C   C5        1.0  0.00100  0.24300  0.20170  1.0000 -0.3308493151
C   C6        1.0  0.91230  0.25410  0.21290  1.0000 0.5984533625
C   C7        1.0  0.63867  0.03833  0.91120  1.0000 0.1113219881
C   C8        1.0  0.52318  0.08782  0.78010  1.0000 -0.0324474527
C   C9        1.0  0.45241  0.00799  0.82810  1.0000 -0.1003861409
C   C10       1.0  0.49059  0.88381  0.98860  1.0000 0.1608175216
C   C11       1.0  0.37373  0.82807  0.98310  1.0000 -0.1800747467
C   C12       1.0  0.33900  0.73600  0.05410  1.0000 -0.0833331747
C   C13       1.0  0.42307  0.69913  0.13270  1.0000 -0.0092459143
C   C14       1.0  0.54106  0.75794  0.13750  1.0000 -0.1195484651
C   C15       1.0  0.57632  0.84988  0.06660  1.0000 -0.2004497452
C   C16       1.0  0.37960  0.59080  0.20430  1.0000 0.3301822813
C   C17       1.0  0.46113  0.56567  0.29670  1.0000 -0.0092459143
C   C18       1.0  0.55572  0.65368  0.33430  1.0000 -0.1195484651
C   C19       1.0  0.62619  0.62421  0.42130  1.0000 -0.2004497452
C   C20       1.0  0.60241  0.50459  0.47260  1.0000 0.1608175216
C   C21       1.0  0.50750  0.41670  0.43570  1.0000 -0.1891578613
C   C22       1.0  0.43830  0.44670  0.34990  1.0000 -0.0867719157
C   C23       1.0  0.67251  0.36169  0.61360  1.0000 0.0925090455
C   C24       1.0  0.80941  0.47759  0.69140  1.0000 -0.0092459143
C   C25       1.0  0.76370  0.54690  0.61140  1.0000 -0.1003861409
C   C26       1.0  0.74720  0.03200  0.45090  1.0000 0.6143048303
C   C27       1.0  0.67140  0.92140  0.50460  1.0000 -0.3308493151
C   C28       1.0  0.71560  0.91160  0.59900  1.0000 -0.1385872467
C   C29       1.0  0.70610  0.00390  0.60830  1.0000 -0.1301676734
C   C30       1.0  0.75700  0.99900  0.70170  1.0000 -0.3308493151
C   C31       1.0  0.74590  0.08770  0.71290  1.0000 0.5984533625
C   C32       1.0  0.96167  0.36133  0.41120  1.0000 0.1113219881
C   C33       1.0  0.91218  0.47682  0.28010  1.0000 -0.0324474527
C   C34       1.0  0.99201  0.54759  0.32810  1.0000 -0.1003861409
C   C35       1.0  0.11619  0.50941  0.48860  1.0000 0.1608175216
C   C36       1.0  0.17193  0.62627  0.48310  1.0000 -0.1800747467
C   C37       1.0  0.26400  0.66100  0.55410  1.0000 -0.0833331747
C   C38       1.0  0.30087  0.57693  0.63270  1.0000 -0.0092459143
C   C39       1.0  0.24206  0.45894  0.63750  1.0000 -0.1195484651
C   C40       1.0  0.15012  0.42368  0.56660  1.0000 -0.2004497452
C   C41       1.0  0.40920  0.62040  0.70430  1.0000 0.3301822813
C   C42       1.0  0.43433  0.53887  0.79670  1.0000 -0.0092459143
C   C43       1.0  0.34632  0.44428  0.83430  1.0000 -0.1195484651
C   C44       1.0  0.37579  0.37381  0.92130  1.0000 -0.2004497452
C   C45       1.0  0.49541  0.39759  0.97260  1.0000 0.1608175216
C   C46       1.0  0.58330  0.49250  0.93570  1.0000 -0.1891578613
C   C47       1.0  0.55330  0.56170  0.84990  1.0000 -0.0867719157
C   C48       1.0  0.63831  0.32749  0.11360  1.0000 0.0925090455
C   C49       1.0  0.52241  0.19059  0.19140  1.0000 -0.0092459143
C   C50       1.0  0.45310  0.23630  0.11140  1.0000 -0.1003861409
C   C51       1.0  0.25280  0.96800  0.54910  1.0000 0.6143048303
C   C52       1.0  0.32860  0.07860  0.49540  1.0000 -0.3308493151
C   C53       1.0  0.28440  0.08840  0.40100  1.0000 -0.1385872467
C   C54       1.0  0.29390  0.99610  0.39170  1.0000 -0.1301676734
C   C55       1.0  0.24300  0.00100  0.29830  1.0000 -0.3308493151
C   C56       1.0  0.25410  0.91230  0.28710  1.0000 0.5984533625
C   C57       1.0  0.03833  0.63867  0.58880  1.0000 0.1113219881
C   C58       1.0  0.08782  0.52318  0.71990  1.0000 -0.0324474527
C   C59       1.0  0.00799  0.45241  0.67190  1.0000 -0.1003861409
C   C60       1.0  0.88381  0.49059  0.51140  1.0000 0.1608175216
C   C61       1.0  0.82807  0.37373  0.51690  1.0000 -0.1800747467
C   C62       1.0  0.73600  0.33900  0.44590  1.0000 -0.0833331747
C   C63       1.0  0.69913  0.42307  0.36730  1.0000 -0.0092459143
C   C64       1.0  0.75794  0.54106  0.36250  1.0000 -0.1195484651
C   C65       1.0  0.84988  0.57632  0.43340  1.0000 -0.2004497452
C   C66       1.0  0.59080  0.37960  0.29570  1.0000 0.3301822813
C   C67       1.0  0.56567  0.46113  0.20330  1.0000 -0.0092459143
C   C68       1.0  0.65368  0.55572  0.16570  1.0000 -0.1195484651
C   C69       1.0  0.62421  0.62619  0.07870  1.0000 -0.1891578613
C   C70       1.0  0.50459  0.60241  0.02740  1.0000 0.1608175216
C   C71       1.0  0.41670  0.50750  0.06430  1.0000 -0.1891578613
C   C72       1.0  0.44670  0.43830  0.15010  1.0000 -0.0867719157
C   C73       1.0  0.36169  0.67251  0.88640  1.0000 0.0925090455
C   C74       1.0  0.47759  0.80941  0.80860  1.0000 -0.0092459143
C   C75       1.0  0.54690  0.76370  0.88860  1.0000 -0.1003861409
C   C76       1.0  0.03200  0.74720  0.04910  1.0000 0.6143048303
C   C77       1.0  0.92140  0.67140  0.99540  1.0000 -0.3308493151
C   C78       1.0  0.91160  0.71560  0.90100  1.0000 -0.1385872467
C   C79       1.0  0.00390  0.70610  0.89170  1.0000 -0.1301676734
C   C80       1.0  0.99900  0.75700  0.79830  1.0000 -0.3308493151
C   C81       1.0  0.08770  0.74590  0.78710  1.0000 0.5984533625
C   C82       1.0  0.36133  0.96167  0.08880  1.0000 0.1113219881
C   C83       1.0  0.47682  0.91218  0.21990  1.0000 -0.0324474527
C   C84       1.0  0.54759  0.99201  0.17190  1.0000 -0.1003861409
C   C85       1.0  0.50941  0.11619  0.01140  1.0000 0.1608175216
C   C86       1.0  0.62627  0.17193  0.01690  1.0000 -0.1800747467
C   C87       1.0  0.66100  0.26400  0.94590  1.0000 -0.0833331747
C   C88       1.0  0.57693  0.30087  0.86730  1.0000 -0.0092459143
C   C89       1.0  0.45894  0.24206  0.86250  1.0000 -0.1195484651
C   C90       1.0  0.42368  0.15012  0.93340  1.0000 -0.2004497452
C   C91       1.0  0.62040  0.40920  0.79570  1.0000 0.3301822813
C   C92       1.0  0.53887  0.43433  0.70330  1.0000 -0.0092459143
C   C93       1.0  0.44428  0.34632  0.66570  1.0000 -0.1195484651
C   C94       1.0  0.37381  0.37579  0.57870  1.0000 -0.1891578613
C   C95       1.0  0.39759  0.49541  0.52740  1.0000 0.1608175216
C   C96       1.0  0.49250  0.58330  0.56430  1.0000 -0.1891578613
C   C97       1.0  0.56170  0.55330  0.65010  1.0000 -0.0867719157
C   C98       1.0  0.32749  0.63831  0.38640  1.0000 0.0925090455
C   C99       1.0  0.19059  0.52241  0.30860  1.0000 -0.0092459143
C   C100      1.0  0.23630  0.45310  0.38860  1.0000 -0.1003861409
N   N1        1.0  0.52644  0.97536  0.91347  1.0000 -0.0026813579
N   N2        1.0  0.67552  0.47288  0.56178  1.0000 0.0013974719
N   N3        1.0  0.75279  0.36201  0.69210  1.0000 -0.2820483623
N   N4        1.0  0.64098  0.10882  0.83147  1.0000 -0.2820483623
N   N5        1.0  0.02464  0.47356  0.41347  1.0000 -0.0026813579
N   N6        1.0  0.52712  0.32448  0.06178  1.0000 0.0013974719
N   N7        1.0  0.63799  0.24721  0.19210  1.0000 -0.2820483623
N   N8        1.0  0.89118  0.35902  0.33147  1.0000 -0.2820483623
N   N9        1.0  0.97536  0.52644  0.58653  1.0000 -0.0026813579
N   N10       1.0  0.47288  0.67552  0.93822  1.0000 0.0013974719
N   N11       1.0  0.36201  0.75279  0.80790  1.0000 -0.2820483623
N   N12       1.0  0.10882  0.64098  0.66853  1.0000 -0.2820483623
N   N13       1.0  0.47356  0.02464  0.08653  1.0000 -0.0026813579
N   N14       1.0  0.32448  0.52712  0.43822  1.0000 0.0013974719
N   N15       1.0  0.24721  0.63799  0.30790  1.0000 -0.2820483623
N   N16       1.0  0.35902  0.89118  0.16853  1.0000 -0.2820483623
O   O1        1.0  0.92509  0.30511  0.87210  1.0000 -0.5438141627
O   O2        1.0  0.92570  0.14170  0.98440  1.0000 -0.5731954379
O   O3        1.0  0.88766  0.34234  0.16750  1.0000 -0.55721658
O   O4        1.0  0.86814  0.17006  0.27390  1.0000 -0.55721658
O   O5        1.0  0.27605  0.51795  0.18630  1.0000 -0.390368606
O   O6        1.0  0.69489  0.07491  0.37210  1.0000 -0.5438141627
O   O7        1.0  0.85830  0.07430  0.48440  1.0000 -0.5731954379
O   O8        1.0  0.65766  0.11234  0.66750  1.0000 -0.55721658
O   O9        1.0  0.82994  0.13186  0.77390  1.0000 -0.55721658
O   O10       1.0  0.48205  0.72395  0.68630  1.0000 -0.390368606
O   O11       1.0  0.30511  0.92509  0.62790  1.0000 -0.5438141627
O   O12       1.0  0.14170  0.92570  0.51560  1.0000 -0.5731954379
O   O13       1.0  0.34234  0.88766  0.33250  1.0000 -0.55721658
O   O14       1.0  0.17006  0.86814  0.22610  1.0000 -0.55721658
O   O15       1.0  0.51795  0.27605  0.31370  1.0000 -0.390368606
O   O16       1.0  0.07491  0.69489  0.12790  1.0000 -0.5438141627
O   O17       1.0  0.07430  0.85830  0.01560  1.0000 -0.5731954379
O   O18       1.0  0.11234  0.65766  0.83250  1.0000 -0.55721658
O   O19       1.0  0.13186  0.82994  0.72610  1.0000 -0.55721658
O   O20       1.0  0.72395  0.48205  0.81370  1.0000 -0.390368606
