# DDEC6 charges by PACMAN v1.1 (https://github.com/mtap-research/PACMAN-charge/)
data_2018[Cu][nan]3[ASR]14
_chemical_formula_sum              "Cu12 H56 C128 O40 F48"
_cell_length_a       10.4999
_cell_length_b       32.8063
_cell_length_c       15.2191
_cell_angle_alpha    90
_cell_angle_beta     104.443
_cell_angle_gamma    90

_symmetry_space_group_name_H-M    "P 1"
_symmetry_Int_Tables_number       1

loop_
  _symmetry_equiv_pos_as_xyz
  'x, y, z'

loop_
  _atom_site_type_symbol
  _atom_site_label
  _atom_site_symmetry_multiplicity
  _atom_site_fract_x
  _atom_site_fract_y
  _atom_site_fract_z
  _atom_site_occupancy
  _atom_site_charge
Cu  Cu1       1.0  0.25051  0.72258  0.90970  1.0000 0.97202547
Cu  Cu2       1.0  0.49178  0.78364  0.97907  1.0000 0.97202547
Cu  Cu3       1.0  0.52356  0.72076  0.84642  1.0000 0.9236135685
Cu  Cu4       1.0  0.24949  0.22258  0.09030  1.0000 0.97202547
Cu  Cu5       1.0  0.00822  0.28364  0.02093  1.0000 0.97202547
Cu  Cu6       1.0  0.97644  0.22076  0.15358  1.0000 0.9236135685
Cu  Cu7       1.0  0.74949  0.27742  0.09030  1.0000 0.9752012992
Cu  Cu8       1.0  0.50822  0.21636  0.02093  1.0000 0.97202547
Cu  Cu9       1.0  0.47644  0.27924  0.15358  1.0000 0.9236135685
Cu  Cu10      1.0  0.75051  0.77742  0.90970  1.0000 0.97202547
Cu  Cu11      1.0  0.99178  0.71636  0.97907  1.0000 0.97202547
Cu  Cu12      1.0  0.02356  0.77924  0.84642  1.0000 0.9236135685
H   H1        1.0  0.52220  0.79720  0.82110  1.0000 0.4198308305
H   H2        1.0  0.48040  0.70810  0.99840  1.0000 0.4198308305
H   H3        1.0  0.06480  0.80890  0.59250  1.0000 0.1210178786
H   H4        1.0  0.39590  0.74030  0.50140  1.0000 0.1115813458
H   H5        1.0  0.36830  0.73020  0.64840  1.0000 0.1283051916
H   H6        1.0  0.43790  0.81310  0.23070  1.0000 0.1283051916
H   H7        1.0  0.14450  0.73000  0.17280  1.0000 0.1283051916
H   H8        1.0  0.11760  0.73850  0.31740  1.0000 0.1210178786
H   H9        1.0  0.61530  0.89560  0.12910  1.0000 0.1283051916
H   H10       1.0  0.79450  0.98150  0.94850  1.0000 0.1210178786
H   H11       1.0  0.76520  0.91310  0.91340  1.0000 0.1283051916
H   H12       1.0  0.00460  0.08820  0.16750  1.0000 0.1210178786
H   H13       1.0  0.62650  0.11430  0.04250  1.0000 0.1210178786
H   H14       1.0  0.57810  0.04460  0.02620  1.0000 0.1210178786
H   H15       1.0  0.97780  0.29720  0.17890  1.0000 0.4198308305
H   H16       1.0  0.01960  0.20810  0.00160  1.0000 0.4198308305
H   H17       1.0  0.43520  0.30890  0.40750  1.0000 0.1210178786
H   H18       1.0  0.10410  0.24030  0.49860  1.0000 0.1115813458
H   H19       1.0  0.13170  0.23020  0.35160  1.0000 0.1283051916
H   H20       1.0  0.06210  0.31310  0.76930  1.0000 0.1283051916
H   H21       1.0  0.35550  0.23000  0.82720  1.0000 0.1283051916
H   H22       1.0  0.38240  0.23850  0.68260  1.0000 0.1210178786
H   H23       1.0  0.88470  0.39560  0.87090  1.0000 0.1283051916
H   H24       1.0  0.70550  0.48150  0.05150  1.0000 0.1210178786
H   H25       1.0  0.73480  0.41310  0.08660  1.0000 0.1283051916
H   H26       1.0  0.49540  0.58820  0.83250  1.0000 0.1210178786
H   H27       1.0  0.87350  0.61430  0.95750  1.0000 0.1210178786
H   H28       1.0  0.92190  0.54460  0.97380  1.0000 0.1210178786
H   H29       1.0  0.47780  0.20280  0.17890  1.0000 0.4198308305
H   H30       1.0  0.51960  0.29190  0.00160  1.0000 0.4198308305
H   H31       1.0  0.93520  0.19110  0.40750  1.0000 0.1210178786
H   H32       1.0  0.60410  0.25970  0.49860  1.0000 0.1115813458
H   H33       1.0  0.63170  0.26980  0.35160  1.0000 0.1283051916
H   H34       1.0  0.56210  0.18690  0.76930  1.0000 0.1283051916
H   H35       1.0  0.85550  0.27000  0.82720  1.0000 0.1283051916
H   H36       1.0  0.88240  0.26150  0.68260  1.0000 0.1210178786
H   H37       1.0  0.38470  0.10440  0.87090  1.0000 0.1283051916
H   H38       1.0  0.20550  0.01850  0.05150  1.0000 0.1210178786
H   H39       1.0  0.23480  0.08690  0.08660  1.0000 0.1283051916
H   H40       1.0  0.99540  0.91180  0.83250  1.0000 0.1210178786
H   H41       1.0  0.37350  0.88570  0.95750  1.0000 0.1210178786
H   H42       1.0  0.42190  0.95540  0.97380  1.0000 0.1210178786
H   H43       1.0  0.02220  0.70280  0.82110  1.0000 0.4198308305
H   H44       1.0  0.98040  0.79190  0.99840  1.0000 0.4198308305
H   H45       1.0  0.56480  0.69110  0.59250  1.0000 0.1210178786
H   H46       1.0  0.89590  0.75970  0.50140  1.0000 0.1115813458
H   H47       1.0  0.86830  0.76980  0.64840  1.0000 0.1283051916
H   H48       1.0  0.93790  0.68690  0.23070  1.0000 0.1283051916
H   H49       1.0  0.64450  0.77000  0.17280  1.0000 0.1283051916
H   H50       1.0  0.61760  0.76150  0.31740  1.0000 0.1210178786
H   H51       1.0  0.11530  0.60440  0.12910  1.0000 0.1283051916
H   H52       1.0  0.29450  0.51850  0.94850  1.0000 0.1210178786
H   H53       1.0  0.26520  0.58690  0.91340  1.0000 0.1283051916
H   H54       1.0  0.50460  0.41180  0.16750  1.0000 0.1210178786
H   H55       1.0  0.12650  0.38570  0.04250  1.0000 0.1210178786
H   H56       1.0  0.07810  0.45540  0.02620  1.0000 0.1210178786
C   C1        1.0  0.18900  0.76100  0.72740  1.0000 0.6083551431
C   C2        1.0  0.21380  0.76760  0.63600  1.0000 -0.0076836924
C   C3        1.0  0.13140  0.79410  0.57400  1.0000 -0.1119555964
C   C4        1.0  0.14580  0.79910  0.48610  1.0000 -0.139569016
C   C5        1.0  0.24540  0.77840  0.45870  1.0000 0.0622436692
C   C6        1.0  0.32640  0.75390  0.51900  1.0000 -0.1119555964
C   C7        1.0  0.31060  0.74800  0.60800  1.0000 -0.0883039779
C   C8        1.0  0.04910  0.82640  0.42160  1.0000 0.6457825207
C   C9        1.0  0.26120  0.77940  0.36220  1.0000 0.0622436692
C   C10       1.0  0.35850  0.80180  0.33530  1.0000 -0.139569016
C   C11       1.0  0.37200  0.79770  0.24860  1.0000 -0.1010679438
C   C12       1.0  0.29280  0.77180  0.18590  1.0000 -0.0032985184
C   C13       1.0  0.19820  0.74880  0.21330  1.0000 -0.0883039779
C   C14       1.0  0.18410  0.75370  0.29970  1.0000 -0.1119555964
C   C15       1.0  0.45270  0.82870  0.40240  1.0000 0.6408014917
C   C16       1.0  0.31450  0.76730  0.09300  1.0000 0.6083551431
C   C17       1.0  0.66380  0.85410  0.99320  1.0000 0.6007489466
C   C18       1.0  0.68590  0.89810  0.01700  1.0000 -0.0076836924
C   C19       1.0  0.65350  0.91320  0.09310  1.0000 -0.1119555964
C   C20       1.0  0.67630  0.95440  0.11810  1.0000 -0.1452433563
C   C21       1.0  0.73160  0.97990  0.06430  1.0000 0.0661858721
C   C22       1.0  0.76050  0.96400  0.98690  1.0000 -0.1119555964
C   C23       1.0  0.74070  0.92360  0.96510  1.0000 -0.0799750111
C   C24       1.0  0.63800  0.96960  0.20020  1.0000 0.6236072981
C   C25       1.0  0.76250  0.02440  0.08700  1.0000 0.0661858721
C   C26       1.0  0.88720  0.03780  0.12840  1.0000 -0.139569016
C   C27       1.0  0.91770  0.07960  0.13910  1.0000 -0.1010679438
C   C28       1.0  0.81930  0.10800  0.10760  1.0000 0.0038655528
C   C29       1.0  0.69370  0.09480  0.06500  1.0000 -0.0799750111
C   C30       1.0  0.66490  0.05320  0.05500  1.0000 -0.1157656408
C   C31       1.0  0.99670  0.00880  0.16420  1.0000 0.6297255808
C   C32       1.0  0.84770  0.15290  0.11670  1.0000 0.5706630849
C   C33       1.0  0.31100  0.26100  0.27260  1.0000 0.6007489466
C   C34       1.0  0.28620  0.26760  0.36400  1.0000 -0.0076836924
C   C35       1.0  0.36860  0.29410  0.42600  1.0000 -0.1119555964
C   C36       1.0  0.35420  0.29910  0.51390  1.0000 -0.139569016
C   C37       1.0  0.25460  0.27840  0.54130  1.0000 0.0622436692
C   C38       1.0  0.17360  0.25390  0.48100  1.0000 -0.1119555964
C   C39       1.0  0.18940  0.24800  0.39200  1.0000 -0.0883039779
C   C40       1.0  0.45090  0.32640  0.57840  1.0000 0.6457825207
C   C41       1.0  0.23880  0.27940  0.63780  1.0000 0.0661858721
C   C42       1.0  0.14150  0.30180  0.66470  1.0000 -0.139569016
C   C43       1.0  0.12800  0.29770  0.75140  1.0000 -0.1010679438
C   C44       1.0  0.20720  0.27180  0.81410  1.0000 -0.0032985184
C   C45       1.0  0.30180  0.24880  0.78670  1.0000 -0.0883039779
C   C46       1.0  0.31590  0.25370  0.70030  1.0000 -0.1119555964
C   C47       1.0  0.04730  0.32870  0.59760  1.0000 0.6408014917
C   C48       1.0  0.18550  0.26730  0.90700  1.0000 0.6083551431
C   C49       1.0  0.83620  0.35410  0.00680  1.0000 0.6007489466
C   C50       1.0  0.81410  0.39810  0.98300  1.0000 -0.0076836924
C   C51       1.0  0.84650  0.41320  0.90690  1.0000 -0.1119555964
C   C52       1.0  0.82370  0.45440  0.88190  1.0000 -0.139569016
C   C53       1.0  0.76840  0.47990  0.93570  1.0000 0.0661858721
C   C54       1.0  0.73950  0.46400  0.01310  1.0000 -0.1119555964
C   C55       1.0  0.75930  0.42360  0.03490  1.0000 -0.0799750111
C   C56       1.0  0.86200  0.46960  0.79980  1.0000 0.6236072981
C   C57       1.0  0.73750  0.52440  0.91300  1.0000 0.0661858721
C   C58       1.0  0.61280  0.53780  0.87160  1.0000 -0.139569016
C   C59       1.0  0.58230  0.57960  0.86090  1.0000 -0.1010679438
C   C60       1.0  0.68070  0.60800  0.89240  1.0000 0.0038655528
C   C61       1.0  0.80630  0.59480  0.93500  1.0000 -0.0799750111
C   C62       1.0  0.83510  0.55320  0.94500  1.0000 -0.1157656408
C   C63       1.0  0.50330  0.50880  0.83580  1.0000 0.6297255808
C   C64       1.0  0.65230  0.65290  0.88330  1.0000 0.5706630849
C   C65       1.0  0.81100  0.23900  0.27260  1.0000 0.6007489466
C   C66       1.0  0.78620  0.23240  0.36400  1.0000 -0.0076836924
C   C67       1.0  0.86860  0.20590  0.42600  1.0000 -0.1119555964
C   C68       1.0  0.85420  0.20090  0.51390  1.0000 -0.139569016
C   C69       1.0  0.75460  0.22160  0.54130  1.0000 0.0622436692
C   C70       1.0  0.67360  0.24610  0.48100  1.0000 -0.1119555964
C   C71       1.0  0.68940  0.25200  0.39200  1.0000 -0.0883039779
C   C72       1.0  0.95090  0.17360  0.57840  1.0000 0.6457825207
C   C73       1.0  0.73880  0.22060  0.63780  1.0000 0.0622436692
C   C74       1.0  0.64150  0.19820  0.66470  1.0000 -0.139569016
C   C75       1.0  0.62800  0.20230  0.75140  1.0000 -0.1010679438
C   C76       1.0  0.70720  0.22820  0.81410  1.0000 -0.0032985184
C   C77       1.0  0.80180  0.25120  0.78670  1.0000 -0.0883039779
C   C78       1.0  0.81590  0.24630  0.70030  1.0000 -0.1119555964
C   C79       1.0  0.54730  0.17130  0.59760  1.0000 0.6408014917
C   C80       1.0  0.68550  0.23270  0.90700  1.0000 0.6083551431
C   C81       1.0  0.33620  0.14590  0.00680  1.0000 0.6007489466
C   C82       1.0  0.31410  0.10190  0.98300  1.0000 -0.0076836924
C   C83       1.0  0.34650  0.08680  0.90690  1.0000 -0.1119555964
C   C84       1.0  0.32370  0.04560  0.88190  1.0000 -0.139569016
C   C85       1.0  0.26840  0.02010  0.93570  1.0000 0.0622436692
C   C86       1.0  0.23950  0.03600  0.01310  1.0000 -0.1119555964
C   C87       1.0  0.25930  0.07640  0.03490  1.0000 -0.0799750111
C   C88       1.0  0.36200  0.03040  0.79980  1.0000 0.6236072981
C   C89       1.0  0.23750  0.97560  0.91300  1.0000 0.0661858721
C   C90       1.0  0.11280  0.96220  0.87160  1.0000 -0.139569016
C   C91       1.0  0.08230  0.92040  0.86090  1.0000 -0.1010679438
C   C92       1.0  0.18070  0.89200  0.89240  1.0000 0.0038655528
C   C93       1.0  0.30630  0.90520  0.93500  1.0000 -0.0799750111
C   C94       1.0  0.33510  0.94680  0.94500  1.0000 -0.1157656408
C   C95       1.0  0.00330  0.99120  0.83580  1.0000 0.6297255808
C   C96       1.0  0.15230  0.84710  0.88330  1.0000 0.5706630849
C   C97       1.0  0.68900  0.73900  0.72740  1.0000 0.6007489466
C   C98       1.0  0.71380  0.73240  0.63600  1.0000 -0.0076836924
C   C99       1.0  0.63140  0.70590  0.57400  1.0000 -0.1119555964
C   C100      1.0  0.64580  0.70090  0.48610  1.0000 -0.139569016
C   C101      1.0  0.74540  0.72160  0.45870  1.0000 0.0622436692
C   C102      1.0  0.82640  0.74610  0.51900  1.0000 -0.1119555964
C   C103      1.0  0.81060  0.75200  0.60800  1.0000 -0.0883039779
C   C104      1.0  0.54910  0.67360  0.42160  1.0000 0.6408014917
C   C105      1.0  0.76120  0.72060  0.36220  1.0000 0.0661858721
C   C106      1.0  0.85850  0.69820  0.33530  1.0000 -0.139569016
C   C107      1.0  0.87200  0.70230  0.24860  1.0000 -0.1010679438
C   C108      1.0  0.79280  0.72820  0.18590  1.0000 -0.0032985184
C   C109      1.0  0.69820  0.75120  0.21330  1.0000 -0.0883039779
C   C110      1.0  0.68410  0.74630  0.29970  1.0000 -0.1119555964
C   C111      1.0  0.95270  0.67130  0.40240  1.0000 0.6408014917
C   C112      1.0  0.81450  0.73270  0.09300  1.0000 0.6083551431
C   C113      1.0  0.16380  0.64590  0.99320  1.0000 0.6007489466
C   C114      1.0  0.18590  0.60190  0.01700  1.0000 -0.0076836924
C   C115      1.0  0.15350  0.58680  0.09310  1.0000 -0.1119555964
C   C116      1.0  0.17630  0.54560  0.11810  1.0000 -0.139569016
C   C117      1.0  0.23160  0.52010  0.06430  1.0000 0.0661858721
C   C118      1.0  0.26050  0.53600  0.98690  1.0000 -0.1119555964
C   C119      1.0  0.24070  0.57640  0.96510  1.0000 -0.0799750111
C   C120      1.0  0.13800  0.53040  0.20020  1.0000 0.6236072981
C   C121      1.0  0.26250  0.47560  0.08700  1.0000 0.0661858721
C   C122      1.0  0.38720  0.46220  0.12840  1.0000 -0.139569016
C   C123      1.0  0.41770  0.42040  0.13910  1.0000 -0.1010679438
C   C124      1.0  0.31930  0.39200  0.10760  1.0000 0.0038655528
C   C125      1.0  0.19370  0.40520  0.06500  1.0000 -0.0799750111
C   C126      1.0  0.16490  0.44680  0.05500  1.0000 -0.1157656408
C   C127      1.0  0.49670  0.49120  0.16420  1.0000 0.6297255808
C   C128      1.0  0.34770  0.34710  0.11670  1.0000 0.5706630849
O   O1        1.0  0.08630  0.77858  0.73870  1.0000 -0.5223603345
O   O2        1.0  0.26800  0.73987  0.78530  1.0000 -0.5836189485
O   O3        1.0  0.41700  0.78458  0.08120  1.0000 -0.5223603345
O   O4        1.0  0.23180  0.74725  0.03370  1.0000 -0.6220387316
O   O5        1.0  0.56620  0.83704  0.01230  1.0000 -0.5223603345
O   O6        1.0  0.74500  0.83783  0.95310  1.0000 -0.5663384295
O   O7        1.0  0.97190  0.16230  0.14780  1.0000 -0.5443760848
O   O8        1.0  0.75660  0.17790  0.09670  1.0000 -0.585979352
O   O9        1.0  0.56080  0.77817  0.87210  1.0000 -0.843685726
O   O10       1.0  0.44300  0.72819  0.94910  1.0000 -0.8205396033
O   O11       1.0  0.41370  0.27858  0.26130  1.0000 -0.5223603345
O   O12       1.0  0.23200  0.23987  0.21470  1.0000 -0.5836189485
O   O13       1.0  0.08300  0.28458  0.91880  1.0000 -0.5255003071
O   O14       1.0  0.26820  0.24725  0.96630  1.0000 -0.6220387316
O   O15       1.0  0.93380  0.33704  0.98770  1.0000 -0.5223603345
O   O16       1.0  0.75500  0.33783  0.04690  1.0000 -0.5663384295
O   O17       1.0  0.52810  0.66230  0.85220  1.0000 -0.546410898
O   O18       1.0  0.74340  0.67790  0.90330  1.0000 -0.585979352
O   O19       1.0  0.93920  0.27817  0.12790  1.0000 -0.843685726
O   O20       1.0  0.05700  0.22819  0.05090  1.0000 -0.8205396033
O   O21       1.0  0.91370  0.22142  0.26130  1.0000 -0.5223603345
O   O22       1.0  0.73200  0.26013  0.21470  1.0000 -0.5836189485
O   O23       1.0  0.58300  0.21542  0.91880  1.0000 -0.5255003071
O   O24       1.0  0.76820  0.25275  0.96630  1.0000 -0.6220387316
O   O25       1.0  0.43380  0.16296  0.98770  1.0000 -0.5223603345
O   O26       1.0  0.25500  0.16217  0.04690  1.0000 -0.5663384295
O   O27       1.0  0.02810  0.83770  0.85220  1.0000 -0.5443760848
O   O28       1.0  0.24340  0.82210  0.90330  1.0000 -0.585979352
O   O29       1.0  0.43920  0.22183  0.12790  1.0000 -0.843685726
O   O30       1.0  0.55700  0.27181  0.05090  1.0000 -0.8205396033
O   O31       1.0  0.58630  0.72142  0.73870  1.0000 -0.5223603345
O   O32       1.0  0.76800  0.76013  0.78530  1.0000 -0.5836189485
O   O33       1.0  0.91700  0.71542  0.08120  1.0000 -0.5255003071
O   O34       1.0  0.73180  0.75275  0.03370  1.0000 -0.6220387316
O   O35       1.0  0.06620  0.66296  0.01230  1.0000 -0.5223603345
O   O36       1.0  0.24500  0.66217  0.95310  1.0000 -0.5663384295
O   O37       1.0  0.47190  0.33770  0.14780  1.0000 -0.546410898
O   O38       1.0  0.25660  0.32210  0.09670  1.0000 -0.585979352
O   O39       1.0  0.06080  0.72183  0.87210  1.0000 -0.843685726
O   O40       1.0  0.94300  0.77181  0.94910  1.0000 -0.8205396033
F   F1        1.0  0.97090  0.84660  0.46310  1.0000 -0.2087130596
F   F2        1.0  0.96810  0.80380  0.35560  1.0000 -0.2087130596
F   F3        1.0  0.10560  0.85300  0.37860  1.0000 -0.2007067062
F   F4        1.0  0.53910  0.80680  0.46410  1.0000 -0.2007067062
F   F5        1.0  0.39250  0.85280  0.44860  1.0000 -0.2007067062
F   F6        1.0  0.52220  0.85250  0.36190  1.0000 -0.2007067062
F   F7        1.0  0.61030  0.93970  0.25130  1.0000 -0.2007067062
F   F8        1.0  0.52800  0.99430  0.17420  1.0000 -0.2087130596
F   F9        1.0  0.72690  0.99210  0.25540  1.0000 -0.2087130596
F   F10       1.0  0.96940  0.98250  0.22480  1.0000 -0.2007067062
F   F11       1.0  0.02440  0.98420  0.09940  1.0000 -0.2007067062
F   F12       1.0  0.11070  0.02640  0.20020  1.0000 -0.2007067062
F   F13       1.0  0.52910  0.34660  0.53690  1.0000 -0.2087130596
F   F14       1.0  0.53190  0.30380  0.64440  1.0000 -0.2087130596
F   F15       1.0  0.39440  0.35300  0.62140  1.0000 -0.2007067062
F   F16       1.0  0.96090  0.30680  0.53590  1.0000 -0.2007067062
F   F17       1.0  0.10750  0.35280  0.55140  1.0000 -0.2007067062
F   F18       1.0  0.97780  0.35250  0.63810  1.0000 -0.2007067062
F   F19       1.0  0.88970  0.43970  0.74870  1.0000 -0.2007067062
F   F20       1.0  0.97200  0.49430  0.82580  1.0000 -0.2087130596
F   F21       1.0  0.77310  0.49210  0.74460  1.0000 -0.2087130596
F   F22       1.0  0.53060  0.48250  0.77520  1.0000 -0.2007067062
F   F23       1.0  0.47560  0.48420  0.90060  1.0000 -0.2007067062
F   F24       1.0  0.38930  0.52640  0.79980  1.0000 -0.2007067062
F   F25       1.0  0.02910  0.15340  0.53690  1.0000 -0.2087130596
F   F26       1.0  0.03190  0.19620  0.64440  1.0000 -0.2087130596
F   F27       1.0  0.89440  0.14700  0.62140  1.0000 -0.2007067062
F   F28       1.0  0.46090  0.19320  0.53590  1.0000 -0.2007067062
F   F29       1.0  0.60750  0.14720  0.55140  1.0000 -0.2007067062
F   F30       1.0  0.47780  0.14750  0.63810  1.0000 -0.2007067062
F   F31       1.0  0.38970  0.06030  0.74870  1.0000 -0.2007067062
F   F32       1.0  0.47200  0.00570  0.82580  1.0000 -0.2087130596
F   F33       1.0  0.27310  0.00790  0.74460  1.0000 -0.2087130596
F   F34       1.0  0.03060  0.01750  0.77520  1.0000 -0.2007067062
F   F35       1.0  0.97560  0.01580  0.90060  1.0000 -0.2007067062
F   F36       1.0  0.88930  0.97360  0.79980  1.0000 -0.2007067062
F   F37       1.0  0.47090  0.65340  0.46310  1.0000 -0.2087130596
F   F38       1.0  0.46810  0.69620  0.35560  1.0000 -0.2087130596
F   F39       1.0  0.60560  0.64700  0.37860  1.0000 -0.2007067062
F   F40       1.0  0.03910  0.69320  0.46410  1.0000 -0.2007067062
F   F41       1.0  0.89250  0.64720  0.44860  1.0000 -0.2007067062
F   F42       1.0  0.02220  0.64750  0.36190  1.0000 -0.2007067062
F   F43       1.0  0.11030  0.56030  0.25130  1.0000 -0.2007067062
F   F44       1.0  0.02800  0.50570  0.17420  1.0000 -0.2087130596
F   F45       1.0  0.22690  0.50790  0.25540  1.0000 -0.2087130596
F   F46       1.0  0.46940  0.51750  0.22480  1.0000 -0.2007067062
F   F47       1.0  0.52440  0.51580  0.09940  1.0000 -0.2007067062
F   F48       1.0  0.61070  0.47360  0.20020  1.0000 -0.2007067062
