# DDEC6 charges by PACMAN v1.1 (https://github.com/mtap-research/PACMAN-charge/)
data_2018[Tb][nan]3[ASR]3
_chemical_formula_sum              "Tb4 H4 C10 O24"
_cell_length_a       6.2723
_cell_length_b       8.6246
_cell_length_c       12.9484
_cell_angle_alpha    105.348
_cell_angle_beta     90.404
_cell_angle_gamma    105.058

_symmetry_space_group_name_H-M    "P 1"
_symmetry_Int_Tables_number       1

loop_
  _symmetry_equiv_pos_as_xyz
  'x, y, z'

loop_
  _atom_site_type_symbol
  _atom_site_label
  _atom_site_symmetry_multiplicity
  _atom_site_fract_x
  _atom_site_fract_y
  _atom_site_fract_z
  _atom_site_occupancy
  _atom_site_charge
Tb  Tb1       1.0  0.30922  0.16653  0.57501  1.0000 2.0599213321
Tb  Tb2       1.0  0.05796  0.52809  0.75763  1.0000 1.993691035
Tb  Tb3       1.0  0.69078  0.83347  0.42499  1.0000 2.0599213321
Tb  Tb4       1.0  0.94204  0.47191  0.24237  1.0000 1.993691035
H   H1        1.0  0.48600  0.46500  0.81000  1.0000 0.3747093681
H   H2        1.0  0.33900  0.34200  0.84000  1.0000 0.3747093681
H   H3        1.0  0.51400  0.53500  0.19000  1.0000 0.3747093681
H   H4        1.0  0.66100  0.65800  0.16000  1.0000 0.3747093681
C   C1        1.0  0.95860  0.19620  0.37180  1.0000 0.5249977786
C   C2        1.0  0.23150  0.89400  0.71950  1.0000 0.5262698311
C   C3        1.0  0.44600  0.55060  0.54600  1.0000 0.536016323
C   C4        1.0  0.78410  0.20600  0.63170  1.0000 0.8808149773
C   C5        1.0  0.09410  0.58150  0.02150  1.0000 0.4991928715
C   C6        1.0  0.04140  0.80380  0.62820  1.0000 0.5249977786
C   C7        1.0  0.76850  0.10600  0.28050  1.0000 0.5262698311
C   C8        1.0  0.55400  0.44940  0.45400  1.0000 0.536016323
C   C9        1.0  0.21590  0.79400  0.36830  1.0000 0.8808149773
C   C10       1.0  0.90590  0.41850  0.97850  1.0000 0.4991928715
O   O1        1.0  0.70050  0.33130  0.66210  1.0000 -0.7682120126
O   O2        1.0  0.99560  0.11480  0.43320  1.0000 -0.624695025
O   O3        1.0  0.66090  0.06740  0.57500  1.0000 -0.738278858
O   O4        1.0  0.33920  0.03980  0.72220  1.0000 -0.5681187432
O   O5        1.0  0.32840  0.47160  0.60280  1.0000 -0.6492142003
O   O6        1.0  0.98680  0.23110  0.65930  1.0000 -0.7682120126
O   O7        1.0  0.52130  0.29740  0.44440  1.0000 -0.550185613
O   O8        1.0  0.05750  0.34300  0.37470  1.0000 -0.5789733451
O   O9        1.0  0.26360  0.81580  0.78330  1.0000 -0.5858793479
O   O10       1.0  0.18480  0.65030  0.95290  1.0000 -0.6030794304
O   O11       1.0  0.35650  0.39950  0.79470  1.0000 -0.7565009516
O   O12       1.0  0.85800  0.36910  0.87930  1.0000 -0.5789733451
O   O13       1.0  0.29950  0.66870  0.33790  1.0000 -0.7682120126
O   O14       1.0  0.00440  0.88520  0.56680  1.0000 -0.624695025
O   O15       1.0  0.33910  0.93260  0.42500  1.0000 -0.738278858
O   O16       1.0  0.66080  0.96020  0.27780  1.0000 -0.5681187432
O   O17       1.0  0.67160  0.52840  0.39720  1.0000 -0.6492142003
O   O18       1.0  0.01320  0.76890  0.34070  1.0000 -0.7682120126
O   O19       1.0  0.47870  0.70260  0.55560  1.0000 -0.550185613
O   O20       1.0  0.94250  0.65700  0.62530  1.0000 -0.5789733451
O   O21       1.0  0.73640  0.18420  0.21670  1.0000 -0.5858793479
O   O22       1.0  0.81520  0.34970  0.04710  1.0000 -0.6030794304
O   O23       1.0  0.64350  0.60050  0.20530  1.0000 -0.7565009516
O   O24       1.0  0.14200  0.63090  0.12070  1.0000 -0.5789733451
