# DDEC6 charges by PACMAN v1.1 (https://github.com/mtap-research/PACMAN-charge/)
data_2018[Cd][nuc]3[ASR]2
_chemical_formula_sum              "Cd4 H144 C192 N48"
_cell_length_a       15.9072
_cell_length_b       15.9072
_cell_length_c       21.0961
_cell_angle_alpha    90
_cell_angle_beta     90
_cell_angle_gamma    90

_symmetry_space_group_name_H-M    "P 1"
_symmetry_Int_Tables_number       1

loop_
  _symmetry_equiv_pos_as_xyz
  'x, y, z'

loop_
  _atom_site_type_symbol
  _atom_site_label
  _atom_site_symmetry_multiplicity
  _atom_site_fract_x
  _atom_site_fract_y
  _atom_site_fract_z
  _atom_site_occupancy
  _atom_site_charge
Cd  Cd1       1.0  0.93946  0.93946  0.00000  1.0000 0.6507044368
Cd  Cd2       1.0  0.06054  0.06054  0.50000  1.0000 0.6507044368
Cd  Cd3       1.0  0.56054  0.43946  0.25000  1.0000 0.6507044368
Cd  Cd4       1.0  0.43946  0.56054  0.75000  1.0000 0.6507044368
H   H1        1.0  0.00070  0.75630  0.92620  1.0000 0.0947879114
H   H2        1.0  0.09580  0.65040  0.93210  1.0000 0.1271815374
H   H3        1.0  0.15470  0.73430  0.10580  1.0000 0.1271815374
H   H4        1.0  0.06120  0.83760  0.09450  1.0000 0.0999204338
H   H5        1.0  0.15240  0.52720  0.96590  1.0000 0.1165163078
H   H6        1.0  0.25090  0.42600  0.97540  1.0000 0.1095450262
H   H7        1.0  0.36750  0.44460  0.04210  1.0000 0.1095450262
H   H8        1.0  0.27650  0.67110  0.09130  1.0000 0.0999204338
H   H9        1.0  0.49040  0.69780  0.29520  1.0000 0.1095450262
H   H10       1.0  0.57280  0.80390  0.33300  1.0000 0.1095450262
H   H11       1.0  0.69380  0.84660  0.28200  1.0000 0.0999204338
H   H12       1.0  0.63950  0.69050  0.13860  1.0000 0.1095450262
H   H13       1.0  0.75880  0.70950  0.10300  1.0000 0.1271815374
H   H14       1.0  0.86130  0.76730  0.04230  1.0000 0.0999204338
H   H15       1.0  0.88620  0.95710  0.15360  1.0000 0.0999204338
H   H16       1.0  0.78280  0.90540  0.21990  1.0000 0.1271815374
H   H17       1.0  0.38820  0.75020  0.14940  1.0000 0.2347028189
H   H18       1.0  0.46520  0.75570  0.11250  1.0000 0.2487405063
H   H19       1.0  0.99930  0.24370  0.42620  1.0000 0.0947879114
H   H20       1.0  0.90420  0.34960  0.43210  1.0000 0.1271815374
H   H21       1.0  0.84530  0.26570  0.60580  1.0000 0.1271815374
H   H22       1.0  0.93880  0.16240  0.59450  1.0000 0.0999204338
H   H23       1.0  0.84760  0.47280  0.46590  1.0000 0.1165163078
H   H24       1.0  0.74910  0.57400  0.47540  1.0000 0.1095450262
H   H25       1.0  0.63250  0.55540  0.54210  1.0000 0.1095450262
H   H26       1.0  0.72350  0.32890  0.59130  1.0000 0.0999204338
H   H27       1.0  0.50960  0.30220  0.79520  1.0000 0.1095450262
H   H28       1.0  0.42720  0.19610  0.83300  1.0000 0.1095450262
H   H29       1.0  0.30620  0.15340  0.78200  1.0000 0.0999204338
H   H30       1.0  0.36050  0.30950  0.63860  1.0000 0.1095450262
H   H31       1.0  0.24120  0.29050  0.60300  1.0000 0.1271815374
H   H32       1.0  0.13870  0.23270  0.54230  1.0000 0.0999204338
H   H33       1.0  0.11380  0.04290  0.65360  1.0000 0.0999204338
H   H34       1.0  0.21720  0.09460  0.71990  1.0000 0.1271815374
H   H35       1.0  0.61180  0.24980  0.64940  1.0000 0.2347028189
H   H36       1.0  0.53480  0.24430  0.61250  1.0000 0.2487405063
H   H37       1.0  0.74370  0.50070  0.17620  1.0000 0.0947879114
H   H38       1.0  0.84960  0.59580  0.18210  1.0000 0.1271815374
H   H39       1.0  0.76570  0.65470  0.35580  1.0000 0.1271815374
H   H40       1.0  0.66240  0.56120  0.34450  1.0000 0.0999204338
H   H41       1.0  0.97280  0.65240  0.21590  1.0000 0.1165163078
H   H42       1.0  0.07400  0.75090  0.22540  1.0000 0.1095450262
H   H43       1.0  0.05540  0.86750  0.29210  1.0000 0.1095450262
H   H44       1.0  0.82890  0.77650  0.34130  1.0000 0.0999204338
H   H45       1.0  0.80220  0.99040  0.54520  1.0000 0.1095450262
H   H46       1.0  0.69610  0.07280  0.58300  1.0000 0.1095450262
H   H47       1.0  0.65340  0.19380  0.53200  1.0000 0.0999204338
H   H48       1.0  0.80950  0.13950  0.38860  1.0000 0.1095450262
H   H49       1.0  0.79050  0.25880  0.35300  1.0000 0.1271815374
H   H50       1.0  0.73270  0.36130  0.29230  1.0000 0.0999204338
H   H51       1.0  0.54290  0.38620  0.40360  1.0000 0.0999204338
H   H52       1.0  0.59460  0.28280  0.46990  1.0000 0.1271815374
H   H53       1.0  0.74980  0.88820  0.39940  1.0000 0.2347028189
H   H54       1.0  0.74430  0.96520  0.36250  1.0000 0.2487405063
H   H55       1.0  0.25630  0.49930  0.67620  1.0000 0.0947879114
H   H56       1.0  0.15040  0.40420  0.68210  1.0000 0.1271815374
H   H57       1.0  0.23430  0.34530  0.85580  1.0000 0.1271815374
H   H58       1.0  0.33760  0.43880  0.84450  1.0000 0.0999204338
H   H59       1.0  0.02720  0.34760  0.71590  1.0000 0.1165163078
H   H60       1.0  0.92600  0.24910  0.72540  1.0000 0.1095450262
H   H61       1.0  0.94460  0.13250  0.79210  1.0000 0.1095450262
H   H62       1.0  0.17110  0.22350  0.84130  1.0000 0.0999204338
H   H63       1.0  0.19780  0.00960  0.04520  1.0000 0.1095450262
H   H64       1.0  0.30390  0.92720  0.08300  1.0000 0.1095450262
H   H65       1.0  0.34660  0.80620  0.03200  1.0000 0.0999204338
H   H66       1.0  0.19050  0.86050  0.88860  1.0000 0.1095450262
H   H67       1.0  0.20950  0.74120  0.85300  1.0000 0.1271815374
H   H68       1.0  0.26730  0.63870  0.79230  1.0000 0.0999204338
H   H69       1.0  0.45710  0.61380  0.90360  1.0000 0.0999204338
H   H70       1.0  0.40540  0.71720  0.96990  1.0000 0.1271815374
H   H71       1.0  0.25020  0.11180  0.89940  1.0000 0.2347028189
H   H72       1.0  0.25570  0.03480  0.86250  1.0000 0.2487405063
H   H73       1.0  0.49930  0.25630  0.32380  1.0000 0.0947879114
H   H74       1.0  0.40420  0.15040  0.31790  1.0000 0.1271815374
H   H75       1.0  0.34530  0.23430  0.14420  1.0000 0.1271815374
H   H76       1.0  0.43880  0.33760  0.15550  1.0000 0.0999204338
H   H77       1.0  0.34760  0.02720  0.28410  1.0000 0.1165163078
H   H78       1.0  0.24910  0.92600  0.27460  1.0000 0.1095450262
H   H79       1.0  0.13250  0.94460  0.20790  1.0000 0.1095450262
H   H80       1.0  0.22350  0.17110  0.15870  1.0000 0.0999204338
H   H81       1.0  0.00960  0.19780  0.95480  1.0000 0.1095450262
H   H82       1.0  0.92720  0.30390  0.91700  1.0000 0.1095450262
H   H83       1.0  0.80620  0.34660  0.96800  1.0000 0.0999204338
H   H84       1.0  0.86050  0.19050  0.11140  1.0000 0.1095450262
H   H85       1.0  0.74120  0.20950  0.14700  1.0000 0.1271815374
H   H86       1.0  0.63870  0.26730  0.20770  1.0000 0.0999204338
H   H87       1.0  0.61380  0.45710  0.09640  1.0000 0.0999204338
H   H88       1.0  0.71720  0.40540  0.03010  1.0000 0.1271815374
H   H89       1.0  0.11180  0.25020  0.10060  1.0000 0.2347028189
H   H90       1.0  0.03480  0.25570  0.13750  1.0000 0.2487405063
H   H91       1.0  0.50070  0.74370  0.82380  1.0000 0.0947879114
H   H92       1.0  0.59580  0.84960  0.81790  1.0000 0.1271815374
H   H93       1.0  0.65470  0.76570  0.64420  1.0000 0.1271815374
H   H94       1.0  0.56120  0.66240  0.65550  1.0000 0.0999204338
H   H95       1.0  0.65240  0.97280  0.78410  1.0000 0.1165163078
H   H96       1.0  0.75090  0.07400  0.77460  1.0000 0.1095450262
H   H97       1.0  0.86750  0.05540  0.70790  1.0000 0.1095450262
H   H98       1.0  0.77650  0.82890  0.65870  1.0000 0.0999204338
H   H99       1.0  0.99040  0.80220  0.45480  1.0000 0.1095450262
H   H100      1.0  0.07280  0.69610  0.41700  1.0000 0.1095450262
H   H101      1.0  0.19380  0.65340  0.46800  1.0000 0.0999204338
H   H102      1.0  0.13950  0.80950  0.61140  1.0000 0.1095450262
H   H103      1.0  0.25880  0.79050  0.64700  1.0000 0.1271815374
H   H104      1.0  0.36130  0.73270  0.70770  1.0000 0.0999204338
H   H105      1.0  0.38620  0.54290  0.59640  1.0000 0.0999204338
H   H106      1.0  0.28280  0.59460  0.53010  1.0000 0.1271815374
H   H107      1.0  0.88820  0.74980  0.60060  1.0000 0.2351801478
H   H108      1.0  0.96520  0.74430  0.63750  1.0000 0.2487405063
H   H109      1.0  0.75630  0.00070  0.07380  1.0000 0.0947879114
H   H110      1.0  0.65040  0.09580  0.06790  1.0000 0.1271815374
H   H111      1.0  0.73430  0.15470  0.89420  1.0000 0.1271815374
H   H112      1.0  0.83760  0.06120  0.90550  1.0000 0.0999204338
H   H113      1.0  0.52720  0.15240  0.03410  1.0000 0.1165163078
H   H114      1.0  0.42600  0.25090  0.02460  1.0000 0.1095450262
H   H115      1.0  0.44460  0.36750  0.95790  1.0000 0.1095450262
H   H116      1.0  0.67110  0.27650  0.90870  1.0000 0.0999204338
H   H117      1.0  0.69780  0.49040  0.70480  1.0000 0.1095450262
H   H118      1.0  0.80390  0.57280  0.66700  1.0000 0.1095450262
H   H119      1.0  0.84660  0.69380  0.71800  1.0000 0.0999204338
H   H120      1.0  0.69050  0.63950  0.86140  1.0000 0.1095450262
H   H121      1.0  0.70950  0.75880  0.89700  1.0000 0.1271815374
H   H122      1.0  0.76730  0.86130  0.95770  1.0000 0.0999204338
H   H123      1.0  0.95710  0.88620  0.84640  1.0000 0.0999204338
H   H124      1.0  0.90540  0.78280  0.78010  1.0000 0.1271815374
H   H125      1.0  0.75020  0.38820  0.85060  1.0000 0.2347028189
H   H126      1.0  0.75570  0.46520  0.88750  1.0000 0.2487405063
H   H127      1.0  0.24370  0.99930  0.57380  1.0000 0.0947879114
H   H128      1.0  0.34960  0.90420  0.56790  1.0000 0.1271815374
H   H129      1.0  0.26570  0.84530  0.39420  1.0000 0.1271815374
H   H130      1.0  0.16240  0.93880  0.40550  1.0000 0.0999204338
H   H131      1.0  0.47280  0.84760  0.53410  1.0000 0.1165163078
H   H132      1.0  0.57400  0.74910  0.52460  1.0000 0.1095450262
H   H133      1.0  0.55540  0.63250  0.45790  1.0000 0.1095450262
H   H134      1.0  0.32890  0.72350  0.40870  1.0000 0.0999204338
H   H135      1.0  0.30220  0.50960  0.20480  1.0000 0.1095450262
H   H136      1.0  0.19610  0.42720  0.16700  1.0000 0.1095450262
H   H137      1.0  0.15340  0.30620  0.21800  1.0000 0.0999204338
H   H138      1.0  0.30950  0.36050  0.36140  1.0000 0.1095450262
H   H139      1.0  0.29050  0.24120  0.39700  1.0000 0.1271815374
H   H140      1.0  0.23270  0.13870  0.45770  1.0000 0.0999204338
H   H141      1.0  0.04290  0.11380  0.34640  1.0000 0.0999204338
H   H142      1.0  0.09460  0.21720  0.28010  1.0000 0.1271815374
H   H143      1.0  0.24980  0.61180  0.35060  1.0000 0.2347028189
H   H144      1.0  0.24430  0.53480  0.38750  1.0000 0.2487405063
C   C1        1.0  0.03420  0.75310  0.96220  1.0000 0.05867028
C   C2        1.0  0.09000  0.68760  0.96580  1.0000 -0.2109912048
C   C3        1.0  0.13910  0.67730  0.02200  1.0000 0.1095450262
C   C4        1.0  0.12460  0.73760  0.06810  1.0000 -0.1919001072
C   C5        1.0  0.06930  0.80070  0.06090  1.0000 0.0383672398
C   C6        1.0  0.20240  0.61100  0.02820  1.0000 0.05867028
C   C7        1.0  0.19750  0.53560  0.99320  1.0000 -0.1516202997
C   C8        1.0  0.25660  0.47550  0.99840  1.0000 -0.1104864396
C   C9        1.0  0.32700  0.48640  0.03820  1.0000 -0.1591711222
C   C10       1.0  0.33390  0.56260  0.07210  1.0000 0.0299612819
C   C11       1.0  0.27200  0.62200  0.06750  1.0000 -0.1994454914
C   C12       1.0  0.40560  0.57130  0.11570  1.0000 0.1846376144
C   C13       1.0  0.50250  0.62180  0.17940  1.0000 0.1743113202
C   C14       1.0  0.55660  0.68370  0.20980  1.0000 0.0180391542
C   C15       1.0  0.53610  0.71740  0.27210  1.0000 -0.1777507356
C   C16       1.0  0.58680  0.77870  0.29470  1.0000 -0.0937649953
C   C17       1.0  0.65960  0.80630  0.26330  1.0000 -0.1777507356
C   C18       1.0  0.68040  0.77390  0.20460  1.0000 0.0708444891
C   C19       1.0  0.62690  0.71240  0.17840  1.0000 -0.1994454914
C   C20       1.0  0.75290  0.80510  0.16820  1.0000 0.1095450262
C   C21       1.0  0.78160  0.76140  0.11390  1.0000 -0.2109912048
C   C22       1.0  0.84330  0.79690  0.07780  1.0000 0.0299612819
C   C23       1.0  0.85850  0.90790  0.14220  1.0000 0.0708444891
C   C24       1.0  0.79550  0.87670  0.18270  1.0000 -0.2109912048
C   C25       1.0  0.96580  0.24690  0.46220  1.0000 0.05867028
C   C26       1.0  0.91000  0.31240  0.46580  1.0000 -0.2109912048
C   C27       1.0  0.86090  0.32270  0.52200  1.0000 0.1095450262
C   C28       1.0  0.87540  0.26240  0.56810  1.0000 -0.1919001072
C   C29       1.0  0.93070  0.19930  0.56090  1.0000 0.0383672398
C   C30       1.0  0.79760  0.38900  0.52820  1.0000 0.05867028
C   C31       1.0  0.80250  0.46440  0.49320  1.0000 -0.1516202997
C   C32       1.0  0.74340  0.52450  0.49840  1.0000 -0.1104864396
C   C33       1.0  0.67300  0.51360  0.53820  1.0000 -0.1591711222
C   C34       1.0  0.66610  0.43740  0.57210  1.0000 0.0383672398
C   C35       1.0  0.72800  0.37800  0.56750  1.0000 -0.1994454914
C   C36       1.0  0.59440  0.42870  0.61570  1.0000 0.1846376144
C   C37       1.0  0.49750  0.37820  0.67940  1.0000 0.1743113202
C   C38       1.0  0.44340  0.31630  0.70980  1.0000 0.0180391542
C   C39       1.0  0.46390  0.28260  0.77210  1.0000 -0.1777507356
C   C40       1.0  0.41320  0.22130  0.79470  1.0000 -0.0937649953
C   C41       1.0  0.34040  0.19370  0.76330  1.0000 -0.1777507356
C   C42       1.0  0.31960  0.22610  0.70460  1.0000 0.0708444891
C   C43       1.0  0.37310  0.28760  0.67840  1.0000 -0.1994454914
C   C44       1.0  0.24710  0.19490  0.66820  1.0000 0.1095450262
C   C45       1.0  0.21840  0.23860  0.61390  1.0000 -0.2109912048
C   C46       1.0  0.15670  0.20310  0.57780  1.0000 0.0299612819
C   C47       1.0  0.14150  0.09210  0.64220  1.0000 0.0708444891
C   C48       1.0  0.20450  0.12330  0.68270  1.0000 -0.2109912048
C   C49       1.0  0.74690  0.53420  0.21220  1.0000 0.05867028
C   C50       1.0  0.81240  0.59000  0.21580  1.0000 -0.2109912048
C   C51       1.0  0.82270  0.63910  0.27200  1.0000 0.1095450262
C   C52       1.0  0.76240  0.62460  0.31810  1.0000 -0.1919001072
C   C53       1.0  0.69930  0.56930  0.31090  1.0000 0.0383672398
C   C54       1.0  0.88900  0.70240  0.27820  1.0000 0.05867028
C   C55       1.0  0.96440  0.69750  0.24320  1.0000 -0.1516202997
C   C56       1.0  0.02450  0.75660  0.24840  1.0000 -0.1104864396
C   C57       1.0  0.01360  0.82700  0.28820  1.0000 -0.1591711222
C   C58       1.0  0.93740  0.83390  0.32210  1.0000 0.0383672398
C   C59       1.0  0.87800  0.77200  0.31750  1.0000 -0.1994454914
C   C60       1.0  0.92870  0.90560  0.36570  1.0000 0.1846376144
C   C61       1.0  0.87820  0.00250  0.42940  1.0000 0.1743113202
C   C62       1.0  0.81630  0.05660  0.45980  1.0000 0.0180391542
C   C63       1.0  0.78260  0.03610  0.52210  1.0000 -0.1777507356
C   C64       1.0  0.72130  0.08680  0.54470  1.0000 -0.0937649953
C   C65       1.0  0.69370  0.15960  0.51330  1.0000 -0.1777507356
C   C66       1.0  0.72610  0.18040  0.45460  1.0000 0.0708444891
C   C67       1.0  0.78760  0.12690  0.42840  1.0000 -0.1994454914
C   C68       1.0  0.69490  0.25290  0.41820  1.0000 0.1095450262
C   C69       1.0  0.73860  0.28160  0.36390  1.0000 -0.2109912048
C   C70       1.0  0.70310  0.34330  0.32780  1.0000 0.0299612819
C   C71       1.0  0.59210  0.35850  0.39220  1.0000 0.0708444891
C   C72       1.0  0.62330  0.29550  0.43270  1.0000 -0.2109912048
C   C73       1.0  0.25310  0.46580  0.71220  1.0000 0.05867028
C   C74       1.0  0.18760  0.41000  0.71580  1.0000 -0.2109912048
C   C75       1.0  0.17730  0.36090  0.77200  1.0000 0.1095450262
C   C76       1.0  0.23760  0.37540  0.81810  1.0000 -0.1919001072
C   C77       1.0  0.30070  0.43070  0.81090  1.0000 0.0383672398
C   C78       1.0  0.11100  0.29760  0.77820  1.0000 0.0708444891
C   C79       1.0  0.03560  0.30250  0.74320  1.0000 -0.1516202997
C   C80       1.0  0.97550  0.24340  0.74840  1.0000 -0.1104864396
C   C81       1.0  0.98640  0.17300  0.78820  1.0000 -0.1591711222
C   C82       1.0  0.06260  0.16610  0.82210  1.0000 0.0299612819
C   C83       1.0  0.12200  0.22800  0.81750  1.0000 -0.1919001072
C   C84       1.0  0.07130  0.09440  0.86570  1.0000 0.1846376144
C   C85       1.0  0.12180  0.99750  0.92940  1.0000 0.1743113202
C   C86       1.0  0.18370  0.94340  0.95980  1.0000 0.0180391542
C   C87       1.0  0.21740  0.96390  0.02210  1.0000 -0.1777507356
C   C88       1.0  0.27870  0.91320  0.04470  1.0000 -0.0937649953
C   C89       1.0  0.30630  0.84040  0.01330  1.0000 -0.1777507356
C   C90       1.0  0.27390  0.81960  0.95460  1.0000 0.0708444891
C   C91       1.0  0.21240  0.87310  0.92840  1.0000 -0.1994454914
C   C92       1.0  0.30510  0.74710  0.91820  1.0000 0.1095450262
C   C93       1.0  0.26140  0.71840  0.86390  1.0000 -0.2109912048
C   C94       1.0  0.29690  0.65670  0.82780  1.0000 0.0299612819
C   C95       1.0  0.40790  0.64150  0.89220  1.0000 0.0708444891
C   C96       1.0  0.37670  0.70450  0.93270  1.0000 -0.2109912048
C   C97       1.0  0.46580  0.25310  0.28780  1.0000 0.05867028
C   C98       1.0  0.41000  0.18760  0.28420  1.0000 -0.2109912048
C   C99       1.0  0.36090  0.17730  0.22800  1.0000 0.1095450262
C   C100      1.0  0.37540  0.23760  0.18190  1.0000 -0.1919001072
C   C101      1.0  0.43070  0.30070  0.18910  1.0000 0.0383672398
C   C102      1.0  0.29760  0.11100  0.22180  1.0000 0.0708444891
C   C103      1.0  0.30250  0.03560  0.25680  1.0000 -0.1516202997
C   C104      1.0  0.24340  0.97550  0.25160  1.0000 -0.1104864396
C   C105      1.0  0.17300  0.98640  0.21180  1.0000 -0.1591711222
C   C106      1.0  0.16610  0.06260  0.17790  1.0000 0.0299612819
C   C107      1.0  0.22800  0.12200  0.18250  1.0000 -0.1919001072
C   C108      1.0  0.09440  0.07130  0.13430  1.0000 0.1846376144
C   C109      1.0  0.99750  0.12180  0.07060  1.0000 0.1743113202
C   C110      1.0  0.94340  0.18370  0.04020  1.0000 0.0180391542
C   C111      1.0  0.96390  0.21740  0.97790  1.0000 -0.1777507356
C   C112      1.0  0.91320  0.27870  0.95530  1.0000 -0.0937649953
C   C113      1.0  0.84040  0.30630  0.98670  1.0000 -0.1777507356
C   C114      1.0  0.81960  0.27390  0.04540  1.0000 0.0708444891
C   C115      1.0  0.87310  0.21240  0.07160  1.0000 -0.1994454914
C   C116      1.0  0.74710  0.30510  0.08180  1.0000 0.1095450262
C   C117      1.0  0.71840  0.26140  0.13610  1.0000 -0.2109912048
C   C118      1.0  0.65670  0.29690  0.17220  1.0000 0.0299612819
C   C119      1.0  0.64150  0.40790  0.10780  1.0000 0.0708444891
C   C120      1.0  0.70450  0.37670  0.06730  1.0000 -0.2109912048
C   C121      1.0  0.53420  0.74690  0.78780  1.0000 0.05867028
C   C122      1.0  0.59000  0.81240  0.78420  1.0000 -0.2109912048
C   C123      1.0  0.63910  0.82270  0.72800  1.0000 0.1095450262
C   C124      1.0  0.62460  0.76240  0.68190  1.0000 -0.1919001072
C   C125      1.0  0.56930  0.69930  0.68910  1.0000 0.0383672398
C   C126      1.0  0.70240  0.88900  0.72180  1.0000 0.05867028
C   C127      1.0  0.69750  0.96440  0.75680  1.0000 -0.1516202997
C   C128      1.0  0.75660  0.02450  0.75160  1.0000 -0.1104864396
C   C129      1.0  0.82700  0.01360  0.71180  1.0000 -0.1591711222
C   C130      1.0  0.83390  0.93740  0.67790  1.0000 0.0383672398
C   C131      1.0  0.77200  0.87800  0.68250  1.0000 -0.1919001072
C   C132      1.0  0.90560  0.92870  0.63430  1.0000 0.1846376144
C   C133      1.0  0.00250  0.87820  0.57060  1.0000 0.1743113202
C   C134      1.0  0.05660  0.81630  0.54020  1.0000 0.0180391542
C   C135      1.0  0.03610  0.78260  0.47790  1.0000 -0.1777507356
C   C136      1.0  0.08680  0.72130  0.45530  1.0000 -0.0937649953
C   C137      1.0  0.15960  0.69370  0.48670  1.0000 -0.1777507356
C   C138      1.0  0.18040  0.72610  0.54540  1.0000 0.0708444891
C   C139      1.0  0.12690  0.78760  0.57160  1.0000 -0.1994454914
C   C140      1.0  0.25290  0.69490  0.58180  1.0000 0.1095450262
C   C141      1.0  0.28160  0.73860  0.63610  1.0000 -0.2109912048
C   C142      1.0  0.34330  0.70310  0.67220  1.0000 0.0299612819
C   C143      1.0  0.35850  0.59210  0.60780  1.0000 0.0708444891
C   C144      1.0  0.29550  0.62330  0.56730  1.0000 -0.2109912048
C   C145      1.0  0.75310  0.03420  0.03780  1.0000 0.05867028
C   C146      1.0  0.68760  0.09000  0.03420  1.0000 -0.2109912048
C   C147      1.0  0.67730  0.13910  0.97800  1.0000 0.1095450262
C   C148      1.0  0.73760  0.12460  0.93190  1.0000 -0.1919001072
C   C149      1.0  0.80070  0.06930  0.93910  1.0000 0.0383672398
C   C150      1.0  0.61100  0.20240  0.97180  1.0000 0.05867028
C   C151      1.0  0.53560  0.19750  0.00680  1.0000 -0.1516202997
C   C152      1.0  0.47550  0.25660  0.00160  1.0000 -0.1104864396
C   C153      1.0  0.48640  0.32700  0.96180  1.0000 -0.1591711222
C   C154      1.0  0.56260  0.33390  0.92790  1.0000 0.0299612819
C   C155      1.0  0.62200  0.27200  0.93250  1.0000 -0.1919001072
C   C156      1.0  0.57130  0.40560  0.88430  1.0000 0.1846376144
C   C157      1.0  0.62180  0.50250  0.82060  1.0000 0.1743113202
C   C158      1.0  0.68370  0.55660  0.79020  1.0000 0.0180391542
C   C159      1.0  0.71740  0.53610  0.72790  1.0000 -0.1777507356
C   C160      1.0  0.77870  0.58680  0.70530  1.0000 -0.0937649953
C   C161      1.0  0.80630  0.65960  0.73670  1.0000 -0.1777507356
C   C162      1.0  0.77390  0.68040  0.79540  1.0000 0.0708444891
C   C163      1.0  0.71240  0.62690  0.82160  1.0000 -0.1994454914
C   C164      1.0  0.80510  0.75290  0.83180  1.0000 0.1095450262
C   C165      1.0  0.76140  0.78160  0.88610  1.0000 -0.2109912048
C   C166      1.0  0.79690  0.84330  0.92220  1.0000 0.0299612819
C   C167      1.0  0.90790  0.85850  0.85780  1.0000 0.0708444891
C   C168      1.0  0.87670  0.79550  0.81730  1.0000 -0.2109912048
C   C169      1.0  0.24690  0.96580  0.53780  1.0000 0.05867028
C   C170      1.0  0.31240  0.91000  0.53420  1.0000 -0.2109912048
C   C171      1.0  0.32270  0.86090  0.47800  1.0000 0.1095450262
C   C172      1.0  0.26240  0.87540  0.43190  1.0000 -0.1919001072
C   C173      1.0  0.19930  0.93070  0.43910  1.0000 0.0383672398
C   C174      1.0  0.38900  0.79760  0.47180  1.0000 0.0708444891
C   C175      1.0  0.46440  0.80250  0.50680  1.0000 -0.1516202997
C   C176      1.0  0.52450  0.74340  0.50160  1.0000 -0.1104864396
C   C177      1.0  0.51360  0.67300  0.46180  1.0000 -0.1591711222
C   C178      1.0  0.43740  0.66610  0.42790  1.0000 0.0299612819
C   C179      1.0  0.37800  0.72800  0.43250  1.0000 -0.1994454914
C   C180      1.0  0.42870  0.59440  0.38430  1.0000 0.1853411281
C   C181      1.0  0.37820  0.49750  0.32060  1.0000 0.1743113202
C   C182      1.0  0.31630  0.44340  0.29020  1.0000 0.0180391542
C   C183      1.0  0.28260  0.46390  0.22790  1.0000 -0.1777507356
C   C184      1.0  0.22130  0.41320  0.20530  1.0000 -0.0937649953
C   C185      1.0  0.19370  0.34040  0.23670  1.0000 -0.1777507356
C   C186      1.0  0.22610  0.31960  0.29540  1.0000 0.0708444891
C   C187      1.0  0.28760  0.37310  0.32160  1.0000 -0.1994454914
C   C188      1.0  0.19490  0.24710  0.33180  1.0000 0.1095450262
C   C189      1.0  0.23860  0.21840  0.38610  1.0000 -0.2109912048
C   C190      1.0  0.20310  0.15670  0.42220  1.0000 0.0299612819
C   C191      1.0  0.09210  0.14150  0.35780  1.0000 0.0708444891
C   C192      1.0  0.12330  0.20450  0.31730  1.0000 -0.2109912048
N   N1        1.0  0.02400  0.81320  0.00640  1.0000 -0.2703032671
N   N2        1.0  0.44480  0.50760  0.14090  1.0000 -0.2703032671
N   N3        1.0  0.50670  0.53950  0.18040  1.0000 -0.2329087063
N   N4        1.0  0.44120  0.64390  0.13830  1.0000 0.05867028
N   N5        1.0  0.41860  0.72590  0.11910  1.0000 -0.5094237767
N   N6        1.0  0.87980  0.87080  0.08950  1.0000 -0.2226107857
N   N7        1.0  0.97600  0.18680  0.50640  1.0000 -0.2703032671
N   N8        1.0  0.55520  0.49240  0.64090  1.0000 -0.2703032671
N   N9        1.0  0.49330  0.46050  0.68040  1.0000 -0.2329087063
N   N10       1.0  0.55880  0.35610  0.63830  1.0000 0.05867028
N   N11       1.0  0.58140  0.27410  0.61910  1.0000 -0.5094237767
N   N12       1.0  0.12020  0.12920  0.58950  1.0000 -0.2226107857
N   N13       1.0  0.68680  0.52400  0.25640  1.0000 -0.2703032671
N   N14       1.0  0.99240  0.94480  0.39090  1.0000 -0.2703032671
N   N15       1.0  0.96050  0.00670  0.43040  1.0000 -0.2329087063
N   N16       1.0  0.85610  0.94120  0.38830  1.0000 0.05867028
N   N17       1.0  0.77410  0.91860  0.36910  1.0000 -0.5094237767
N   N18       1.0  0.62920  0.37980  0.33950  1.0000 -0.2226107857
N   N19       1.0  0.31320  0.47600  0.75640  1.0000 -0.2703032671
N   N20       1.0  0.00760  0.05520  0.89090  1.0000 -0.2703032671
N   N21       1.0  0.03950  0.99330  0.93040  1.0000 -0.2329087063
N   N22       1.0  0.14390  0.05880  0.88830  1.0000 0.05867028
N   N23       1.0  0.22590  0.08140  0.86910  1.0000 -0.5094237767
N   N24       1.0  0.37080  0.62020  0.83950  1.0000 -0.2226107857
N   N25       1.0  0.47600  0.31320  0.24360  1.0000 -0.2703032671
N   N26       1.0  0.05520  0.00760  0.10910  1.0000 -0.2703032671
N   N27       1.0  0.99330  0.03950  0.06960  1.0000 -0.2329087063
N   N28       1.0  0.05880  0.14390  0.11170  1.0000 0.05867028
N   N29       1.0  0.08140  0.22590  0.13090  1.0000 -0.5094237767
N   N30       1.0  0.62020  0.37080  0.16050  1.0000 -0.2226107857
N   N31       1.0  0.52400  0.68680  0.74360  1.0000 -0.2703032671
N   N32       1.0  0.94480  0.99240  0.60910  1.0000 -0.2703032671
N   N33       1.0  0.00670  0.96050  0.56960  1.0000 -0.2329087063
N   N34       1.0  0.94120  0.85610  0.61170  1.0000 0.05867028
N   N35       1.0  0.91860  0.77410  0.63090  1.0000 -0.5094237767
N   N36       1.0  0.37980  0.62920  0.66050  1.0000 -0.2226107857
N   N37       1.0  0.81320  0.02400  0.99360  1.0000 -0.2703032671
N   N38       1.0  0.50760  0.44480  0.85910  1.0000 -0.2703032671
N   N39       1.0  0.53950  0.50670  0.81960  1.0000 -0.2329087063
N   N40       1.0  0.64390  0.44120  0.86170  1.0000 0.05867028
N   N41       1.0  0.72590  0.41860  0.88090  1.0000 -0.5094237767
N   N42       1.0  0.87080  0.87980  0.91050  1.0000 -0.2226107857
N   N43       1.0  0.18680  0.97600  0.49360  1.0000 -0.2703032671
N   N44       1.0  0.49240  0.55520  0.35910  1.0000 -0.2703032671
N   N45       1.0  0.46050  0.49330  0.31960  1.0000 -0.2329087063
N   N46       1.0  0.35610  0.55880  0.36170  1.0000 0.05867028
N   N47       1.0  0.27410  0.58140  0.38090  1.0000 -0.5094237767
N   N48       1.0  0.12920  0.12020  0.41050  1.0000 -0.2226107857
