# DDEC6 charges by PACMAN v1.1 (https://github.com/mtap-research/PACMAN-charge/)
data_2018[Tb][bnn]3[ASR]1
_chemical_formula_sum              "Tb4 H36 C84 N4 O32"
_cell_length_a       9.7337
_cell_length_b       15.767
_cell_length_c       17.977
_cell_angle_alpha    114.34
_cell_angle_beta     89.99
_cell_angle_gamma    95.47

_symmetry_space_group_name_H-M    "P 1"
_symmetry_Int_Tables_number       1

loop_
  _symmetry_equiv_pos_as_xyz
  'x, y, z'

loop_
  _atom_site_type_symbol
  _atom_site_label
  _atom_site_symmetry_multiplicity
  _atom_site_fract_x
  _atom_site_fract_y
  _atom_site_fract_z
  _atom_site_occupancy
  _atom_site_charge
Tb  Tb1       1.0  0.89678  0.77655  0.63202  1.0000 2.020398071
Tb  Tb2       1.0  0.59524  0.73169  0.87665  1.0000 2.0252231067
Tb  Tb3       1.0  0.10322  0.22345  0.36798  1.0000 2.020398071
Tb  Tb4       1.0  0.40476  0.26831  0.12335  1.0000 2.020398071
H   H1        1.0  0.77150  0.25010  0.59340  1.0000 0.1290420404
H   H2        1.0  0.64000  0.49180  0.74550  1.0000 0.1290420404
H   H3        1.0  0.91270  0.49010  0.57860  1.0000 0.1502382351
H   H4        1.0  0.64690  0.04230  0.66870  1.0000 0.1290420404
H   H5        1.0  0.38670  0.81810  0.64470  1.0000 0.1502382351
H   H6        1.0  0.24450  0.06870  0.70880  1.0000 0.1290420404
H   H7        1.0  0.34700  0.20780  0.81370  1.0000 0.1198370375
H   H8        1.0  0.61660  0.17900  0.64080  1.0000 0.1290420404
H   H9        1.0  0.53610  0.43040  0.80350  1.0000 0.1290420404
H   H10       1.0  0.60050  0.00180  0.91920  1.0000 0.1502382351
H   H11       1.0  0.91020  0.02320  0.77860  1.0000 0.1377537852
H   H12       1.0  0.69040  0.24020  0.89180  1.0000 0.1290420404
H   H13       1.0  0.08030  0.70420  0.91190  1.0000 0.1502382351
H   H14       1.0  0.23240  0.45590  0.80450  1.0000 0.1290420404
H   H15       1.0  0.83670  0.46490  0.85940  1.0000 0.1198370375
H   H16       1.0  0.94650  0.08570  0.69460  1.0000 0.1290420404
H   H17       1.0  0.89040  0.32790  0.87820  1.0000 0.1290420404
H   H18       1.0  0.11550  0.31740  0.68990  1.0000 0.1198370375
H   H19       1.0  0.22850  0.74990  0.40660  1.0000 0.1290420404
H   H20       1.0  0.36000  0.50820  0.25450  1.0000 0.1290420404
H   H21       1.0  0.08730  0.50990  0.42140  1.0000 0.1502382351
H   H22       1.0  0.35310  0.95770  0.33130  1.0000 0.1290420404
H   H23       1.0  0.61330  0.18190  0.35530  1.0000 0.1502382351
H   H24       1.0  0.75550  0.93130  0.29120  1.0000 0.1290420404
H   H25       1.0  0.65300  0.79220  0.18630  1.0000 0.1198370375
H   H26       1.0  0.38340  0.82100  0.35920  1.0000 0.1290420404
H   H27       1.0  0.46390  0.56960  0.19650  1.0000 0.1290420404
H   H28       1.0  0.39950  0.99820  0.08080  1.0000 0.1502382351
H   H29       1.0  0.08980  0.97680  0.22140  1.0000 0.1377537852
H   H30       1.0  0.30960  0.75980  0.10820  1.0000 0.1290420404
H   H31       1.0  0.91970  0.29580  0.08810  1.0000 0.1502382351
H   H32       1.0  0.76760  0.54410  0.19550  1.0000 0.1290420404
H   H33       1.0  0.16330  0.53510  0.14060  1.0000 0.1198370375
H   H34       1.0  0.05350  0.91430  0.30540  1.0000 0.1290420404
H   H35       1.0  0.10960  0.67210  0.12180  1.0000 0.1290420404
H   H36       1.0  0.88450  0.68260  0.31010  1.0000 0.1198370375
C   C1        1.0  0.77190  0.31450  0.61170  1.0000 -0.1400145585
C   C2        1.0  0.69000  0.36260  0.67600  1.0000 0.0682060302
C   C3        1.0  0.69600  0.45910  0.70350  1.0000 -0.1308223004
C   C4        1.0  0.78300  0.50830  0.67040  1.0000 -0.0212349756
C   C5        1.0  0.85870  0.45860  0.60380  1.0000 -0.0808802217
C   C6        1.0  0.85380  0.36120  0.57460  1.0000 -0.0007893915
C   C7        1.0  0.44990  0.07270  0.69420  1.0000 0.0682060302
C   C8        1.0  0.55850  0.01640  0.67210  1.0000 -0.1400145585
C   C9        1.0  0.53440  0.92080  0.65510  1.0000 0.0037379163
C   C10       1.0  0.40220  0.88140  0.65600  1.0000 -0.0808802217
C   C11       1.0  0.29040  0.93620  0.67390  1.0000 0.0105638828
C   C12       1.0  0.31710  0.03150  0.69440  1.0000 -0.1400145585
C   C13       1.0  0.40920  0.23500  0.78850  1.0000 0.0423290027
C   C14       1.0  0.47660  0.17640  0.72130  1.0000 0.0495759496
C   C15       1.0  0.56890  0.21670  0.68510  1.0000 -0.1492110933
C   C16       1.0  0.59280  0.31540  0.71460  1.0000 0.0495759496
C   C17       1.0  0.52050  0.36540  0.78180  1.0000 0.0311767614
C   C18       1.0  0.78310  0.61270  0.70290  1.0000 0.6676211064
C   C19       1.0  0.93370  0.30950  0.50160  1.0000 0.5676547096
C   C20       1.0  0.14860  0.89340  0.67490  1.0000 0.5546720927
C   C21       1.0  0.65370  0.86350  0.63880  1.0000 0.5595753297
C   C22       1.0  0.62740  0.12830  0.91430  1.0000 0.0105638828
C   C23       1.0  0.65360  0.03660  0.89650  1.0000 -0.0737756485
C   C24       1.0  0.75850  0.99670  0.84490  1.0000 -0.0212349756
C   C25       1.0  0.83900  0.04960  0.81220  1.0000 -0.1308223004
C   C26       1.0  0.81510  0.14180  0.82890  1.0000 0.0682060302
C   C27       1.0  0.70810  0.17920  0.88020  1.0000 -0.1400145585
C   C28       1.0  0.93480  0.59370  0.88830  1.0000 -0.0134865227
C   C29       1.0  0.06740  0.63910  0.88940  1.0000 -0.0808802217
C   C30       1.0  0.17810  0.58900  0.85770  1.0000 -0.0007893915
C   C31       1.0  0.15840  0.49030  0.82610  1.0000 -0.1308223004
C   C32       1.0  0.03190  0.44470  0.82690  1.0000 0.0594320452
C   C33       1.0  0.92210  0.49620  0.85830  1.0000 -0.1308223004
C   C34       1.0  0.96090  0.15070  0.71890  1.0000 0.0311767614
C   C35       1.0  0.90100  0.19580  0.79260  1.0000 0.0423290027
C   C36       1.0  0.92760  0.29410  0.82830  1.0000 -0.1492110933
C   C37       1.0  0.00670  0.34140  0.79160  1.0000 0.0594320452
C   C38       1.0  0.06120  0.28710  0.71590  1.0000 0.0199393636
C   C39       1.0  0.78930  0.89830  0.82580  1.0000 0.6566400235
C   C40       1.0  0.51950  0.17380  0.97440  1.0000 0.5676547096
C   C41       1.0  0.31600  0.63890  0.85720  1.0000 0.5676547096
C   C42       1.0  0.81270  0.64640  0.91110  1.0000 0.5595753297
C   C43       1.0  0.22810  0.68550  0.38830  1.0000 -0.1400145585
C   C44       1.0  0.31000  0.63740  0.32400  1.0000 0.0682060302
C   C45       1.0  0.30400  0.54090  0.29650  1.0000 -0.1308223004
C   C46       1.0  0.21700  0.49170  0.32960  1.0000 -0.0212349756
C   C47       1.0  0.14130  0.54140  0.39620  1.0000 -0.0808802217
C   C48       1.0  0.14620  0.63880  0.42540  1.0000 -0.0007893915
C   C49       1.0  0.55010  0.92730  0.30580  1.0000 0.0682060302
C   C50       1.0  0.44150  0.98360  0.32790  1.0000 -0.1400145585
C   C51       1.0  0.46560  0.07920  0.34490  1.0000 0.0037379163
C   C52       1.0  0.59780  0.11860  0.34400  1.0000 -0.0808802217
C   C53       1.0  0.70960  0.06380  0.32610  1.0000 0.0105638828
C   C54       1.0  0.68290  0.96850  0.30560  1.0000 -0.1400145585
C   C55       1.0  0.59080  0.76500  0.21150  1.0000 0.0423290027
C   C56       1.0  0.52340  0.82360  0.27870  1.0000 0.0495759496
C   C57       1.0  0.43110  0.78330  0.31490  1.0000 -0.1492110933
C   C58       1.0  0.40720  0.68460  0.28540  1.0000 0.0495759496
C   C59       1.0  0.47950  0.63460  0.21820  1.0000 0.0311767614
C   C60       1.0  0.21690  0.38730  0.29710  1.0000 0.6676211064
C   C61       1.0  0.06630  0.69050  0.49840  1.0000 0.5676547096
C   C62       1.0  0.85140  0.10660  0.32510  1.0000 0.5546720927
C   C63       1.0  0.34630  0.13650  0.36120  1.0000 0.5595753297
C   C64       1.0  0.37260  0.87170  0.08570  1.0000 0.0105638828
C   C65       1.0  0.34640  0.96340  0.10350  1.0000 -0.0737756485
C   C66       1.0  0.24150  0.00330  0.15510  1.0000 -0.0212349756
C   C67       1.0  0.16100  0.95040  0.18780  1.0000 -0.1308223004
C   C68       1.0  0.18490  0.85820  0.17110  1.0000 0.0682060302
C   C69       1.0  0.29190  0.82080  0.11980  1.0000 -0.1400145585
C   C70       1.0  0.06520  0.40630  0.11170  1.0000 -0.0134865227
C   C71       1.0  0.93260  0.36090  0.11060  1.0000 -0.0808802217
C   C72       1.0  0.82190  0.41100  0.14230  1.0000 -0.0007893915
C   C73       1.0  0.84160  0.50970  0.17390  1.0000 -0.1308223004
C   C74       1.0  0.96810  0.55530  0.17310  1.0000 0.0594320452
C   C75       1.0  0.07790  0.50380  0.14170  1.0000 -0.1308223004
C   C76       1.0  0.03910  0.84930  0.28110  1.0000 0.0311767614
C   C77       1.0  0.09900  0.80420  0.20740  1.0000 0.0423290027
C   C78       1.0  0.07240  0.70590  0.17170  1.0000 -0.1492110933
C   C79       1.0  0.99330  0.65860  0.20840  1.0000 0.0594320452
C   C80       1.0  0.93880  0.71290  0.28410  1.0000 0.0199393636
C   C81       1.0  0.21070  0.10170  0.17420  1.0000 0.6566400235
C   C82       1.0  0.48050  0.82620  0.02560  1.0000 0.5676547096
C   C83       1.0  0.68400  0.36110  0.14280  1.0000 0.5676547096
C   C84       1.0  0.18730  0.35360  0.08890  1.0000 0.5546720927
N   N1        1.0  0.42930  0.32750  0.81830  1.0000 -0.2118759336
N   N2        1.0  0.03740  0.19200  0.67950  1.0000 -0.2118759336
N   N3        1.0  0.57070  0.67250  0.18170  1.0000 -0.2118759336
N   N4        1.0  0.96260  0.80800  0.32050  1.0000 -0.2118759336
O   O1        1.0  0.70510  0.65070  0.75820  1.0000 -0.6272947485
O   O2        1.0  0.86060  0.65430  0.67010  1.0000 -0.6202513868
O   O3        1.0  0.97060  0.23060  0.49010  1.0000 -0.6027962858
O   O4        1.0  0.96410  0.34710  0.45320  1.0000 -0.5913458759
O   O5        1.0  0.13460  0.81890  0.68570  1.0000 -0.5675392443
O   O6        1.0  0.04730  0.92960  0.66310  1.0000 -0.5759086901
O   O7        1.0  0.76230  0.88620  0.61100  1.0000 -0.6086790258
O   O8        1.0  0.64380  0.79420  0.65760  1.0000 -0.6086790258
O   O9        1.0  0.72460  0.85800  0.86450  1.0000 -0.6202513868
O   O10       1.0  0.87560  0.86370  0.77380  1.0000 -0.6086790258
O   O11       1.0  0.49250  0.25340  0.98740  1.0000 -0.5599336619
O   O12       1.0  0.46490  0.12850  0.01300  1.0000 -0.5913458759
O   O13       1.0  0.42030  0.59460  0.83390  1.0000 -0.6086790258
O   O14       1.0  0.32630  0.72630  0.88000  1.0000 -0.5913458759
O   O15       1.0  0.82610  0.73510  0.93490  1.0000 -0.5913458759
O   O16       1.0  0.69400  0.60250  0.89930  1.0000 -0.5913458759
O   O17       1.0  0.29490  0.34930  0.24180  1.0000 -0.6272947485
O   O18       1.0  0.13940  0.34570  0.32990  1.0000 -0.6202513868
O   O19       1.0  0.02940  0.76940  0.50990  1.0000 -0.6027962858
O   O20       1.0  0.03590  0.65290  0.54680  1.0000 -0.5913458759
O   O21       1.0  0.86540  0.18110  0.31430  1.0000 -0.5675392443
O   O22       1.0  0.95270  0.07040  0.33690  1.0000 -0.5759086901
O   O23       1.0  0.23770  0.11380  0.38900  1.0000 -0.6086790258
O   O24       1.0  0.35620  0.20580  0.34240  1.0000 -0.6086790258
O   O25       1.0  0.27540  0.14200  0.13550  1.0000 -0.6202513868
O   O26       1.0  0.12440  0.13630  0.22620  1.0000 -0.6086790258
O   O27       1.0  0.50750  0.74660  0.01260  1.0000 -0.5599336619
O   O28       1.0  0.53510  0.87150  0.98700  1.0000 -0.5913458759
O   O29       1.0  0.57970  0.40540  0.16610  1.0000 -0.6086790258
O   O30       1.0  0.67370  0.27370  0.12000  1.0000 -0.5913458759
O   O31       1.0  0.17390  0.26490  0.06510  1.0000 -0.5913458759
O   O32       1.0  0.30600  0.39750  0.10070  1.0000 -0.5913458759
