# DDEC6 charges by PACMAN v1.1 (https://github.com/mtap-research/PACMAN-charge/)
data_2018[Zn][hcb]2[ASR]2
_chemical_formula_sum              "Zn4 H96 C136 N24 O32"
_cell_length_a       11.41
_cell_length_b       15.108
_cell_length_c       22.1679
_cell_angle_alpha    90
_cell_angle_beta     102.861
_cell_angle_gamma    90

_symmetry_space_group_name_H-M    "P 1"
_symmetry_Int_Tables_number       1

loop_
  _symmetry_equiv_pos_as_xyz
  'x, y, z'

loop_
  _atom_site_type_symbol
  _atom_site_label
  _atom_site_symmetry_multiplicity
  _atom_site_fract_x
  _atom_site_fract_y
  _atom_site_fract_z
  _atom_site_occupancy
  _atom_site_charge
Zn  Zn1       1.0  0.55234  0.85265  0.01854  1.0000 0.7913363731
Zn  Zn2       1.0  0.55234  0.14735  0.51854  1.0000 0.7913363731
Zn  Zn3       1.0  0.44766  0.85265  0.48146  1.0000 0.7913363731
Zn  Zn4       1.0  0.44766  0.14735  0.98146  1.0000 0.7913363731
H   H1        1.0  0.59370  0.44430  0.38710  1.0000 0.3656057274
H   H2        1.0  0.96130  0.27030  0.90820  1.0000 0.3620671711
H   H3        1.0  0.15540  0.87260  0.99170  1.0000 0.1184923524
H   H4        1.0  0.95000  0.88900  0.95390  1.0000 0.1184923524
H   H5        1.0  0.76660  0.78130  0.82820  1.0000 0.1184923524
H   H6        1.0  0.66790  0.01130  0.96540  1.0000 0.129520654
H   H7        1.0  0.65910  0.76670  0.91200  1.0000 0.129520654
H   H8        1.0  0.91910  0.97070  0.80380  1.0000 0.1184923524
H   H9        1.0  0.87600  0.05590  0.71500  1.0000 0.1112086649
H   H10       1.0  0.56180  0.92750  0.65350  1.0000 0.1184923524
H   H11       1.0  0.61000  0.83930  0.74090  1.0000 0.1184923524
H   H12       1.0  0.96720  0.76560  0.79760  1.0000 0.1184923524
H   H13       1.0  0.17240  0.75080  0.83590  1.0000 0.1112086649
H   H14       1.0  0.45600  0.65810  0.04610  1.0000 0.1184923524
H   H15       1.0  0.78760  0.74070  0.08580  1.0000 0.129520654
H   H16       1.0  0.89230  0.60730  0.14930  1.0000 0.1112086649
H   H17       1.0  0.76460  0.39910  0.14880  1.0000 0.129520654
H   H18       1.0  0.69180  0.33800  0.22730  1.0000 0.129520654
H   H19       1.0  0.72760  0.57090  0.31310  1.0000 0.1184923524
H   H20       1.0  0.80660  0.63100  0.23650  1.0000 0.1184923524
H   H21       1.0  0.02090  0.47620  0.15170  1.0000 0.1184923524
H   H22       1.0  0.09710  0.37890  0.09110  1.0000 0.1184923524
H   H23       1.0  0.80100  0.41630  0.95380  1.0000 0.1112086649
H   H24       1.0  0.72430  0.51420  0.01460  1.0000 0.1184923524
H   H25       1.0  0.59370  0.55570  0.88710  1.0000 0.3656057274
H   H26       1.0  0.96130  0.72970  0.40820  1.0000 0.3620671711
H   H27       1.0  0.15540  0.12740  0.49170  1.0000 0.1184923524
H   H28       1.0  0.95000  0.11100  0.45390  1.0000 0.1184923524
H   H29       1.0  0.76660  0.21870  0.32820  1.0000 0.1184923524
H   H30       1.0  0.66790  0.98870  0.46540  1.0000 0.129520654
H   H31       1.0  0.65910  0.23330  0.41200  1.0000 0.129520654
H   H32       1.0  0.91910  0.02930  0.30380  1.0000 0.1184923524
H   H33       1.0  0.87600  0.94410  0.21500  1.0000 0.1112086649
H   H34       1.0  0.56180  0.07250  0.15350  1.0000 0.1184923524
H   H35       1.0  0.61000  0.16070  0.24090  1.0000 0.1184923524
H   H36       1.0  0.96720  0.23440  0.29760  1.0000 0.1184923524
H   H37       1.0  0.17240  0.24920  0.33590  1.0000 0.1112086649
H   H38       1.0  0.45600  0.34190  0.54610  1.0000 0.1184923524
H   H39       1.0  0.78760  0.25930  0.58580  1.0000 0.129520654
H   H40       1.0  0.89230  0.39270  0.64930  1.0000 0.1112086649
H   H41       1.0  0.76460  0.60090  0.64880  1.0000 0.129520654
H   H42       1.0  0.69180  0.66200  0.72730  1.0000 0.129520654
H   H43       1.0  0.72760  0.42910  0.81310  1.0000 0.1184923524
H   H44       1.0  0.80660  0.36900  0.73650  1.0000 0.1184923524
H   H45       1.0  0.02090  0.52380  0.65170  1.0000 0.1184923524
H   H46       1.0  0.09710  0.62110  0.59110  1.0000 0.1184923524
H   H47       1.0  0.80100  0.58370  0.45380  1.0000 0.1112086649
H   H48       1.0  0.72430  0.48580  0.51460  1.0000 0.1184923524
H   H49       1.0  0.40630  0.44430  0.11290  1.0000 0.3656057274
H   H50       1.0  0.03870  0.27030  0.59180  1.0000 0.3620671711
H   H51       1.0  0.84460  0.87260  0.50830  1.0000 0.1184923524
H   H52       1.0  0.05000  0.88900  0.54610  1.0000 0.1184923524
H   H53       1.0  0.23340  0.78130  0.67180  1.0000 0.1184923524
H   H54       1.0  0.33210  0.01130  0.53460  1.0000 0.129520654
H   H55       1.0  0.34090  0.76670  0.58800  1.0000 0.129520654
H   H56       1.0  0.08090  0.97070  0.69620  1.0000 0.1184923524
H   H57       1.0  0.12400  0.05590  0.78500  1.0000 0.1112086649
H   H58       1.0  0.43820  0.92750  0.84650  1.0000 0.1184923524
H   H59       1.0  0.39000  0.83930  0.75910  1.0000 0.1184923524
H   H60       1.0  0.03280  0.76560  0.70240  1.0000 0.1184923524
H   H61       1.0  0.82760  0.75080  0.66410  1.0000 0.1112086649
H   H62       1.0  0.54400  0.65810  0.45390  1.0000 0.1184923524
H   H63       1.0  0.21240  0.74070  0.41420  1.0000 0.129520654
H   H64       1.0  0.10770  0.60730  0.35070  1.0000 0.1112086649
H   H65       1.0  0.23540  0.39910  0.35120  1.0000 0.129520654
H   H66       1.0  0.30820  0.33800  0.27270  1.0000 0.129520654
H   H67       1.0  0.27240  0.57090  0.18690  1.0000 0.1184923524
H   H68       1.0  0.19340  0.63100  0.26350  1.0000 0.1184923524
H   H69       1.0  0.97910  0.47620  0.34830  1.0000 0.1184923524
H   H70       1.0  0.90290  0.37890  0.40890  1.0000 0.1184923524
H   H71       1.0  0.19900  0.41630  0.54620  1.0000 0.1112086649
H   H72       1.0  0.27570  0.51420  0.48540  1.0000 0.1184923524
H   H73       1.0  0.40630  0.55570  0.61290  1.0000 0.3656057274
H   H74       1.0  0.03870  0.72970  0.09180  1.0000 0.3620671711
H   H75       1.0  0.84460  0.12740  0.00830  1.0000 0.1184923524
H   H76       1.0  0.05000  0.11100  0.04610  1.0000 0.1184923524
H   H77       1.0  0.23340  0.21870  0.17180  1.0000 0.1184923524
H   H78       1.0  0.33210  0.98870  0.03460  1.0000 0.129520654
H   H79       1.0  0.34090  0.23330  0.08800  1.0000 0.129520654
H   H80       1.0  0.08090  0.02930  0.19620  1.0000 0.1184923524
H   H81       1.0  0.12400  0.94410  0.28500  1.0000 0.1112086649
H   H82       1.0  0.43820  0.07250  0.34650  1.0000 0.1184923524
H   H83       1.0  0.39000  0.16070  0.25910  1.0000 0.1184923524
H   H84       1.0  0.03280  0.23440  0.20240  1.0000 0.1184923524
H   H85       1.0  0.82760  0.24920  0.16410  1.0000 0.1112086649
H   H86       1.0  0.54400  0.34190  0.95390  1.0000 0.1184923524
H   H87       1.0  0.21240  0.25930  0.91420  1.0000 0.129520654
H   H88       1.0  0.10770  0.39270  0.85070  1.0000 0.1112086649
H   H89       1.0  0.23540  0.60090  0.85120  1.0000 0.129520654
H   H90       1.0  0.30820  0.66200  0.77270  1.0000 0.129520654
H   H91       1.0  0.27240  0.42910  0.68690  1.0000 0.1184923524
H   H92       1.0  0.19340  0.36900  0.76350  1.0000 0.1184923524
H   H93       1.0  0.97910  0.52380  0.84830  1.0000 0.1184923524
H   H94       1.0  0.90290  0.62110  0.90890  1.0000 0.1184923524
H   H95       1.0  0.19900  0.58370  0.04620  1.0000 0.1112086649
H   H96       1.0  0.27570  0.48580  0.98540  1.0000 0.1184923524
C   C1        1.0  0.32410  0.80180  0.94320  1.0000 0.553146795
C   C2        1.0  0.18789  0.81090  0.91809  1.0000 -0.0146655416
C   C3        1.0  0.12000  0.85120  0.95260  1.0000 -0.1002226848
C   C4        1.0  0.99467  0.86080  0.92917  1.0000 -0.133418999
C   C5        1.0  0.93367  0.83000  0.87027  1.0000 0.0676691985
C   C6        1.0  0.79805  0.84070  0.84025  1.0000 -0.0284214871
C   C7        1.0  0.68090  0.96060  0.94410  1.0000 0.181886532
C   C8        1.0  0.67399  0.82720  0.91609  1.0000 0.129520654
C   C9        1.0  0.76773  0.89820  0.78213  1.0000 0.060681248
C   C10       1.0  0.84840  0.96170  0.77410  1.0000 -0.1388991357
C   C11       1.0  0.82230  0.01210  0.72070  1.0000 -0.1052988613
C   C12       1.0  0.71461  0.99870  0.67371  1.0000 -0.020236384
C   C13       1.0  0.68850  0.05450  0.61640  1.0000 0.5579300082
C   C14       1.0  0.63370  0.93570  0.68240  1.0000 -0.1002226848
C   C15       1.0  0.66220  0.88440  0.73560  1.0000 -0.1469984197
C   C16       1.0  0.00230  0.78830  0.83640  1.0000 -0.1587005549
C   C17       1.0  0.12748  0.77940  0.86028  1.0000 -0.1002226848
C   C18       1.0  0.53920  0.65980  0.05990  1.0000 0.149353624
C   C19       1.0  0.71964  0.70520  0.08144  1.0000 0.1037549625
C   C20       1.0  0.82550  0.56720  0.13250  1.0000 -0.0405640447
C   C21       1.0  0.79010  0.52240  0.18470  1.0000 0.060681248
C   C22       1.0  0.75660  0.43370  0.18230  1.0000 -0.1388991357
C   C23       1.0  0.71270  0.39760  0.22840  1.0000 -0.0824831607
C   C24       1.0  0.69930  0.44910  0.27580  1.0000 -0.0824831607
C   C25       1.0  0.64650  0.40970  0.32290  1.0000 0.5364002144
C   C26       1.0  0.73510  0.53660  0.27930  1.0000 -0.1160758206
C   C27       1.0  0.78120  0.57240  0.23390  1.0000 -0.1388991357
C   C28       1.0  0.86550  0.50480  0.08930  1.0000 0.060681248
C   C29       1.0  0.97760  0.46350  0.11190  1.0000 -0.1587005549
C   C30       1.0  0.02280  0.40570  0.07640  1.0000 -0.0824831607
C   C31       1.0  0.95490  0.38760  0.01740  1.0000 -0.0501540539
C   C32       1.0  0.00790  0.32470  0.98020  1.0000 0.5364002144
C   C33       1.0  0.84340  0.42880  0.99370  1.0000 -0.1002226848
C   C34       1.0  0.79820  0.48690  0.02950  1.0000 -0.1388991357
C   C35       1.0  0.32410  0.19820  0.44320  1.0000 0.553146795
C   C36       1.0  0.18789  0.18910  0.41809  1.0000 -0.0146655416
C   C37       1.0  0.12000  0.14880  0.45260  1.0000 -0.1002226848
C   C38       1.0  0.99467  0.13920  0.42917  1.0000 -0.133418999
C   C39       1.0  0.93367  0.17000  0.37027  1.0000 0.0676691985
C   C40       1.0  0.79805  0.15930  0.34025  1.0000 -0.0284214871
C   C41       1.0  0.68090  0.03940  0.44410  1.0000 0.181886532
C   C42       1.0  0.67399  0.17280  0.41609  1.0000 0.129520654
C   C43       1.0  0.76773  0.10180  0.28213  1.0000 0.060681248
C   C44       1.0  0.84840  0.03830  0.27410  1.0000 -0.1388991357
C   C45       1.0  0.82230  0.98790  0.22070  1.0000 -0.1052988613
C   C46       1.0  0.71461  0.00130  0.17371  1.0000 -0.020236384
C   C47       1.0  0.68850  0.94550  0.11640  1.0000 0.5579300082
C   C48       1.0  0.63370  0.06430  0.18240  1.0000 -0.1002226848
C   C49       1.0  0.66220  0.11560  0.23560  1.0000 -0.1469984197
C   C50       1.0  0.00230  0.21170  0.33640  1.0000 -0.1587005549
C   C51       1.0  0.12748  0.22060  0.36028  1.0000 -0.1002226848
C   C52       1.0  0.53920  0.34020  0.55990  1.0000 0.149353624
C   C53       1.0  0.71964  0.29480  0.58144  1.0000 0.1037549625
C   C54       1.0  0.82550  0.43280  0.63250  1.0000 -0.0405640447
C   C55       1.0  0.79010  0.47760  0.68470  1.0000 0.060681248
C   C56       1.0  0.75660  0.56630  0.68230  1.0000 -0.1388991357
C   C57       1.0  0.71270  0.60240  0.72840  1.0000 -0.0824831607
C   C58       1.0  0.69930  0.55090  0.77580  1.0000 -0.0824831607
C   C59       1.0  0.64650  0.59030  0.82290  1.0000 0.5364002144
C   C60       1.0  0.73510  0.46340  0.77930  1.0000 -0.1160758206
C   C61       1.0  0.78120  0.42760  0.73390  1.0000 -0.1388991357
C   C62       1.0  0.86550  0.49520  0.58930  1.0000 0.060681248
C   C63       1.0  0.97760  0.53650  0.61190  1.0000 -0.1587005549
C   C64       1.0  0.02280  0.59430  0.57640  1.0000 -0.0824831607
C   C65       1.0  0.95490  0.61240  0.51740  1.0000 -0.0501540539
C   C66       1.0  0.00790  0.67530  0.48020  1.0000 0.5364002144
C   C67       1.0  0.84340  0.57120  0.49370  1.0000 -0.1002226848
C   C68       1.0  0.79820  0.51310  0.52950  1.0000 -0.1388991357
C   C69       1.0  0.67590  0.80180  0.55680  1.0000 0.553146795
C   C70       1.0  0.81211  0.81090  0.58191  1.0000 -0.0146655416
C   C71       1.0  0.88000  0.85120  0.54740  1.0000 -0.1002226848
C   C72       1.0  0.00533  0.86080  0.57083  1.0000 -0.133418999
C   C73       1.0  0.06633  0.83000  0.62973  1.0000 0.0676691985
C   C74       1.0  0.20195  0.84070  0.65975  1.0000 -0.0284214871
C   C75       1.0  0.31910  0.96060  0.55590  1.0000 0.181886532
C   C76       1.0  0.32601  0.82720  0.58391  1.0000 0.129520654
C   C77       1.0  0.23227  0.89820  0.71787  1.0000 0.060681248
C   C78       1.0  0.15160  0.96170  0.72590  1.0000 -0.1388991357
C   C79       1.0  0.17770  0.01210  0.77930  1.0000 -0.1052988613
C   C80       1.0  0.28539  0.99870  0.82629  1.0000 -0.020236384
C   C81       1.0  0.31150  0.05450  0.88360  1.0000 0.5579300082
C   C82       1.0  0.36630  0.93570  0.81760  1.0000 -0.1002226848
C   C83       1.0  0.33780  0.88440  0.76440  1.0000 -0.1469984197
C   C84       1.0  0.99770  0.78830  0.66360  1.0000 -0.1587005549
C   C85       1.0  0.87252  0.77940  0.63972  1.0000 -0.1002226848
C   C86       1.0  0.46080  0.65980  0.44010  1.0000 0.149353624
C   C87       1.0  0.28036  0.70520  0.41856  1.0000 0.1037549625
C   C88       1.0  0.17450  0.56720  0.36750  1.0000 -0.0405640447
C   C89       1.0  0.20990  0.52240  0.31530  1.0000 0.060681248
C   C90       1.0  0.24340  0.43370  0.31770  1.0000 -0.1388991357
C   C91       1.0  0.28730  0.39760  0.27160  1.0000 -0.0824831607
C   C92       1.0  0.30070  0.44910  0.22420  1.0000 -0.0824831607
C   C93       1.0  0.35350  0.40970  0.17710  1.0000 0.5364002144
C   C94       1.0  0.26490  0.53660  0.22070  1.0000 -0.1160758206
C   C95       1.0  0.21880  0.57240  0.26610  1.0000 -0.1388991357
C   C96       1.0  0.13450  0.50480  0.41070  1.0000 0.060681248
C   C97       1.0  0.02240  0.46350  0.38810  1.0000 -0.1587005549
C   C98       1.0  0.97720  0.40570  0.42360  1.0000 -0.0824831607
C   C99       1.0  0.04510  0.38760  0.48260  1.0000 -0.0501540539
C   C100      1.0  0.99210  0.32470  0.51980  1.0000 0.5364002144
C   C101      1.0  0.15660  0.42880  0.50630  1.0000 -0.1002226848
C   C102      1.0  0.20180  0.48690  0.47050  1.0000 -0.1388991357
C   C103      1.0  0.67590  0.19820  0.05680  1.0000 0.553146795
C   C104      1.0  0.81211  0.18910  0.08191  1.0000 -0.0146655416
C   C105      1.0  0.88000  0.14880  0.04740  1.0000 -0.1002226848
C   C106      1.0  0.00533  0.13920  0.07083  1.0000 -0.133418999
C   C107      1.0  0.06633  0.17000  0.12973  1.0000 0.0676691985
C   C108      1.0  0.20195  0.15930  0.15975  1.0000 -0.0284214871
C   C109      1.0  0.31910  0.03940  0.05590  1.0000 0.181886532
C   C110      1.0  0.32601  0.17280  0.08391  1.0000 0.129520654
C   C111      1.0  0.23227  0.10180  0.21787  1.0000 0.060681248
C   C112      1.0  0.15160  0.03830  0.22590  1.0000 -0.1388991357
C   C113      1.0  0.17770  0.98790  0.27930  1.0000 -0.1052988613
C   C114      1.0  0.28539  0.00130  0.32629  1.0000 -0.020236384
C   C115      1.0  0.31150  0.94550  0.38360  1.0000 0.5579300082
C   C116      1.0  0.36630  0.06430  0.31760  1.0000 -0.1002226848
C   C117      1.0  0.33780  0.11560  0.26440  1.0000 -0.1469984197
C   C118      1.0  0.99770  0.21170  0.16360  1.0000 -0.1587005549
C   C119      1.0  0.87252  0.22060  0.13972  1.0000 -0.1002226848
C   C120      1.0  0.46080  0.34020  0.94010  1.0000 0.149353624
C   C121      1.0  0.28036  0.29480  0.91856  1.0000 0.1037549625
C   C122      1.0  0.17450  0.43280  0.86750  1.0000 -0.0405640447
C   C123      1.0  0.20990  0.47760  0.81530  1.0000 0.060681248
C   C124      1.0  0.24340  0.56630  0.81770  1.0000 -0.1388991357
C   C125      1.0  0.28730  0.60240  0.77160  1.0000 -0.0824831607
C   C126      1.0  0.30070  0.55090  0.72420  1.0000 -0.0824831607
C   C127      1.0  0.35350  0.59030  0.67710  1.0000 0.5364002144
C   C128      1.0  0.26490  0.46340  0.72070  1.0000 -0.1160758206
C   C129      1.0  0.21880  0.42760  0.76610  1.0000 -0.1388991357
C   C130      1.0  0.13450  0.49520  0.91070  1.0000 0.060681248
C   C131      1.0  0.02240  0.53650  0.88810  1.0000 -0.1587005549
C   C132      1.0  0.97720  0.59430  0.92360  1.0000 -0.0824831607
C   C133      1.0  0.04510  0.61240  0.98260  1.0000 -0.0501540539
C   C134      1.0  0.99210  0.67530  0.01980  1.0000 0.5364002144
C   C135      1.0  0.15660  0.57120  0.00630  1.0000 -0.1002226848
C   C136      1.0  0.20180  0.51310  0.97050  1.0000 -0.1388991357
N   N1        1.0  0.73373  0.87360  0.88463  1.0000 0.149353624
N   N2        1.0  0.73996  0.96000  0.90206  1.0000 -0.2454560244
N   N3        1.0  0.63837  0.88000  0.95467  1.0000 -0.3092240834
N   N4        1.0  0.60619  0.73210  0.05579  1.0000 -0.3235005581
N   N5        1.0  0.60391  0.59150  0.08541  1.0000 -0.2655446374
N   N6        1.0  0.72056  0.62210  0.09926  1.0000 0.1184923524
N   N7        1.0  0.73373  0.12640  0.38463  1.0000 0.149353624
N   N8        1.0  0.73996  0.04000  0.40206  1.0000 -0.2454560244
N   N9        1.0  0.63837  0.12000  0.45467  1.0000 -0.3092240834
N   N10       1.0  0.60619  0.26790  0.55579  1.0000 -0.3235005581
N   N11       1.0  0.60391  0.40850  0.58541  1.0000 -0.2655446374
N   N12       1.0  0.72056  0.37790  0.59926  1.0000 0.1184923524
N   N13       1.0  0.26627  0.87360  0.61537  1.0000 0.149353624
N   N14       1.0  0.26004  0.96000  0.59794  1.0000 -0.2454560244
N   N15       1.0  0.36163  0.88000  0.54533  1.0000 -0.3092240834
N   N16       1.0  0.39381  0.73210  0.44421  1.0000 -0.3235005581
N   N17       1.0  0.39609  0.59150  0.41459  1.0000 -0.2655446374
N   N18       1.0  0.27944  0.62210  0.40074  1.0000 0.1184923524
N   N19       1.0  0.26627  0.12640  0.11537  1.0000 0.149353624
N   N20       1.0  0.26004  0.04000  0.09794  1.0000 -0.2454560244
N   N21       1.0  0.36163  0.12000  0.04533  1.0000 -0.3092240834
N   N22       1.0  0.39381  0.26790  0.94421  1.0000 -0.3235005581
N   N23       1.0  0.39609  0.40850  0.91459  1.0000 -0.2655446374
N   N24       1.0  0.27944  0.37790  0.90074  1.0000 0.1184923524
O   O1        1.0  0.37495  0.85130  0.98935  1.0000 -0.5590662205
O   O2        1.0  0.38004  0.74950  0.91924  1.0000 -0.5296944299
O   O3        1.0  0.57855  0.05470  0.58155  1.0000 -0.5730245108
O   O4        1.0  0.77014  0.09910  0.60534  1.0000 -0.5590662205
O   O5        1.0  0.62166  0.33240  0.32396  1.0000 -0.4912992263
O   O6        1.0  0.62802  0.46730  0.36232  1.0000 -0.4087872797
O   O7        1.0  0.10860  0.29290  0.99860  1.0000 -0.5296944299
O   O8        1.0  0.93540  0.31110  0.92590  1.0000 -0.4462705994
O   O9        1.0  0.37495  0.14870  0.48935  1.0000 -0.5590662205
O   O10       1.0  0.38004  0.25050  0.41924  1.0000 -0.5296944299
O   O11       1.0  0.57855  0.94530  0.08155  1.0000 -0.5730245108
O   O12       1.0  0.77014  0.90090  0.10534  1.0000 -0.5590662205
O   O13       1.0  0.62166  0.66760  0.82396  1.0000 -0.4912992263
O   O14       1.0  0.62802  0.53270  0.86232  1.0000 -0.4087872797
O   O15       1.0  0.10860  0.70710  0.49860  1.0000 -0.5296944299
O   O16       1.0  0.93540  0.68890  0.42590  1.0000 -0.4462705994
O   O17       1.0  0.62505  0.85130  0.51065  1.0000 -0.5590662205
O   O18       1.0  0.61996  0.74950  0.58076  1.0000 -0.5296944299
O   O19       1.0  0.42145  0.05470  0.91845  1.0000 -0.5730245108
O   O20       1.0  0.22986  0.09910  0.89466  1.0000 -0.5590662205
O   O21       1.0  0.37834  0.33240  0.17604  1.0000 -0.4912992263
O   O22       1.0  0.37198  0.46730  0.13768  1.0000 -0.4087872797
O   O23       1.0  0.89140  0.29290  0.50140  1.0000 -0.5296944299
O   O24       1.0  0.06460  0.31110  0.57410  1.0000 -0.4462705994
O   O25       1.0  0.62505  0.14870  0.01065  1.0000 -0.5590662205
O   O26       1.0  0.61996  0.25050  0.08076  1.0000 -0.5296944299
O   O27       1.0  0.42145  0.94530  0.41845  1.0000 -0.5730245108
O   O28       1.0  0.22986  0.90090  0.39466  1.0000 -0.5590662205
O   O29       1.0  0.37834  0.66760  0.67604  1.0000 -0.4912992263
O   O30       1.0  0.37198  0.53270  0.63768  1.0000 -0.4087872797
O   O31       1.0  0.89140  0.70710  0.00140  1.0000 -0.5296944299
O   O32       1.0  0.06460  0.68890  0.07410  1.0000 -0.4462705994
