# DDEC6 charges by PACMAN v1.1 (https://github.com/mtap-research/PACMAN-charge/)
data_2018[Eu][flu]3[ASR]1
_chemical_formula_sum              "Eu2 H14 C26 N4 O12"
_cell_length_a       9.1472
_cell_length_b       9.7744
_cell_length_c       12.3072
_cell_angle_alpha    65.6841
_cell_angle_beta     70.2323
_cell_angle_gamma    71.123

_symmetry_space_group_name_H-M    "P 1"
_symmetry_Int_Tables_number       1

loop_
  _symmetry_equiv_pos_as_xyz
  'x, y, z'

loop_
  _atom_site_type_symbol
  _atom_site_label
  _atom_site_symmetry_multiplicity
  _atom_site_fract_x
  _atom_site_fract_y
  _atom_site_fract_z
  _atom_site_occupancy
  _atom_site_charge
Eu  Eu1       1.0  0.77855  0.96585  0.00638  1.0000 2.0703430061
Eu  Eu2       1.0  0.22145  0.03415  0.99362  1.0000 2.0703430061
H   H1        1.0  0.86270  0.58160  0.95800  1.0000 0.1637283896
H   H2        1.0  0.38690  0.69930  0.82810  1.0000 0.1403133903
H   H3        1.0  0.41800  0.53400  0.82320  1.0000 0.1403133903
H   H4        1.0  0.45550  0.69000  0.41710  1.0000 0.1218070074
H   H5        1.0  0.74800  0.89400  0.43640  1.0000 0.1218070074
H   H6        1.0  0.66610  0.80590  0.64740  1.0000 0.1218070074
H   H7        1.0  0.38210  0.59230  0.62780  1.0000 0.1259842996
H   H8        1.0  0.13730  0.41840  0.04200  1.0000 0.1637283896
H   H9        1.0  0.61310  0.30070  0.17190  1.0000 0.1403133903
H   H10       1.0  0.58200  0.46600  0.17680  1.0000 0.1403133903
H   H11       1.0  0.54450  0.31000  0.58290  1.0000 0.1218070074
H   H12       1.0  0.25200  0.10600  0.56360  1.0000 0.1218070074
H   H13       1.0  0.33390  0.19410  0.35260  1.0000 0.1218070074
H   H14       1.0  0.61790  0.40770  0.37220  1.0000 0.1259842996
C   C1        1.0  0.81650  0.42620  0.90300  1.0000 0.0519561075
C   C2        1.0  0.79590  0.55930  0.92790  1.0000 -0.2318435128
C   C3        1.0  0.65520  0.65020  0.89800  1.0000 -0.0250318762
C   C4        1.0  0.94540  0.28580  0.92870  1.0000 0.6200238351
C   C5        1.0  0.67130  0.85120  0.26590  1.0000 0.5755900923
C   C6        1.0  0.56580  0.79600  0.92180  1.0000 0.6393002157
C   C7        1.0  0.52020  0.68320  0.65980  1.0000 0.1085628901
C   C8        1.0  0.46650  0.62020  0.79920  1.0000 -0.1944199618
C   C9        1.0  0.61620  0.79610  0.40390  1.0000 -0.0200223265
C   C10       1.0  0.50320  0.71040  0.46300  1.0000 -0.1006110948
C   C11       1.0  0.67410  0.83170  0.47420  1.0000 -0.093480226
C   C12       1.0  0.62590  0.77760  0.60150  1.0000 -0.1530203388
C   C13       1.0  0.45760  0.65280  0.59020  1.0000 -0.155884188
C   C14       1.0  0.18350  0.57380  0.09700  1.0000 0.0519561075
C   C15       1.0  0.20410  0.44070  0.07210  1.0000 -0.2318435128
C   C16       1.0  0.34480  0.34980  0.10200  1.0000 -0.0200223265
C   C17       1.0  0.05460  0.71420  0.07130  1.0000 0.6200238351
C   C18       1.0  0.32870  0.14880  0.73410  1.0000 0.5755900923
C   C19       1.0  0.43420  0.20400  0.07820  1.0000 0.6393002157
C   C20       1.0  0.47980  0.31680  0.34020  1.0000 0.1085628901
C   C21       1.0  0.53350  0.37980  0.20080  1.0000 -0.1944199618
C   C22       1.0  0.38380  0.20390  0.59610  1.0000 -0.0200223265
C   C23       1.0  0.49680  0.28960  0.53700  1.0000 -0.1006110948
C   C24       1.0  0.32590  0.16830  0.52580  1.0000 -0.093480226
C   C25       1.0  0.37410  0.22240  0.39850  1.0000 -0.1530203388
C   C26       1.0  0.54240  0.34720  0.40980  1.0000 -0.1530203388
N   N1        1.0  0.60070  0.56970  0.85680  1.0000 0.1719135154
N   N2        1.0  0.69830  0.43460  0.85730  1.0000 -0.2534600164
N   N3        1.0  0.39930  0.43030  0.14320  1.0000 0.1719135154
N   N4        1.0  0.30170  0.56540  0.14270  1.0000 -0.2534600164
O   O1        1.0  0.92220  0.15610  0.94990  1.0000 -0.7385203358
O   O2        1.0  0.42310  0.84320  0.91920  1.0000 -0.6410375353
O   O3        1.0  0.64490  0.86160  0.94370  1.0000 -0.7161606665
O   O4        1.0  0.78350  0.92250  0.21750  1.0000 -0.6231221076
O   O5        1.0  0.07560  0.30270  0.93000  1.0000 -0.6231221076
O   O6        1.0  0.60640  0.82760  0.20270  1.0000 -0.6076505598
O   O7        1.0  0.07780  0.84390  0.05010  1.0000 -0.7385203358
O   O8        1.0  0.57690  0.15680  0.08080  1.0000 -0.6410375353
O   O9        1.0  0.35510  0.13840  0.05630  1.0000 -0.7161606665
O   O10       1.0  0.21650  0.07750  0.78250  1.0000 -0.6231221076
O   O11       1.0  0.92440  0.69730  0.07000  1.0000 -0.6231221076
O   O12       1.0  0.39360  0.17240  0.79730  1.0000 -0.6076505598
