# DDEC6 charges by PACMAN v1.1 (https://github.com/mtap-research/PACMAN-charge/)
data_2018[Tb][esg]3[ASR]1
_chemical_formula_sum              "Tb4 H48 C96 N12 O24"
_cell_length_a       17.4315
_cell_length_b       17.4315
_cell_length_c       27.7879
_cell_angle_alpha    71.4164
_cell_angle_beta     108.584
_cell_angle_gamma    147.231

_symmetry_space_group_name_H-M    "P 1"
_symmetry_Int_Tables_number       1

loop_
  _symmetry_equiv_pos_as_xyz
  'x, y, z'

loop_
  _atom_site_type_symbol
  _atom_site_label
  _atom_site_symmetry_multiplicity
  _atom_site_fract_x
  _atom_site_fract_y
  _atom_site_fract_z
  _atom_site_occupancy
  _atom_site_charge
Tb  Tb1       1.0  0.05961  0.16641  0.99131  1.0000 2.0743153579
Tb  Tb2       1.0  0.16641  0.05961  0.50869  1.0000 2.0743153579
Tb  Tb3       1.0  0.94039  0.83359  0.00869  1.0000 2.0743153579
Tb  Tb4       1.0  0.83359  0.94039  0.49131  1.0000 2.0743153579
H   H1        1.0  0.81820  0.35740  0.42490  1.0000 0.1187312488
H   H2        1.0  0.55350  0.08150  0.32090  1.0000 0.1187312488
H   H3        1.0  0.60080  0.61300  0.37660  1.0000 0.1187312488
H   H4        1.0  0.46940  0.38360  0.21280  1.0000 0.1082401052
H   H5        1.0  0.93740  0.75340  0.44970  1.0000 0.13035827
H   H6        1.0  0.87730  0.27150  0.46280  1.0000 0.1187312488
H   H7        1.0  0.61340  0.99660  0.35890  1.0000 0.13035827
H   H8        1.0  0.33640  0.31160  0.13470  1.0000 0.1187312488
H   H9        1.0  0.36350  0.06450  0.23080  1.0000 0.1187312488
H   H10       1.0  0.53410  0.46530  0.33530  1.0000 0.1082401052
H   H11       1.0  0.22600  0.99140  0.15390  1.0000 0.13035827
H   H12       1.0  0.86640  0.59900  0.41150  1.0000 0.1187312488
H   H13       1.0  0.35740  0.81820  0.07510  1.0000 0.1187312488
H   H14       1.0  0.08150  0.55350  0.17910  1.0000 0.1187312488
H   H15       1.0  0.61300  0.60080  0.12340  1.0000 0.1187312488
H   H16       1.0  0.38360  0.46940  0.28720  1.0000 0.1082401052
H   H17       1.0  0.75340  0.93740  0.05030  1.0000 0.13035827
H   H18       1.0  0.27150  0.87730  0.03720  1.0000 0.1187312488
H   H19       1.0  0.99660  0.61340  0.14110  1.0000 0.13035827
H   H20       1.0  0.31160  0.33640  0.36530  1.0000 0.1187312488
H   H21       1.0  0.06450  0.36350  0.26920  1.0000 0.1187312488
H   H22       1.0  0.46530  0.53410  0.16470  1.0000 0.1082401052
H   H23       1.0  0.99140  0.22600  0.34610  1.0000 0.13035827
H   H24       1.0  0.59900  0.86640  0.08850  1.0000 0.1187312488
H   H25       1.0  0.18180  0.64260  0.57510  1.0000 0.1187312488
H   H26       1.0  0.44650  0.91850  0.67910  1.0000 0.1187312488
H   H27       1.0  0.39920  0.38700  0.62340  1.0000 0.1187312488
H   H28       1.0  0.53060  0.61640  0.78720  1.0000 0.1082401052
H   H29       1.0  0.06260  0.24660  0.55030  1.0000 0.13035827
H   H30       1.0  0.12270  0.72850  0.53720  1.0000 0.1187312488
H   H31       1.0  0.38660  0.00340  0.64110  1.0000 0.13035827
H   H32       1.0  0.66360  0.68840  0.86530  1.0000 0.1187312488
H   H33       1.0  0.63650  0.93550  0.76920  1.0000 0.1187312488
H   H34       1.0  0.46590  0.53470  0.66470  1.0000 0.1082401052
H   H35       1.0  0.77400  0.00860  0.84610  1.0000 0.13035827
H   H36       1.0  0.13360  0.40100  0.58850  1.0000 0.1187312488
H   H37       1.0  0.64260  0.18180  0.92490  1.0000 0.1187312488
H   H38       1.0  0.91850  0.44650  0.82090  1.0000 0.1187312488
H   H39       1.0  0.38700  0.39920  0.87660  1.0000 0.1187312488
H   H40       1.0  0.61640  0.53060  0.71280  1.0000 0.1082401052
H   H41       1.0  0.24660  0.06260  0.94970  1.0000 0.13035827
H   H42       1.0  0.72850  0.12270  0.96280  1.0000 0.1187312488
H   H43       1.0  0.00340  0.38660  0.85890  1.0000 0.13035827
H   H44       1.0  0.68840  0.66360  0.63470  1.0000 0.1187312488
H   H45       1.0  0.93550  0.63650  0.73080  1.0000 0.1187312488
H   H46       1.0  0.53470  0.46590  0.83530  1.0000 0.1082401052
H   H47       1.0  0.00860  0.77400  0.65390  1.0000 0.13035827
H   H48       1.0  0.40100  0.13360  0.91150  1.0000 0.1187312488
C   C1        1.0  0.26549  0.14331  0.13655  1.0000 -0.0204842423
C   C2        1.0  0.77587  0.28393  0.41140  1.0000 -0.1133854299
C   C3        1.0  0.61896  0.12044  0.34970  1.0000 -0.1133854299
C   C4        1.0  0.64608  0.41632  0.34438  1.0000 0.3646337129
C   C5        1.0  0.65561  0.61179  0.38305  1.0000 -0.0980680857
C   C6        1.0  0.42138  0.30502  0.20108  1.0000 -0.1277854704
C   C7        1.0  0.67952  0.22848  0.36888  1.0000 0.0179837352
C   C8        1.0  0.43062  0.23118  0.23044  1.0000 0.0179837352
C   C9        1.0  0.52006  0.28034  0.28011  1.0000 0.3703300617
C   C10       1.0  0.85533  0.69447  0.42703  1.0000 -0.0980680857
C   C11       1.0  0.69200  0.51520  0.36913  1.0000 0.0179837352
C   C12       1.0  0.81075  0.23185  0.43440  1.0000 -0.0980680857
C   C13       1.0  0.65415  0.06865  0.37280  1.0000 -0.094864402
C   C14       1.0  0.17619  0.09541  0.08589  1.0000 0.6520156748
C   C15       1.0  0.74802  0.12198  0.41561  1.0000 -0.0204842423
C   C16       1.0  0.81993  0.79787  0.44285  1.0000 0.6318240054
C   C17       1.0  0.77728  0.70032  0.41692  1.0000 -0.014037244
C   C18       1.0  0.77861  0.05899  0.44168  1.0000 0.5642664321
C   C19       1.0  0.34027  0.26053  0.15450  1.0000 -0.0980680857
C   C20       1.0  0.35720  0.11400  0.21185  1.0000 -0.1133854299
C   C21       1.0  0.61452  0.52188  0.35877  1.0000 -0.1195044331
C   C22       1.0  0.27537  0.07063  0.16572  1.0000 -0.0980680857
C   C23       1.0  0.81349  0.60271  0.40391  1.0000 -0.1133854299
C   C24       1.0  0.63978  0.28202  0.34443  1.0000 0.3783427365
C   C25       1.0  0.14331  0.26549  0.36345  1.0000 -0.0204842423
C   C26       1.0  0.28393  0.77587  0.08860  1.0000 -0.1195044331
C   C27       1.0  0.12044  0.61896  0.15030  1.0000 -0.1195044331
C   C28       1.0  0.41632  0.64608  0.15562  1.0000 0.3646337129
C   C29       1.0  0.61179  0.65561  0.11695  1.0000 -0.0980680857
C   C30       1.0  0.30502  0.42138  0.29892  1.0000 -0.1277854704
C   C31       1.0  0.22848  0.67952  0.13112  1.0000 0.0179837352
C   C32       1.0  0.23118  0.43062  0.26956  1.0000 0.0179837352
C   C33       1.0  0.28034  0.52006  0.21989  1.0000 0.3703300617
C   C34       1.0  0.69447  0.85533  0.07297  1.0000 -0.0980680857
C   C35       1.0  0.51520  0.69200  0.13087  1.0000 0.0179837352
C   C36       1.0  0.23185  0.81075  0.06560  1.0000 -0.0980680857
C   C37       1.0  0.06865  0.65415  0.12720  1.0000 -0.0980680857
C   C38       1.0  0.09541  0.17619  0.41411  1.0000 0.6520156748
C   C39       1.0  0.12198  0.74802  0.08439  1.0000 -0.0204842423
C   C40       1.0  0.79787  0.81993  0.05715  1.0000 0.6318240054
C   C41       1.0  0.70032  0.77728  0.08308  1.0000 -0.014037244
C   C42       1.0  0.05899  0.77861  0.05832  1.0000 0.5642664321
C   C43       1.0  0.26053  0.34027  0.34550  1.0000 -0.0980680857
C   C44       1.0  0.11400  0.35720  0.28815  1.0000 -0.1133854299
C   C45       1.0  0.52188  0.61452  0.14123  1.0000 -0.1195044331
C   C46       1.0  0.07063  0.27537  0.33428  1.0000 -0.0980680857
C   C47       1.0  0.60271  0.81349  0.09609  1.0000 -0.1133854299
C   C48       1.0  0.28202  0.63978  0.15557  1.0000 0.3783427365
C   C49       1.0  0.73451  0.85669  0.86345  1.0000 -0.0204842423
C   C50       1.0  0.22413  0.71607  0.58860  1.0000 -0.1133854299
C   C51       1.0  0.38104  0.87956  0.65030  1.0000 -0.1133854299
C   C52       1.0  0.35392  0.58368  0.65562  1.0000 0.3646337129
C   C53       1.0  0.34439  0.38821  0.61695  1.0000 -0.0980680857
C   C54       1.0  0.57862  0.69498  0.79892  1.0000 -0.1277854704
C   C55       1.0  0.32048  0.77152  0.63112  1.0000 0.0179837352
C   C56       1.0  0.56938  0.76882  0.76956  1.0000 0.0179837352
C   C57       1.0  0.47994  0.71966  0.71989  1.0000 0.3703300617
C   C58       1.0  0.14467  0.30553  0.57297  1.0000 -0.0980680857
C   C59       1.0  0.30800  0.48480  0.63087  1.0000 0.0179837352
C   C60       1.0  0.18925  0.76815  0.56560  1.0000 -0.0980680857
C   C61       1.0  0.34585  0.93135  0.62720  1.0000 -0.094864402
C   C62       1.0  0.82381  0.90459  0.91411  1.0000 0.6520156748
C   C63       1.0  0.25198  0.87802  0.58439  1.0000 -0.0204842423
C   C64       1.0  0.18007  0.20213  0.55715  1.0000 0.6318240054
C   C65       1.0  0.22272  0.29968  0.58308  1.0000 -0.014037244
C   C66       1.0  0.22139  0.94101  0.55832  1.0000 0.5642664321
C   C67       1.0  0.65973  0.73947  0.84550  1.0000 -0.0980680857
C   C68       1.0  0.64280  0.88600  0.78815  1.0000 -0.1133854299
C   C69       1.0  0.38548  0.47812  0.64123  1.0000 -0.1195044331
C   C70       1.0  0.72463  0.92937  0.83428  1.0000 -0.0980680857
C   C71       1.0  0.18651  0.39729  0.59609  1.0000 -0.1133854299
C   C72       1.0  0.36022  0.71798  0.65557  1.0000 0.3783427365
C   C73       1.0  0.85669  0.73451  0.63655  1.0000 -0.0204842423
C   C74       1.0  0.71607  0.22413  0.91140  1.0000 -0.1133854299
C   C75       1.0  0.87956  0.38104  0.84970  1.0000 -0.1133854299
C   C76       1.0  0.58368  0.35392  0.84438  1.0000 0.3646337129
C   C77       1.0  0.38821  0.34439  0.88305  1.0000 -0.0980680857
C   C78       1.0  0.69498  0.57862  0.70108  1.0000 -0.1277854704
C   C79       1.0  0.77152  0.32048  0.86888  1.0000 0.0179837352
C   C80       1.0  0.76882  0.56938  0.73044  1.0000 0.0179837352
C   C81       1.0  0.71966  0.47994  0.78011  1.0000 0.3703300617
C   C82       1.0  0.30553  0.14467  0.92703  1.0000 -0.0980680857
C   C83       1.0  0.48480  0.30800  0.86913  1.0000 0.0179837352
C   C84       1.0  0.76815  0.18925  0.93440  1.0000 -0.0980680857
C   C85       1.0  0.93135  0.34585  0.87280  1.0000 -0.094864402
C   C86       1.0  0.90459  0.82381  0.58589  1.0000 0.6520156748
C   C87       1.0  0.87802  0.25198  0.91561  1.0000 -0.0204842423
C   C88       1.0  0.20213  0.18007  0.94285  1.0000 0.6318240054
C   C89       1.0  0.29968  0.22272  0.91692  1.0000 -0.014037244
C   C90       1.0  0.94101  0.22139  0.94168  1.0000 0.5642664321
C   C91       1.0  0.73947  0.65973  0.65450  1.0000 -0.0980680857
C   C92       1.0  0.88600  0.64280  0.71185  1.0000 -0.1133854299
C   C93       1.0  0.47812  0.38548  0.85877  1.0000 -0.1195044331
C   C94       1.0  0.92937  0.72463  0.66572  1.0000 -0.0980680857
C   C95       1.0  0.39729  0.18651  0.90391  1.0000 -0.1133854299
C   C96       1.0  0.71798  0.36022  0.84443  1.0000 0.3783427365
N   N1        1.0  0.68979  0.37601  0.36755  1.0000 -0.4121593461
N   N2        1.0  0.56257  0.37303  0.30054  1.0000 -0.4223436378
N   N3        1.0  0.55315  0.22925  0.30101  1.0000 -0.4121593461
N   N4        1.0  0.37601  0.68979  0.13245  1.0000 -0.4121593461
N   N5        1.0  0.37303  0.56257  0.19946  1.0000 -0.4223436378
N   N6        1.0  0.22925  0.55315  0.19899  1.0000 -0.4121593461
N   N7        1.0  0.31021  0.62399  0.63245  1.0000 -0.4121593461
N   N8        1.0  0.43743  0.62697  0.69946  1.0000 -0.4223436378
N   N9        1.0  0.44685  0.77075  0.69899  1.0000 -0.4121593461
N   N10       1.0  0.62399  0.31021  0.86755  1.0000 -0.4121593461
N   N11       1.0  0.62697  0.43743  0.80054  1.0000 -0.4223436378
N   N12       1.0  0.77075  0.44685  0.80101  1.0000 -0.4121593461
O   O1        1.0  0.09838  0.97902  0.07512  1.0000 -0.6294006444
O   O2        1.0  0.86827  0.11113  0.48019  1.0000 -0.6486148946
O   O3        1.0  0.73578  0.78422  0.43885  1.0000 -0.6130023711
O   O4        1.0  0.18797  0.17783  0.05879  1.0000 -0.6838531606
O   O5        1.0  0.93858  0.88742  0.46892  1.0000 -0.7325163
O   O6        1.0  0.71145  0.95255  0.42494  1.0000 -0.6294006444
O   O7        1.0  0.97902  0.09838  0.42488  1.0000 -0.6294006444
O   O8        1.0  0.11113  0.86827  0.01981  1.0000 -0.6486148946
O   O9        1.0  0.78422  0.73578  0.06115  1.0000 -0.6130023711
O   O10       1.0  0.17783  0.18797  0.44121  1.0000 -0.6838531606
O   O11       1.0  0.88742  0.93858  0.03108  1.0000 -0.7325163
O   O12       1.0  0.95255  0.71145  0.07506  1.0000 -0.6294006444
O   O13       1.0  0.90162  0.02098  0.92488  1.0000 -0.6294006444
O   O14       1.0  0.13173  0.88887  0.51981  1.0000 -0.6486148946
O   O15       1.0  0.26422  0.21578  0.56115  1.0000 -0.6130023711
O   O16       1.0  0.81203  0.82217  0.94121  1.0000 -0.6838531606
O   O17       1.0  0.06142  0.11258  0.53108  1.0000 -0.7325163
O   O18       1.0  0.28855  0.04745  0.57506  1.0000 -0.6294006444
O   O19       1.0  0.02098  0.90162  0.57512  1.0000 -0.6294006444
O   O20       1.0  0.88887  0.13173  0.98019  1.0000 -0.6486148946
O   O21       1.0  0.21578  0.26422  0.93885  1.0000 -0.6130023711
O   O22       1.0  0.82217  0.81203  0.55879  1.0000 -0.6838531606
O   O23       1.0  0.11258  0.06142  0.96892  1.0000 -0.7325163
O   O24       1.0  0.04745  0.28855  0.92494  1.0000 -0.6294006444
