# DDEC6 charges by PACMAN v1.1 (https://github.com/mtap-research/PACMAN-charge/)
data_2018[CoMoCr][nan]2[ASR]1
_chemical_formula_sum              "Cr1 Co1 Mo6 H22 C20 N2 O20"
_cell_length_a       10.1292
_cell_length_b       11.3306
_cell_length_c       12.3308
_cell_angle_alpha    114.244
_cell_angle_beta     94.359
_cell_angle_gamma    92.555

_symmetry_space_group_name_H-M    "P 1"
_symmetry_Int_Tables_number       1

loop_
  _symmetry_equiv_pos_as_xyz
  'x, y, z'

loop_
  _atom_site_type_symbol
  _atom_site_label
  _atom_site_symmetry_multiplicity
  _atom_site_fract_x
  _atom_site_fract_y
  _atom_site_fract_z
  _atom_site_occupancy
  _atom_site_charge
Cr  Cr1       1.0  0.00000  0.50000  0.00000  1.0000 1.2643811572
Co  Co1       1.0  0.00000  0.00000  0.00000  1.0000 1.1633833516
Mo  Mo1       1.0  0.18174  0.25612  0.95983  1.0000 1.8309887517
Mo  Mo2       1.0  0.99019  0.35030  0.18067  1.0000 1.8206764925
Mo  Mo3       1.0  0.18891  0.39955  0.77502  1.0000 1.3402013648
Mo  Mo4       1.0  0.81826  0.74388  0.04017  1.0000 1.8416070807
Mo  Mo5       1.0  0.00981  0.64970  0.81933  1.0000 1.8206764925
Mo  Mo6       1.0  0.81109  0.60045  0.22498  1.0000 1.3402013648
H   H1        1.0  0.50709  0.89231  0.12064  1.0000 0.1110224919
H   H2        1.0  0.70034  0.02763  0.14274  1.0000 0.1315706241
H   H3        1.0  0.68420  0.24765  0.19208  1.0000 0.1177024114
H   H4        1.0  0.29387  0.20261  0.19254  1.0000 0.1110224919
H   H5        1.0  0.39785  0.40257  0.20653  1.0000 0.1110224919
H   H6        1.0  0.55668  0.42020  0.21243  1.0000 0.1032580658
H   H7        1.0  0.69443  0.46133  0.40436  1.0000 0.1032580658
H   H8        1.0  0.29273  0.44746  0.38812  1.0000 0.1110224919
H   H9        1.0  0.07967  0.60012  0.21582  1.0000 0.3743763585
H   H10       1.0  0.24538  0.51959  0.02269  1.0000 0.3876690138
H   H11       1.0  0.09851  0.72974  0.03724  1.0000 0.3790421504
H   H12       1.0  0.49291  0.10769  0.87936  1.0000 0.1110224919
H   H13       1.0  0.29966  0.97237  0.85726  1.0000 0.1315706241
H   H14       1.0  0.31580  0.75235  0.80792  1.0000 0.1177024114
H   H15       1.0  0.70613  0.79739  0.80746  1.0000 0.1110224919
H   H16       1.0  0.60215  0.59743  0.79347  1.0000 0.1110224919
H   H17       1.0  0.44332  0.57980  0.78757  1.0000 0.1032580658
H   H18       1.0  0.30557  0.53867  0.59564  1.0000 0.1032580658
H   H19       1.0  0.70727  0.55254  0.61188  1.0000 0.1110224919
H   H20       1.0  0.92033  0.39988  0.78418  1.0000 0.3743763585
H   H21       1.0  0.75462  0.48041  0.97731  1.0000 0.3876690138
H   H22       1.0  0.90149  0.27026  0.96276  1.0000 0.3790421504
C   C1        1.0  0.25070  0.95050  0.12420  1.0000 0.5503523219
C   C2        1.0  0.37980  0.03380  0.15120  1.0000 -0.06540679
C   C3        1.0  0.50140  0.98180  0.13880  1.0000 -0.0774380472
C   C4        1.0  0.61630  0.06260  0.15330  1.0000 -0.1604895946
C   C5        1.0  0.60690  0.19240  0.18290  1.0000 0.0095419203
C   C6        1.0  0.37670  0.16520  0.18250  1.0000 -0.0199614703
C   C7        1.0  0.48220  0.38420  0.24030  1.0000 -0.202199949
C   C8        1.0  0.49150  0.44730  0.37600  1.0000 0.0702111702
C   C9        1.0  0.61550  0.47750  0.44330  1.0000 -0.1722781938
C   C10       1.0  0.37710  0.46930  0.43380  1.0000 -0.1604895946
C   C11       1.0  0.74930  0.04950  0.87580  1.0000 0.5503523219
C   C12       1.0  0.62020  0.96620  0.84880  1.0000 -0.06540679
C   C13       1.0  0.49860  0.01820  0.86120  1.0000 -0.0774380472
C   C14       1.0  0.38370  0.93740  0.84670  1.0000 -0.1604895946
C   C15       1.0  0.39310  0.80760  0.81710  1.0000 0.0095419203
C   C16       1.0  0.62330  0.83480  0.81750  1.0000 -0.0199614703
C   C17       1.0  0.51780  0.61580  0.75970  1.0000 -0.202199949
C   C18       1.0  0.50850  0.55270  0.62400  1.0000 0.0702111702
C   C19       1.0  0.38450  0.52250  0.55670  1.0000 -0.1722781938
C   C20       1.0  0.62290  0.53070  0.56620  1.0000 -0.1604895946
N   N1        1.0  0.48800  0.24080  0.19890  1.0000 0.0702111702
N   N2        1.0  0.51200  0.75920  0.80110  1.0000 0.0702111702
O   O1        1.0  0.01660  0.54610  0.17360  1.0000 -0.947219206
O   O2        1.0  0.18560  0.46050  0.97710  1.0000 -0.944623245
O   O3        1.0  0.02850  0.67850  0.01520  1.0000 -0.918874396
O   O4        1.0  0.81750  0.41550  0.18350  1.0000 -0.8960157168
O   O5        1.0  0.16710  0.33880  0.12910  1.0000 -0.918874396
O   O6        1.0  0.94530  0.18510  0.13180  1.0000 -0.7474186849
O   O7        1.0  0.12620  0.09850  0.93530  1.0000 -0.7708048355
O   O8        1.0  0.13820  0.24730  0.80280  1.0000 -0.8778334986
O   O9        1.0  0.14770  0.00950  0.12360  1.0000 -0.5693588089
O   O10       1.0  0.25520  0.83550  0.10630  1.0000 -0.5067726802
O   O11       1.0  0.98340  0.45390  0.82640  1.0000 -0.947219206
O   O12       1.0  0.81440  0.53950  0.02290  1.0000 -0.944623245
O   O13       1.0  0.97150  0.32150  0.98480  1.0000 -0.918874396
O   O14       1.0  0.18250  0.58450  0.81650  1.0000 -0.8929153812
O   O15       1.0  0.83290  0.66120  0.87090  1.0000 -0.9145390522
O   O16       1.0  0.05470  0.81490  0.86820  1.0000 -0.7474186849
O   O17       1.0  0.87380  0.90150  0.06470  1.0000 -0.7708048355
O   O18       1.0  0.86180  0.75270  0.19720  1.0000 -0.8778334986
O   O19       1.0  0.85230  0.99050  0.87640  1.0000 -0.5693588089
O   O20       1.0  0.74480  0.16450  0.89370  1.0000 -0.5067726802
