# DDEC6 charges by PACMAN v1.1 (https://github.com/mtap-research/PACMAN-charge/)
data_2018[Cd][sra]3[ASR]1
_chemical_formula_sum              "Cd8 H48 C88 O36"
_cell_length_a       10.1739
_cell_length_b       17.731
_cell_length_c       27.6
_cell_angle_alpha    90
_cell_angle_beta     96.073
_cell_angle_gamma    90

_symmetry_space_group_name_H-M    "P 1"
_symmetry_Int_Tables_number       1

loop_
  _symmetry_equiv_pos_as_xyz
  'x, y, z'

loop_
  _atom_site_type_symbol
  _atom_site_label
  _atom_site_symmetry_multiplicity
  _atom_site_fract_x
  _atom_site_fract_y
  _atom_site_fract_z
  _atom_site_occupancy
  _atom_site_charge
Cd  Cd1       1.0  0.94115  0.38784  0.15292  1.0000 0.988257775
Cd  Cd2       1.0  0.22487  0.05318  0.73532  1.0000 1.0282577964
Cd  Cd3       1.0  0.05885  0.88784  0.34708  1.0000 0.988257775
Cd  Cd4       1.0  0.77513  0.55318  0.76468  1.0000 1.0282577964
Cd  Cd5       1.0  0.05885  0.61216  0.84708  1.0000 0.988257775
Cd  Cd6       1.0  0.77513  0.94682  0.26468  1.0000 1.0282577964
Cd  Cd7       1.0  0.94115  0.11216  0.65292  1.0000 0.988257775
Cd  Cd8       1.0  0.22487  0.44682  0.23532  1.0000 1.0282577964
H   H1        1.0  0.52580  0.12040  0.91840  1.0000 0.1102582153
H   H2        1.0  0.36080  0.15480  0.85940  1.0000 0.1102582153
H   H3        1.0  0.22990  0.30610  0.95200  1.0000 0.1102582153
H   H4        1.0  0.54470  0.17670  0.99480  1.0000 0.1186370942
H   H5        1.0  0.21560  0.29710  0.03650  1.0000 0.1186370942
H   H6        1.0  0.45170  0.38920  0.14650  1.0000 0.1186370942
H   H7        1.0  0.60690  0.29480  0.03440  1.0000 0.1186370942
H   H8        1.0  0.94560  0.33100  0.75570  1.0000 0.1269198599
H   H9        1.0  0.16480  0.36790  0.88270  1.0000 0.1186370942
H   H10       1.0  0.15600  0.16520  0.82030  1.0000 0.0979250613
H   H11       1.0  0.37420  0.95200  0.69390  1.0000 0.3727706316
H   H12       1.0  0.36630  0.95780  0.74340  1.0000 0.3210103529
H   H13       1.0  0.47420  0.62040  0.58160  1.0000 0.1102582153
H   H14       1.0  0.63920  0.65480  0.64060  1.0000 0.1102582153
H   H15       1.0  0.77010  0.80610  0.54800  1.0000 0.1102582153
H   H16       1.0  0.45530  0.67670  0.50520  1.0000 0.1186370942
H   H17       1.0  0.78440  0.79710  0.46350  1.0000 0.1186370942
H   H18       1.0  0.54830  0.88920  0.35350  1.0000 0.1186370942
H   H19       1.0  0.39310  0.79480  0.46560  1.0000 0.1186370942
H   H20       1.0  0.05440  0.83100  0.74430  1.0000 0.1269198599
H   H21       1.0  0.83520  0.86790  0.61730  1.0000 0.1186370942
H   H22       1.0  0.84400  0.66520  0.67970  1.0000 0.0979250613
H   H23       1.0  0.62580  0.45200  0.80610  1.0000 0.3727706316
H   H24       1.0  0.63370  0.45780  0.75660  1.0000 0.3210103529
H   H25       1.0  0.47420  0.87960  0.08160  1.0000 0.1102582153
H   H26       1.0  0.63920  0.84520  0.14060  1.0000 0.1102582153
H   H27       1.0  0.77010  0.69390  0.04800  1.0000 0.1102582153
H   H28       1.0  0.45530  0.82330  0.00520  1.0000 0.1186370942
H   H29       1.0  0.78440  0.70290  0.96350  1.0000 0.1186370942
H   H30       1.0  0.54830  0.61080  0.85350  1.0000 0.1186370942
H   H31       1.0  0.39310  0.70520  0.96560  1.0000 0.1186370942
H   H32       1.0  0.05440  0.66900  0.24430  1.0000 0.1269198599
H   H33       1.0  0.83520  0.63210  0.11730  1.0000 0.1186370942
H   H34       1.0  0.84400  0.83480  0.17970  1.0000 0.0979250613
H   H35       1.0  0.62580  0.04800  0.30610  1.0000 0.3727706316
H   H36       1.0  0.63370  0.04220  0.25660  1.0000 0.3210103529
H   H37       1.0  0.52580  0.37960  0.41840  1.0000 0.1102582153
H   H38       1.0  0.36080  0.34520  0.35940  1.0000 0.1102582153
H   H39       1.0  0.22990  0.19390  0.45200  1.0000 0.1102582153
H   H40       1.0  0.54470  0.32330  0.49480  1.0000 0.1186370942
H   H41       1.0  0.21560  0.20290  0.53650  1.0000 0.1186370942
H   H42       1.0  0.45170  0.11080  0.64650  1.0000 0.1186370942
H   H43       1.0  0.60690  0.20520  0.53440  1.0000 0.1186370942
H   H44       1.0  0.94560  0.16900  0.25570  1.0000 0.1269198599
H   H45       1.0  0.16480  0.13210  0.38270  1.0000 0.1186370942
H   H46       1.0  0.15600  0.33480  0.32030  1.0000 0.0979250613
H   H47       1.0  0.37420  0.54800  0.19390  1.0000 0.3727706316
H   H48       1.0  0.36630  0.54220  0.24340  1.0000 0.3210103529
C   C1        1.0  0.46650  0.15800  0.92510  1.0000 -0.0827571974
C   C2        1.0  0.36800  0.17880  0.88958  1.0000 -0.1695584339
C   C3        1.0  0.27860  0.23570  0.89852  1.0000 0.0804529934
C   C4        1.0  0.29070  0.26970  0.94490  1.0000 -0.206786817
C   C5        1.0  0.39190  0.24960  0.97993  1.0000 0.0857902671
C   C6        1.0  0.47910  0.19210  0.97080  1.0000 -0.1617422682
C   C7        1.0  0.40770  0.28940  0.02788  1.0000 0.0543906632
C   C8        1.0  0.29990  0.30950  0.05054  1.0000 -0.1472599588
C   C9        1.0  0.31620  0.34930  0.09545  1.0000 -0.0257057418
C   C10       1.0  0.44060  0.36480  0.11656  1.0000 -0.1175735873
C   C11       1.0  0.54970  0.34470  0.09401  1.0000 0.0009717905
C   C12       1.0  0.53300  0.30770  0.04981  1.0000 -0.1472599588
C   C13       1.0  0.68920  0.36300  0.11670  1.0000 0.5480302664
C   C14       1.0  0.00400  0.31390  0.78156  1.0000 -0.1040356663
C   C15       1.0  0.04600  0.36270  0.81939  1.0000 -0.0389280115
C   C16       1.0  0.13420  0.33540  0.85759  1.0000 -0.1311540214
C   C17       1.0  0.17700  0.26210  0.85914  1.0000 0.058762245
C   C18       1.0  0.12950  0.21540  0.81986  1.0000 -0.1472599588
C   C19       1.0  0.04780  0.24020  0.78189  1.0000 -0.0225266592
C   C20       1.0  0.00830  0.19130  0.73872  1.0000 0.5804774853
C   C21       1.0  0.19640  0.36820  0.12122  1.0000 0.5804774853
C   C22       1.0  0.99990  0.44270  0.81688  1.0000 0.5952629539
C   C23       1.0  0.53350  0.65800  0.57490  1.0000 -0.0827571974
C   C24       1.0  0.63200  0.67880  0.61042  1.0000 -0.1695584339
C   C25       1.0  0.72140  0.73570  0.60148  1.0000 0.0804529934
C   C26       1.0  0.70930  0.76970  0.55510  1.0000 -0.206786817
C   C27       1.0  0.60810  0.74960  0.52007  1.0000 0.0857902671
C   C28       1.0  0.52090  0.69210  0.52920  1.0000 -0.1617422682
C   C29       1.0  0.59230  0.78940  0.47212  1.0000 0.058762245
C   C30       1.0  0.70010  0.80950  0.44946  1.0000 -0.1472599588
C   C31       1.0  0.68380  0.84930  0.40455  1.0000 -0.0225266592
C   C32       1.0  0.55940  0.86480  0.38344  1.0000 -0.1175735873
C   C33       1.0  0.45030  0.84470  0.40599  1.0000 0.0009717905
C   C34       1.0  0.46700  0.80770  0.45019  1.0000 -0.1472599588
C   C35       1.0  0.31080  0.86300  0.38330  1.0000 0.5480302664
C   C36       1.0  0.99600  0.81390  0.71844  1.0000 -0.1040356663
C   C37       1.0  0.95400  0.86270  0.68061  1.0000 -0.0389280115
C   C38       1.0  0.86580  0.83540  0.64241  1.0000 -0.1311540214
C   C39       1.0  0.82300  0.76210  0.64086  1.0000 0.058762245
C   C40       1.0  0.87050  0.71540  0.68014  1.0000 -0.1472599588
C   C41       1.0  0.95220  0.74020  0.71811  1.0000 -0.0225266592
C   C42       1.0  0.99170  0.69130  0.76128  1.0000 0.5804774853
C   C43       1.0  0.80360  0.86820  0.37878  1.0000 0.5804774853
C   C44       1.0  0.00010  0.94270  0.68312  1.0000 0.5952629539
C   C45       1.0  0.53350  0.84200  0.07490  1.0000 -0.0827571974
C   C46       1.0  0.63200  0.82120  0.11042  1.0000 -0.1695584339
C   C47       1.0  0.72140  0.76430  0.10148  1.0000 0.0804529934
C   C48       1.0  0.70930  0.73030  0.05510  1.0000 -0.206786817
C   C49       1.0  0.60810  0.75040  0.02007  1.0000 0.0857902671
C   C50       1.0  0.52090  0.80790  0.02920  1.0000 -0.1617422682
C   C51       1.0  0.59230  0.71060  0.97212  1.0000 0.058762245
C   C52       1.0  0.70010  0.69050  0.94946  1.0000 -0.1472599588
C   C53       1.0  0.68380  0.65070  0.90455  1.0000 -0.0225266592
C   C54       1.0  0.55940  0.63520  0.88344  1.0000 -0.1175735873
C   C55       1.0  0.45030  0.65530  0.90599  1.0000 0.0009717905
C   C56       1.0  0.46700  0.69230  0.95019  1.0000 -0.1472599588
C   C57       1.0  0.31080  0.63700  0.88330  1.0000 0.5480302664
C   C58       1.0  0.99600  0.68610  0.21844  1.0000 -0.1040356663
C   C59       1.0  0.95400  0.63730  0.18061  1.0000 -0.0389280115
C   C60       1.0  0.86580  0.66460  0.14241  1.0000 -0.1311540214
C   C61       1.0  0.82300  0.73790  0.14086  1.0000 0.058762245
C   C62       1.0  0.87050  0.78460  0.18014  1.0000 -0.1472599588
C   C63       1.0  0.95220  0.75980  0.21811  1.0000 -0.0225266592
C   C64       1.0  0.99170  0.80870  0.26128  1.0000 0.5804774853
C   C65       1.0  0.80360  0.63180  0.87878  1.0000 0.5804774853
C   C66       1.0  0.00010  0.55730  0.18312  1.0000 0.5952629539
C   C67       1.0  0.46650  0.34200  0.42510  1.0000 -0.0827571974
C   C68       1.0  0.36800  0.32120  0.38958  1.0000 -0.1695584339
C   C69       1.0  0.27860  0.26430  0.39852  1.0000 0.0804529934
C   C70       1.0  0.29070  0.23030  0.44490  1.0000 -0.206786817
C   C71       1.0  0.39190  0.25040  0.47993  1.0000 0.0857902671
C   C72       1.0  0.47910  0.30790  0.47080  1.0000 -0.1617422682
C   C73       1.0  0.40770  0.21060  0.52788  1.0000 0.058762245
C   C74       1.0  0.29990  0.19050  0.55054  1.0000 -0.1472599588
C   C75       1.0  0.31620  0.15070  0.59545  1.0000 -0.0225266592
C   C76       1.0  0.44060  0.13520  0.61656  1.0000 -0.1175735873
C   C77       1.0  0.54970  0.15530  0.59401  1.0000 0.0009717905
C   C78       1.0  0.53300  0.19230  0.54981  1.0000 -0.1472599588
C   C79       1.0  0.68920  0.13700  0.61670  1.0000 0.5480302664
C   C80       1.0  0.00400  0.18610  0.28156  1.0000 -0.1040356663
C   C81       1.0  0.04600  0.13730  0.31939  1.0000 -0.0389280115
C   C82       1.0  0.13420  0.16460  0.35759  1.0000 -0.1311540214
C   C83       1.0  0.17700  0.23790  0.35914  1.0000 0.058762245
C   C84       1.0  0.12950  0.28460  0.31986  1.0000 -0.1472599588
C   C85       1.0  0.04780  0.25980  0.28189  1.0000 -0.0225266592
C   C86       1.0  0.00830  0.30870  0.23872  1.0000 0.5804774853
C   C87       1.0  0.19640  0.13180  0.62122  1.0000 0.5804774853
C   C88       1.0  0.99990  0.05730  0.31688  1.0000 0.5952629539
O   O1        1.0  0.03560  0.12149  0.74070  1.0000 -0.5964581875
O   O2        1.0  0.94850  0.21950  0.70179  1.0000 -0.4900727142
O   O3        1.0  0.78300  0.34770  0.09282  1.0000 -0.5275557694
O   O4        1.0  0.70260  0.39120  0.15906  1.0000 -0.5472324995
O   O5        1.0  0.90800  0.45859  0.78490  1.0000 -0.5781999884
O   O6        1.0  0.05850  0.48806  0.84703  1.0000 -0.537971845
O   O7        1.0  0.21530  0.40280  0.15955  1.0000 -0.5706447271
O   O8        1.0  0.08500  0.35140  0.10165  1.0000 -0.4900727142
O   O9        1.0  0.39650  0.97660  0.71860  1.0000 -0.608624017
O   O10       1.0  0.96440  0.62149  0.75930  1.0000 -0.5964581875
O   O11       1.0  0.05150  0.71950  0.79821  1.0000 -0.4900727142
O   O12       1.0  0.21700  0.84770  0.40718  1.0000 -0.5275557694
O   O13       1.0  0.29740  0.89120  0.34094  1.0000 -0.5472324995
O   O14       1.0  0.09200  0.95859  0.71510  1.0000 -0.5781999884
O   O15       1.0  0.94150  0.98806  0.65297  1.0000 -0.537971845
O   O16       1.0  0.78470  0.90280  0.34045  1.0000 -0.5706447271
O   O17       1.0  0.91500  0.85140  0.39835  1.0000 -0.4900727142
O   O18       1.0  0.60350  0.47660  0.78140  1.0000 -0.608624017
O   O19       1.0  0.96440  0.87851  0.25930  1.0000 -0.5964581875
O   O20       1.0  0.05150  0.78050  0.29821  1.0000 -0.4900727142
O   O21       1.0  0.21700  0.65230  0.90718  1.0000 -0.5275557694
O   O22       1.0  0.29740  0.60880  0.84094  1.0000 -0.5472324995
O   O23       1.0  0.09200  0.54141  0.21510  1.0000 -0.5781999884
O   O24       1.0  0.94150  0.51194  0.15297  1.0000 -0.537971845
O   O25       1.0  0.78470  0.59720  0.84045  1.0000 -0.5706447271
O   O26       1.0  0.91500  0.64860  0.89835  1.0000 -0.4900727142
O   O27       1.0  0.60350  0.02340  0.28140  1.0000 -0.608624017
O   O28       1.0  0.03560  0.37851  0.24070  1.0000 -0.5964581875
O   O29       1.0  0.94850  0.28050  0.20179  1.0000 -0.4900727142
O   O30       1.0  0.78300  0.15230  0.59282  1.0000 -0.5275557694
O   O31       1.0  0.70260  0.10880  0.65906  1.0000 -0.5472324995
O   O32       1.0  0.90800  0.04141  0.28490  1.0000 -0.5781999884
O   O33       1.0  0.05850  0.01194  0.34703  1.0000 -0.537971845
O   O34       1.0  0.21530  0.09720  0.65955  1.0000 -0.5706447271
O   O35       1.0  0.08500  0.14860  0.60165  1.0000 -0.4900727142
O   O36       1.0  0.39650  0.52340  0.21860  1.0000 -0.608624017
