# DDEC6 charges by PACMAN v1.1 (https://github.com/mtap-research/PACMAN-charge/)
data_2018[Gd][nan]3[ASR]3
_chemical_formula_sum              "Gd4 H4 C10 O24"
_cell_length_a       6.2914
_cell_length_b       8.6698
_cell_length_c       12.9473
_cell_angle_alpha    105.482
_cell_angle_beta     90.462
_cell_angle_gamma    105.181

_symmetry_space_group_name_H-M    "P 1"
_symmetry_Int_Tables_number       1

loop_
  _symmetry_equiv_pos_as_xyz
  'x, y, z'

loop_
  _atom_site_type_symbol
  _atom_site_label
  _atom_site_symmetry_multiplicity
  _atom_site_fract_x
  _atom_site_fract_y
  _atom_site_fract_z
  _atom_site_occupancy
  _atom_site_charge
Gd  Gd1       1.0  0.05885  0.52898  0.25755  1.0000 1.9576536119
Gd  Gd2       1.0  0.30938  0.16662  0.07512  1.0000 2.0228553712
Gd  Gd3       1.0  0.94115  0.47102  0.74245  1.0000 1.9576536119
Gd  Gd4       1.0  0.69062  0.83338  0.92488  1.0000 2.0228553712
H   H1        1.0  0.43100  0.49500  0.33100  1.0000 0.3399295509
H   H2        1.0  0.33500  0.34000  0.33700  1.0000 0.3641471267
H   H3        1.0  0.56900  0.50500  0.66900  1.0000 0.3399295509
H   H4        1.0  0.66500  0.66000  0.66300  1.0000 0.3641471267
C   C1        1.0  0.21480  0.79230  0.86920  1.0000 0.8934069872
C   C2        1.0  0.90280  0.41950  0.48000  1.0000 0.4983165265
C   C3        1.0  0.44330  0.54910  0.04640  1.0000 0.5329099
C   C4        1.0  0.95470  0.19490  0.87090  1.0000 0.5195184648
C   C5        1.0  0.76850  0.10440  0.78180  1.0000 0.5195184648
C   C6        1.0  0.78520  0.20770  0.13080  1.0000 0.8934069872
C   C7        1.0  0.09720  0.58050  0.52000  1.0000 0.4983165265
C   C8        1.0  0.55670  0.45090  0.95360  1.0000 0.5329099
C   C9        1.0  0.04530  0.80510  0.12910  1.0000 0.5195184648
C   C10       1.0  0.23150  0.89560  0.21820  1.0000 0.5195184648
O   O1        1.0  0.01240  0.76910  0.84010  1.0000 -0.7724194825
O   O2        1.0  0.32880  0.47180  0.10230  1.0000 -0.608646661
O   O3        1.0  0.29680  0.66760  0.83790  1.0000 -0.7513715327
O   O4        1.0  0.34010  0.93230  0.92440  1.0000 -0.7394791543
O   O5        1.0  0.99330  0.11530  0.93370  1.0000 -0.6248834431
O   O6        1.0  0.47920  0.70150  0.05520  1.0000 -0.5597599745
O   O7        1.0  0.05550  0.33970  0.87330  1.0000 -0.5673340261
O   O8        1.0  0.81510  0.35270  0.54730  1.0000 -0.5895040333
O   O9        1.0  0.73440  0.18320  0.71680  1.0000 -0.608646661
O   O10       1.0  0.36050  0.39860  0.29300  1.0000 -0.7263400853
O   O11       1.0  0.66320  0.96040  0.77670  1.0000 -0.5401109755
O   O12       1.0  0.85550  0.37190  0.38050  1.0000 -0.5597599745
O   O13       1.0  0.98760  0.23090  0.15990  1.0000 -0.7724194825
O   O14       1.0  0.67120  0.52820  0.89770  1.0000 -0.608646661
O   O15       1.0  0.70320  0.33240  0.16210  1.0000 -0.7513715327
O   O16       1.0  0.65990  0.06770  0.07560  1.0000 -0.7394791543
O   O17       1.0  0.00670  0.88470  0.06630  1.0000 -0.6248834431
O   O18       1.0  0.52080  0.29850  0.94480  1.0000 -0.5597599745
O   O19       1.0  0.94450  0.66030  0.12670  1.0000 -0.5673340261
O   O20       1.0  0.18490  0.64730  0.45270  1.0000 -0.5895040333
O   O21       1.0  0.26560  0.81680  0.28320  1.0000 -0.608646661
O   O22       1.0  0.63950  0.60140  0.70700  1.0000 -0.7263400853
O   O23       1.0  0.33680  0.03960  0.22330  1.0000 -0.5401109755
O   O24       1.0  0.14450  0.62810  0.61950  1.0000 -0.5597599745
