# DDEC6 charges by PACMAN v1.1 (https://github.com/mtap-research/PACMAN-charge/)
data_2018[Co][flu]3[ASR]4
_chemical_formula_sum              "Co8 P4 H48 C84 O32"
_cell_length_a       13.502
_cell_length_b       13.852
_cell_length_c       20.841
_cell_angle_alpha    90
_cell_angle_beta     104.67
_cell_angle_gamma    90

_symmetry_space_group_name_H-M    "P 1"
_symmetry_Int_Tables_number       1

loop_
  _symmetry_equiv_pos_as_xyz
  'x, y, z'

loop_
  _atom_site_type_symbol
  _atom_site_label
  _atom_site_symmetry_multiplicity
  _atom_site_fract_x
  _atom_site_fract_y
  _atom_site_fract_z
  _atom_site_occupancy
  _atom_site_charge
Co  Co1       1.0  0.90136  0.45546  0.94881  1.0000 1.1366072554
Co  Co2       1.0  0.15389  0.36655  0.95144  1.0000 1.1517734785
Co  Co3       1.0  0.09864  0.95546  0.55119  1.0000 1.1366072554
Co  Co4       1.0  0.84611  0.86655  0.54856  1.0000 1.1517734785
Co  Co5       1.0  0.09864  0.54454  0.05119  1.0000 1.1366072554
Co  Co6       1.0  0.84611  0.63345  0.04856  1.0000 1.1517734785
Co  Co7       1.0  0.90136  0.04454  0.44881  1.0000 1.1366072554
Co  Co8       1.0  0.15389  0.13345  0.45144  1.0000 1.1517734785
P   P1        1.0  0.23222  0.46424  0.81806  1.0000 0.8591660667
P   P2        1.0  0.76778  0.96424  0.68194  1.0000 0.8591660667
P   P3        1.0  0.76778  0.53576  0.18194  1.0000 0.8591660667
P   P4        1.0  0.23222  0.03576  0.31806  1.0000 0.8591660667
H   H1        1.0  0.58790  0.38120  0.86120  1.0000 0.1287744116
H   H2        1.0  0.13600  0.15100  0.72000  1.0000 0.1200819168
H   H3        1.0  0.34500  0.58800  0.90900  1.0000 0.1200819168
H   H4        1.0  0.03500  0.54000  0.76300  1.0000 0.1372438144
H   H5        1.0  0.32100  0.63200  0.77100  1.0000 0.111416645
H   H6        1.0  0.51600  0.60300  0.96300  1.0000 0.1287744116
H   H7        1.0  0.21000  0.33900  0.59500  1.0000 0.1287744116
H   H8        1.0  0.98500  0.66700  0.69700  1.0000 0.1200819168
H   H9        1.0  0.18000  0.26800  0.80500  1.0000 0.1200819168
H   H10       1.0  0.24800  0.45100  0.68400  1.0000 0.1200819168
H   H11       1.0  0.41300  0.37800  0.80300  1.0000 0.111416645
H   H12       1.0  0.23900  0.77500  0.70000  1.0000 0.1287744116
H   H13       1.0  0.41210  0.88120  0.63880  1.0000 0.1287744116
H   H14       1.0  0.86400  0.65100  0.78000  1.0000 0.1200819168
H   H15       1.0  0.65500  0.08800  0.59100  1.0000 0.1200819168
H   H16       1.0  0.96500  0.04000  0.73700  1.0000 0.1372438144
H   H17       1.0  0.67900  0.13200  0.72900  1.0000 0.111416645
H   H18       1.0  0.48400  0.10300  0.53700  1.0000 0.1287744116
H   H19       1.0  0.79000  0.83900  0.90500  1.0000 0.1287744116
H   H20       1.0  0.01500  0.16700  0.80300  1.0000 0.1200819168
H   H21       1.0  0.82000  0.76800  0.69500  1.0000 0.1200819168
H   H22       1.0  0.75200  0.95100  0.81600  1.0000 0.1200819168
H   H23       1.0  0.58700  0.87800  0.69700  1.0000 0.111416645
H   H24       1.0  0.76100  0.27500  0.80000  1.0000 0.1287744116
H   H25       1.0  0.41210  0.61880  0.13880  1.0000 0.1287744116
H   H26       1.0  0.86400  0.84900  0.28000  1.0000 0.1200819168
H   H27       1.0  0.65500  0.41200  0.09100  1.0000 0.1200819168
H   H28       1.0  0.96500  0.46000  0.23700  1.0000 0.1372438144
H   H29       1.0  0.67900  0.36800  0.22900  1.0000 0.111416645
H   H30       1.0  0.48400  0.39700  0.03700  1.0000 0.1287744116
H   H31       1.0  0.79000  0.66100  0.40500  1.0000 0.1287744116
H   H32       1.0  0.01500  0.33300  0.30300  1.0000 0.1200819168
H   H33       1.0  0.82000  0.73200  0.19500  1.0000 0.1200819168
H   H34       1.0  0.75200  0.54900  0.31600  1.0000 0.1200819168
H   H35       1.0  0.58700  0.62200  0.19700  1.0000 0.111416645
H   H36       1.0  0.76100  0.22500  0.30000  1.0000 0.1287744116
H   H37       1.0  0.58790  0.11880  0.36120  1.0000 0.1287744116
H   H38       1.0  0.13600  0.34900  0.22000  1.0000 0.1200819168
H   H39       1.0  0.34500  0.91200  0.40900  1.0000 0.1200819168
H   H40       1.0  0.03500  0.96000  0.26300  1.0000 0.1372438144
H   H41       1.0  0.32100  0.86800  0.27100  1.0000 0.111416645
H   H42       1.0  0.51600  0.89700  0.46300  1.0000 0.1287744116
H   H43       1.0  0.21000  0.16100  0.09500  1.0000 0.1287744116
H   H44       1.0  0.98500  0.83300  0.19700  1.0000 0.1200819168
H   H45       1.0  0.18000  0.23200  0.30500  1.0000 0.1200819168
H   H46       1.0  0.24800  0.04900  0.18400  1.0000 0.1200819168
H   H47       1.0  0.41300  0.12200  0.30300  1.0000 0.111416645
H   H48       1.0  0.23900  0.72500  0.20000  1.0000 0.1287744116
C   C1        1.0  0.10130  0.72370  0.68876  1.0000 -0.0181297533
C   C2        1.0  0.36690  0.47700  0.85497  1.0000 -0.1568400864
C   C3        1.0  0.21500  0.37510  0.75299  1.0000 -0.1535193812
C   C4        1.0  0.16060  0.21670  0.71358  1.0000 -0.1004559771
C   C5        1.0  0.17040  0.24020  0.65070  1.0000 -0.0072898869
C   C6        1.0  0.50340  0.55740  0.93277  1.0000 -0.090668896
C   C7        1.0  0.18670  0.57340  0.77391  1.0000 -0.1407796148
C   C8        1.0  0.14290  0.16870  0.59484  1.0000 0.5874671365
C   C9        1.0  0.22660  0.39790  0.69068  1.0000 -0.090668896
C   C10       1.0  0.05410  0.80020  0.63889  1.0000 0.5874671365
C   C11       1.0  0.43810  0.41410  0.84074  1.0000 -0.090668896
C   C12       1.0  0.03970  0.65640  0.70872  1.0000 -0.1004559771
C   C13       1.0  0.24960  0.64090  0.75431  1.0000 -0.1004559771
C   C14       1.0  0.54080  0.42330  0.87176  1.0000 -0.090668896
C   C15       1.0  0.20400  0.33130  0.64019  1.0000 -0.1004559771
C   C16       1.0  0.68680  0.50470  0.95257  1.0000 0.5838015038
C   C17       1.0  0.57400  0.49480  0.91828  1.0000 -0.0072898869
C   C18       1.0  0.08150  0.58310  0.75134  1.0000 -0.0811858367
C   C19       1.0  0.40050  0.54910  0.90154  1.0000 -0.090668896
C   C20       1.0  0.18310  0.28340  0.76423  1.0000 -0.0811858367
C   C21       1.0  0.20680  0.71540  0.71243  1.0000 -0.1004559771
C   C22       1.0  0.89870  0.22370  0.81124  1.0000 -0.0181297533
C   C23       1.0  0.63310  0.97700  0.64503  1.0000 -0.1568400864
C   C24       1.0  0.78500  0.87510  0.74701  1.0000 -0.1535193812
C   C25       1.0  0.83940  0.71670  0.78642  1.0000 -0.1004559771
C   C26       1.0  0.82960  0.74020  0.84930  1.0000 -0.0072898869
C   C27       1.0  0.49660  0.05740  0.56723  1.0000 -0.090668896
C   C28       1.0  0.81330  0.07340  0.72609  1.0000 -0.1407796148
C   C29       1.0  0.85710  0.66870  0.90516  1.0000 0.5874671365
C   C30       1.0  0.77340  0.89790  0.80932  1.0000 -0.090668896
C   C31       1.0  0.94590  0.30020  0.86111  1.0000 0.5874671365
C   C32       1.0  0.56190  0.91410  0.65926  1.0000 -0.1004559771
C   C33       1.0  0.96030  0.15640  0.79128  1.0000 -0.1004559771
C   C34       1.0  0.75040  0.14090  0.74569  1.0000 -0.1004559771
C   C35       1.0  0.45920  0.92330  0.62824  1.0000 -0.090668896
C   C36       1.0  0.79600  0.83130  0.85981  1.0000 -0.1004559771
C   C37       1.0  0.31320  0.00470  0.54743  1.0000 0.5874671365
C   C38       1.0  0.42600  0.99480  0.58172  1.0000 -0.0072898869
C   C39       1.0  0.91850  0.08310  0.74866  1.0000 -0.0811858367
C   C40       1.0  0.59950  0.04910  0.59846  1.0000 -0.090668896
C   C41       1.0  0.81690  0.78340  0.73577  1.0000 -0.0811858367
C   C42       1.0  0.79320  0.21540  0.78757  1.0000 -0.1004559771
C   C43       1.0  0.89870  0.27630  0.31124  1.0000 -0.0181297533
C   C44       1.0  0.63310  0.52300  0.14503  1.0000 -0.1568400864
C   C45       1.0  0.78500  0.62490  0.24701  1.0000 -0.1535193812
C   C46       1.0  0.83940  0.78330  0.28642  1.0000 -0.1004559771
C   C47       1.0  0.82960  0.75980  0.34930  1.0000 -0.0072898869
C   C48       1.0  0.49660  0.44260  0.06723  1.0000 -0.090668896
C   C49       1.0  0.81330  0.42660  0.22609  1.0000 -0.1407796148
C   C50       1.0  0.85710  0.83130  0.40516  1.0000 0.5874671365
C   C51       1.0  0.77340  0.60210  0.30932  1.0000 -0.090668896
C   C52       1.0  0.94590  0.19980  0.36111  1.0000 0.5874671365
C   C53       1.0  0.56190  0.58590  0.15926  1.0000 -0.1004559771
C   C54       1.0  0.96030  0.34360  0.29128  1.0000 -0.1004559771
C   C55       1.0  0.75040  0.35910  0.24569  1.0000 -0.1004559771
C   C56       1.0  0.45920  0.57670  0.12824  1.0000 -0.090668896
C   C57       1.0  0.79600  0.66870  0.35981  1.0000 -0.1004559771
C   C58       1.0  0.31320  0.49530  0.04743  1.0000 0.5838015038
C   C59       1.0  0.42600  0.50520  0.08172  1.0000 -0.0072898869
C   C60       1.0  0.91850  0.41690  0.24866  1.0000 -0.0811858367
C   C61       1.0  0.59950  0.45090  0.09846  1.0000 -0.090668896
C   C62       1.0  0.81690  0.71660  0.23577  1.0000 -0.0811858367
C   C63       1.0  0.79320  0.28460  0.28757  1.0000 -0.1004559771
C   C64       1.0  0.10130  0.77630  0.18876  1.0000 -0.0181297533
C   C65       1.0  0.36690  0.02300  0.35497  1.0000 -0.1568400864
C   C66       1.0  0.21500  0.12490  0.25299  1.0000 -0.1535193812
C   C67       1.0  0.16060  0.28330  0.21358  1.0000 -0.1004559771
C   C68       1.0  0.17040  0.25980  0.15070  1.0000 -0.0072898869
C   C69       1.0  0.50340  0.94260  0.43277  1.0000 -0.090668896
C   C70       1.0  0.18670  0.92660  0.27391  1.0000 -0.1407796148
C   C71       1.0  0.14290  0.33130  0.09484  1.0000 0.5874671365
C   C72       1.0  0.22660  0.10210  0.19068  1.0000 -0.090668896
C   C73       1.0  0.05410  0.69980  0.13889  1.0000 0.5874671365
C   C74       1.0  0.43810  0.08590  0.34074  1.0000 -0.090668896
C   C75       1.0  0.03970  0.84360  0.20872  1.0000 -0.1004559771
C   C76       1.0  0.24960  0.85910  0.25431  1.0000 -0.1004559771
C   C77       1.0  0.54080  0.07670  0.37176  1.0000 -0.090668896
C   C78       1.0  0.20400  0.16870  0.14019  1.0000 -0.1004559771
C   C79       1.0  0.68680  0.99530  0.45257  1.0000 0.5838015038
C   C80       1.0  0.57400  0.00520  0.41828  1.0000 -0.0072898869
C   C81       1.0  0.08150  0.91690  0.25134  1.0000 -0.0811858367
C   C82       1.0  0.40050  0.95090  0.40154  1.0000 -0.090668896
C   C83       1.0  0.18310  0.21660  0.26423  1.0000 -0.0811858367
C   C84       1.0  0.20680  0.78460  0.21243  1.0000 -0.1004559771
O   O1        1.0  0.17198  0.44032  0.86625  1.0000 -0.6131981652
O   O2        1.0  0.96328  0.78548  0.60751  1.0000 -0.5606530648
O   O3        1.0  0.74614  0.44161  0.93998  1.0000 -0.5392308673
O   O4        1.0  0.12922  0.08285  0.60924  1.0000 -0.5201130848
O   O5        1.0  0.13433  0.20218  0.53741  1.0000 -0.5656466823
O   O6        1.0  0.10997  0.87127  0.63373  1.0000 -0.5392308673
O   O7        1.0  0.71085  0.57549  0.99041  1.0000 -0.5606530648
O   O8        1.0  0.06011  0.47839  0.95969  1.0000 -0.8733831089
O   O9        1.0  0.82802  0.94032  0.63375  1.0000 -0.6131981652
O   O10       1.0  0.03672  0.28548  0.89249  1.0000 -0.5606530648
O   O11       1.0  0.25386  0.94161  0.56002  1.0000 -0.5392308673
O   O12       1.0  0.87078  0.58285  0.89076  1.0000 -0.5201130848
O   O13       1.0  0.86567  0.70218  0.96259  1.0000 -0.5656466823
O   O14       1.0  0.89003  0.37127  0.86627  1.0000 -0.5392308673
O   O15       1.0  0.28915  0.07549  0.50959  1.0000 -0.5606530648
O   O16       1.0  0.93989  0.97839  0.54031  1.0000 -0.875725631
O   O17       1.0  0.82802  0.55968  0.13375  1.0000 -0.6131981652
O   O18       1.0  0.03672  0.21452  0.39249  1.0000 -0.5606530648
O   O19       1.0  0.25386  0.55839  0.06002  1.0000 -0.5459320586
O   O20       1.0  0.87078  0.91715  0.39076  1.0000 -0.5201130848
O   O21       1.0  0.86567  0.79782  0.46259  1.0000 -0.5656466823
O   O22       1.0  0.89003  0.12873  0.36627  1.0000 -0.5392308673
O   O23       1.0  0.28915  0.42451  0.00959  1.0000 -0.5606530648
O   O24       1.0  0.93989  0.52161  0.04031  1.0000 -0.8733831089
O   O25       1.0  0.17198  0.05968  0.36625  1.0000 -0.6131981652
O   O26       1.0  0.96328  0.71452  0.10751  1.0000 -0.5606530648
O   O27       1.0  0.74614  0.05839  0.43998  1.0000 -0.5459320586
O   O28       1.0  0.12922  0.41715  0.10924  1.0000 -0.5201130848
O   O29       1.0  0.13433  0.29782  0.03741  1.0000 -0.5656466823
O   O30       1.0  0.10997  0.62873  0.13373  1.0000 -0.5392308673
O   O31       1.0  0.71085  0.92451  0.49041  1.0000 -0.5606530648
O   O32       1.0  0.06011  0.02161  0.45969  1.0000 -0.8733831089
