# DDEC6 charges by PACMAN v1.1 (https://github.com/mtap-research/PACMAN-charge/)
data_2018[Co][kgm]2[ASR]1
_chemical_formula_sum              "Co3 H72 C54 N12"
_cell_length_a       12.9876
_cell_length_b       12.9876
_cell_length_c       12.9876
_cell_angle_alpha    88.6217
_cell_angle_beta     88.6217
_cell_angle_gamma    88.6217

_symmetry_space_group_name_H-M    "P 1"
_symmetry_Int_Tables_number       1

loop_
  _symmetry_equiv_pos_as_xyz
  'x, y, z'

loop_
  _atom_site_type_symbol
  _atom_site_label
  _atom_site_symmetry_multiplicity
  _atom_site_fract_x
  _atom_site_fract_y
  _atom_site_fract_z
  _atom_site_occupancy
  _atom_site_charge
Co  Co1       1.0  0.50000  0.03736  0.96264  1.0000 0.002485087
Co  Co2       1.0  0.03736  0.96264  0.50000  1.0000 0.0065335746
Co  Co3       1.0  0.96264  0.50000  0.03736  1.0000 0.0065335746
H   H1        1.0  0.42110  0.14490  0.75080  1.0000 0.0808407006
H   H2        1.0  0.42110  0.35330  0.82140  1.0000 0.1088368421
H   H3        1.0  0.32400  0.30190  0.77100  1.0000 0.0989350242
H   H4        1.0  0.41680  0.28650  0.61260  1.0000 0.0908973564
H   H5        1.0  0.41250  0.40470  0.64600  1.0000 0.0908973564
H   H6        1.0  0.27430  0.11900  0.83320  1.0000 0.1088368421
H   H7        1.0  0.27580  0.08290  0.95150  1.0000 0.1088368421
H   H8        1.0  0.02370  0.36700  0.85140  1.0000 0.0908973564
H   H9        1.0  0.13540  0.23660  0.80050  1.0000 0.1292767239
H   H10       1.0  0.28010  0.26090  0.07070  1.0000 0.1240892274
H   H11       1.0  0.16350  0.39120  0.11430  1.0000 0.0908973564
H   H12       1.0  0.41450  0.20740  0.95560  1.0000 0.2265184907
H   H13       1.0  0.14490  0.75080  0.42110  1.0000 0.0808407006
H   H14       1.0  0.35330  0.82140  0.42110  1.0000 0.1088368421
H   H15       1.0  0.30190  0.77100  0.32400  1.0000 0.0989350242
H   H16       1.0  0.28650  0.61260  0.41680  1.0000 0.0908973564
H   H17       1.0  0.40470  0.64600  0.41250  1.0000 0.0908973564
H   H18       1.0  0.11900  0.83320  0.27430  1.0000 0.1088368421
H   H19       1.0  0.08290  0.95150  0.27580  1.0000 0.1088368421
H   H20       1.0  0.36700  0.85140  0.02370  1.0000 0.0908973564
H   H21       1.0  0.23660  0.80050  0.13540  1.0000 0.1292767239
H   H22       1.0  0.26090  0.07070  0.28010  1.0000 0.1240892274
H   H23       1.0  0.39120  0.11430  0.16350  1.0000 0.0908973564
H   H24       1.0  0.20740  0.95560  0.41450  1.0000 0.2265184907
H   H25       1.0  0.75080  0.42110  0.14490  1.0000 0.0808407006
H   H26       1.0  0.82140  0.42110  0.35330  1.0000 0.1088368421
H   H27       1.0  0.77100  0.32400  0.30190  1.0000 0.0989350242
H   H28       1.0  0.61260  0.41680  0.28650  1.0000 0.0908973564
H   H29       1.0  0.64600  0.41250  0.40470  1.0000 0.0908973564
H   H30       1.0  0.83320  0.27430  0.11900  1.0000 0.1088368421
H   H31       1.0  0.95150  0.27580  0.08290  1.0000 0.1088368421
H   H32       1.0  0.85140  0.02370  0.36700  1.0000 0.0908973564
H   H33       1.0  0.80050  0.13540  0.23660  1.0000 0.1292767239
H   H34       1.0  0.07070  0.28010  0.26090  1.0000 0.1240892274
H   H35       1.0  0.11430  0.16350  0.39120  1.0000 0.0908973564
H   H36       1.0  0.95560  0.41450  0.20740  1.0000 0.2265184907
H   H37       1.0  0.57890  0.24920  0.85510  1.0000 0.0808407006
H   H38       1.0  0.57890  0.17860  0.64670  1.0000 0.1088368421
H   H39       1.0  0.67600  0.22900  0.69810  1.0000 0.0989350242
H   H40       1.0  0.58320  0.38740  0.71350  1.0000 0.0908973564
H   H41       1.0  0.58750  0.35400  0.59530  1.0000 0.0908973564
H   H42       1.0  0.72570  0.16680  0.88100  1.0000 0.1088368421
H   H43       1.0  0.72420  0.04850  0.91710  1.0000 0.1088368421
H   H44       1.0  0.97630  0.14860  0.63300  1.0000 0.0908973564
H   H45       1.0  0.86460  0.19950  0.76340  1.0000 0.1292767239
H   H46       1.0  0.71990  0.92930  0.73910  1.0000 0.1240892274
H   H47       1.0  0.83650  0.88570  0.60880  1.0000 0.0908973564
H   H48       1.0  0.58550  0.04440  0.79260  1.0000 0.2265184907
H   H49       1.0  0.85510  0.57890  0.24920  1.0000 0.0808407006
H   H50       1.0  0.64670  0.57890  0.17860  1.0000 0.1088368421
H   H51       1.0  0.69810  0.67600  0.22900  1.0000 0.0989350242
H   H52       1.0  0.71350  0.58320  0.38740  1.0000 0.0908973564
H   H53       1.0  0.59530  0.58750  0.35400  1.0000 0.0908973564
H   H54       1.0  0.88100  0.72570  0.16680  1.0000 0.1088368421
H   H55       1.0  0.91710  0.72420  0.04850  1.0000 0.1088368421
H   H56       1.0  0.63300  0.97630  0.14860  1.0000 0.0908973564
H   H57       1.0  0.76340  0.86460  0.19950  1.0000 0.1292767239
H   H58       1.0  0.73910  0.71990  0.92930  1.0000 0.1240892274
H   H59       1.0  0.60880  0.83650  0.88570  1.0000 0.0908973564
H   H60       1.0  0.79260  0.58550  0.04440  1.0000 0.2265184907
H   H61       1.0  0.24920  0.85510  0.57890  1.0000 0.0808407006
H   H62       1.0  0.17860  0.64670  0.57890  1.0000 0.1088368421
H   H63       1.0  0.22900  0.69810  0.67600  1.0000 0.0989350242
H   H64       1.0  0.38740  0.71350  0.58320  1.0000 0.0908973564
H   H65       1.0  0.35400  0.59530  0.58750  1.0000 0.0908973564
H   H66       1.0  0.16680  0.88100  0.72570  1.0000 0.1088368421
H   H67       1.0  0.04850  0.91710  0.72420  1.0000 0.1088368421
H   H68       1.0  0.14860  0.63300  0.97630  1.0000 0.0908973564
H   H69       1.0  0.19950  0.76340  0.86460  1.0000 0.1292767239
H   H70       1.0  0.92930  0.73910  0.71990  1.0000 0.1240892274
H   H71       1.0  0.88570  0.60880  0.83650  1.0000 0.0908973564
H   H72       1.0  0.04440  0.79260  0.58550  1.0000 0.2265184907
C   C1        1.0  0.44170  0.19540  0.80300  1.0000 0.0477673929
C   C2        1.0  0.40030  0.30240  0.77070  1.0000 -0.2499718033
C   C3        1.0  0.43990  0.33500  0.66430  1.0000 -0.1767428331
C   C4        1.0  0.29110  0.14090  0.90310  1.0000 -0.1699546414
C   C5        1.0  0.07660  0.34500  0.89670  1.0000 0.0361681134
C   C6        1.0  0.14280  0.26680  0.86580  1.0000 -0.2324144288
C   C7        1.0  0.22080  0.23230  0.93090  1.0000 0.1292767239
C   C8        1.0  0.22760  0.28100  0.02420  1.0000 -0.2324144288
C   C9        1.0  0.15760  0.35940  0.04970  1.0000 0.0477673929
C   C10       1.0  0.19540  0.80300  0.44170  1.0000 0.0477673929
C   C11       1.0  0.30240  0.77070  0.40030  1.0000 -0.2499718033
C   C12       1.0  0.33500  0.66430  0.43990  1.0000 -0.1767428331
C   C13       1.0  0.14090  0.90310  0.29110  1.0000 -0.1699546414
C   C14       1.0  0.34500  0.89670  0.07660  1.0000 0.0361681134
C   C15       1.0  0.26680  0.86580  0.14280  1.0000 -0.2324144288
C   C16       1.0  0.23230  0.93090  0.22080  1.0000 0.1292767239
C   C17       1.0  0.28100  0.02420  0.22760  1.0000 -0.2324144288
C   C18       1.0  0.35940  0.04970  0.15760  1.0000 0.0553420764
C   C19       1.0  0.80300  0.44170  0.19540  1.0000 0.0477673929
C   C20       1.0  0.77070  0.40030  0.30240  1.0000 -0.2499718033
C   C21       1.0  0.66430  0.43990  0.33500  1.0000 -0.1767428331
C   C22       1.0  0.90310  0.29110  0.14090  1.0000 -0.1699546414
C   C23       1.0  0.89670  0.07660  0.34500  1.0000 0.0361681134
C   C24       1.0  0.86580  0.14280  0.26680  1.0000 -0.2324144288
C   C25       1.0  0.93090  0.22080  0.23230  1.0000 0.1292767239
C   C26       1.0  0.02420  0.22760  0.28100  1.0000 -0.2324144288
C   C27       1.0  0.04970  0.15760  0.35940  1.0000 0.0553420764
C   C28       1.0  0.55830  0.19700  0.80460  1.0000 0.0477673929
C   C29       1.0  0.59970  0.22930  0.69760  1.0000 -0.2499718033
C   C30       1.0  0.56010  0.33570  0.66500  1.0000 -0.1767428331
C   C31       1.0  0.70890  0.09690  0.85910  1.0000 -0.1699546414
C   C32       1.0  0.92340  0.10330  0.65500  1.0000 0.0361681134
C   C33       1.0  0.85720  0.13420  0.73320  1.0000 -0.2324144288
C   C34       1.0  0.77920  0.06910  0.76770  1.0000 0.1292767239
C   C35       1.0  0.77240  0.97580  0.71900  1.0000 -0.2324144288
C   C36       1.0  0.84240  0.95030  0.64060  1.0000 0.0553420764
C   C37       1.0  0.80460  0.55830  0.19700  1.0000 0.0477673929
C   C38       1.0  0.69760  0.59970  0.22930  1.0000 -0.2499718033
C   C39       1.0  0.66500  0.56010  0.33570  1.0000 -0.1767428331
C   C40       1.0  0.85910  0.70890  0.09690  1.0000 -0.1699546414
C   C41       1.0  0.65500  0.92340  0.10330  1.0000 0.0361681134
C   C42       1.0  0.73320  0.85720  0.13420  1.0000 -0.2324144288
C   C43       1.0  0.76770  0.77920  0.06910  1.0000 0.1292767239
C   C44       1.0  0.71900  0.77240  0.97580  1.0000 -0.2324144288
C   C45       1.0  0.64060  0.84240  0.95030  1.0000 0.0553420764
C   C46       1.0  0.19700  0.80460  0.55830  1.0000 0.0477673929
C   C47       1.0  0.22930  0.69760  0.59970  1.0000 -0.2499718033
C   C48       1.0  0.33570  0.66500  0.56010  1.0000 -0.1767428331
C   C49       1.0  0.09690  0.85910  0.70890  1.0000 -0.1699546414
C   C50       1.0  0.10330  0.65500  0.92340  1.0000 0.0361681134
C   C51       1.0  0.13420  0.73320  0.85720  1.0000 -0.2324144288
C   C52       1.0  0.06910  0.76770  0.77920  1.0000 0.1292767239
C   C53       1.0  0.97580  0.71900  0.77240  1.0000 -0.2324144288
C   C54       1.0  0.95030  0.64060  0.84240  1.0000 0.0553420764
N   N1        1.0  0.40237  0.16047  0.90537  1.0000 -0.3244622884
N   N2        1.0  0.08250  0.39240  0.98800  1.0000 -0.2362219232
N   N3        1.0  0.16047  0.90537  0.40237  1.0000 -0.3244622884
N   N4        1.0  0.39240  0.98800  0.08250  1.0000 -0.2324144288
N   N5        1.0  0.90537  0.40237  0.16047  1.0000 -0.3244622884
N   N6        1.0  0.98800  0.08250  0.39240  1.0000 -0.2324144288
N   N7        1.0  0.59763  0.09463  0.83953  1.0000 -0.3244622884
N   N8        1.0  0.91750  0.01200  0.60760  1.0000 -0.2324144288
N   N9        1.0  0.83953  0.59763  0.09463  1.0000 -0.3244622884
N   N10       1.0  0.60760  0.91750  0.01200  1.0000 -0.2324144288
N   N11       1.0  0.09463  0.83953  0.59763  1.0000 -0.3244622884
N   N12       1.0  0.01200  0.60760  0.91750  1.0000 -0.2362219232
