# DDEC6 charges by PACMAN v1.1 (https://github.com/mtap-research/PACMAN-charge/)
data_2018[ErCo][nan]3[ASR]1
_chemical_formula_sum              "Er4 Co2 H16 C48 N16 O32"
_cell_length_a       6.1574
_cell_length_b       22.5934
_cell_length_c       13.255
_cell_angle_alpha    90
_cell_angle_beta     115.746
_cell_angle_gamma    90

_symmetry_space_group_name_H-M    "P 1"
_symmetry_Int_Tables_number       1

loop_
  _symmetry_equiv_pos_as_xyz
  'x, y, z'

loop_
  _atom_site_type_symbol
  _atom_site_label
  _atom_site_symmetry_multiplicity
  _atom_site_fract_x
  _atom_site_fract_y
  _atom_site_fract_z
  _atom_site_occupancy
  _atom_site_charge
Er  Er1       1.0  0.93910  0.66689  0.88893  1.0000 1.8899432355
Er  Er2       1.0  0.06090  0.16689  0.61107  1.0000 1.8899432355
Er  Er3       1.0  0.06090  0.33311  0.11107  1.0000 1.8899432355
Er  Er4       1.0  0.93910  0.83311  0.38893  1.0000 1.8899432355
Co  Co1       1.0  0.00000  0.50000  0.50000  1.0000 0.8415123159
Co  Co2       1.0  0.00000  0.00000  0.00000  1.0000 0.8415123159
H   H1        1.0  0.29430  0.83910  0.21960  1.0000 0.1317554051
H   H2        1.0  0.00100  0.79080  0.07410  1.0000 0.1215128535
H   H3        1.0  0.05680  0.60840  0.35500  1.0000 0.1317554051
H   H4        1.0  0.34800  0.67320  0.37430  1.0000 0.1215128535
H   H5        1.0  0.70570  0.33910  0.28040  1.0000 0.1317554051
H   H6        1.0  0.99900  0.29080  0.42590  1.0000 0.1215128535
H   H7        1.0  0.94320  0.10840  0.14500  1.0000 0.1317554051
H   H8        1.0  0.65200  0.17320  0.12570  1.0000 0.1215128535
H   H9        1.0  0.70570  0.16090  0.78040  1.0000 0.1317554051
H   H10       1.0  0.99900  0.20920  0.92590  1.0000 0.1215128535
H   H11       1.0  0.94320  0.39160  0.64500  1.0000 0.1317554051
H   H12       1.0  0.65200  0.32680  0.62570  1.0000 0.1215128535
H   H13       1.0  0.29430  0.66090  0.71960  1.0000 0.1317554051
H   H14       1.0  0.00100  0.70920  0.57410  1.0000 0.1215128535
H   H15       1.0  0.05680  0.89160  0.85500  1.0000 0.1317554051
H   H16       1.0  0.34800  0.82680  0.87430  1.0000 0.1215128535
C   C1        1.0  0.45390  0.72900  0.07010  1.0000 0.0483421605
C   C2        1.0  0.62200  0.74980  0.16890  1.0000 0.0386972376
C   C3        1.0  0.33490  0.80810  0.18490  1.0000 0.0483421605
C   C4        1.0  0.16200  0.78140  0.09550  1.0000 0.0595315778
C   C5        1.0  0.51070  0.69380  0.98670  1.0000 0.6277369195
C   C6        1.0  0.86780  0.72450  0.22850  1.0000 0.5423692399
C   C7        1.0  0.63600  0.59440  0.57700  1.0000 0.0170672303
C   C8        1.0  0.45380  0.55580  0.56660  1.0000 0.0078120418
C   C9        1.0  0.20740  0.60390  0.41510  1.0000 0.0483421605
C   C10       1.0  0.38300  0.64270  0.42620  1.0000 0.0386972376
C   C11       1.0  0.48430  0.50640  0.64460  1.0000 0.5229498678
C   C12       1.0  0.88750  0.58780  0.65980  1.0000 0.5979412133
C   C13       1.0  0.54610  0.22900  0.42990  1.0000 0.0483421605
C   C14       1.0  0.37800  0.24980  0.33110  1.0000 0.0386972376
C   C15       1.0  0.66510  0.30810  0.31510  1.0000 0.0483421605
C   C16       1.0  0.83800  0.28140  0.40450  1.0000 0.0595315778
C   C17       1.0  0.48930  0.19380  0.51330  1.0000 0.6277369195
C   C18       1.0  0.13220  0.22450  0.27150  1.0000 0.5423692399
C   C19       1.0  0.36400  0.09440  0.92300  1.0000 0.0170672303
C   C20       1.0  0.54620  0.05580  0.93340  1.0000 0.0078120418
C   C21       1.0  0.79260  0.10390  0.08490  1.0000 0.0483421605
C   C22       1.0  0.61700  0.14270  0.07380  1.0000 0.0386972376
C   C23       1.0  0.51570  0.00640  0.85540  1.0000 0.5229498678
C   C24       1.0  0.11250  0.08780  0.84020  1.0000 0.5979412133
C   C25       1.0  0.54610  0.27100  0.92990  1.0000 0.0483421605
C   C26       1.0  0.37800  0.25020  0.83110  1.0000 0.0386972376
C   C27       1.0  0.66510  0.19190  0.81510  1.0000 0.0483421605
C   C28       1.0  0.83800  0.21860  0.90450  1.0000 0.0595315778
C   C29       1.0  0.48930  0.30620  0.01330  1.0000 0.6277369195
C   C30       1.0  0.13220  0.27550  0.77150  1.0000 0.5423692399
C   C31       1.0  0.36400  0.40560  0.42300  1.0000 0.0170672303
C   C32       1.0  0.54620  0.44420  0.43340  1.0000 0.0078120418
C   C33       1.0  0.79260  0.39610  0.58490  1.0000 0.0483421605
C   C34       1.0  0.61700  0.35730  0.57380  1.0000 0.0386972376
C   C35       1.0  0.51570  0.49360  0.35540  1.0000 0.5229498678
C   C36       1.0  0.11250  0.41220  0.34020  1.0000 0.5979412133
C   C37       1.0  0.45390  0.77100  0.57010  1.0000 0.0483421605
C   C38       1.0  0.62200  0.75020  0.66890  1.0000 0.0386972376
C   C39       1.0  0.33490  0.69190  0.68490  1.0000 0.0483421605
C   C40       1.0  0.16200  0.71860  0.59550  1.0000 0.0595315778
C   C41       1.0  0.51070  0.80620  0.48670  1.0000 0.6277369195
C   C42       1.0  0.86780  0.77550  0.72850  1.0000 0.5423692399
C   C43       1.0  0.63600  0.90560  0.07700  1.0000 0.0170672303
C   C44       1.0  0.45380  0.94420  0.06660  1.0000 0.0078120418
C   C45       1.0  0.20740  0.89610  0.91510  1.0000 0.0483421605
C   C46       1.0  0.38300  0.85730  0.92620  1.0000 0.0386972376
C   C47       1.0  0.48430  0.99360  0.14460  1.0000 0.5229498678
C   C48       1.0  0.88750  0.91220  0.15980  1.0000 0.5979412133
N   N1        1.0  0.22060  0.74170  0.03790  1.0000 -0.3018072313
N   N2        1.0  0.56260  0.79080  0.22430  1.0000 -0.3109388417
N   N3        1.0  0.23850  0.56080  0.48400  1.0000 -0.2079673102
N   N4        1.0  0.60070  0.63890  0.50750  1.0000 -0.2079673102
N   N5        1.0  0.77940  0.24170  0.46210  1.0000 -0.3018072313
N   N6        1.0  0.43740  0.29080  0.27570  1.0000 -0.3109388417
N   N7        1.0  0.76150  0.06080  0.01600  1.0000 -0.2079673102
N   N8        1.0  0.39930  0.13890  0.99250  1.0000 -0.2079673102
N   N9        1.0  0.77940  0.25830  0.96210  1.0000 -0.3018072313
N   N10       1.0  0.43740  0.20920  0.77570  1.0000 -0.3109388417
N   N11       1.0  0.76150  0.43920  0.51600  1.0000 -0.2079673102
N   N12       1.0  0.39930  0.36110  0.49250  1.0000 -0.2079673102
N   N13       1.0  0.22060  0.75830  0.53790  1.0000 -0.3018072313
N   N14       1.0  0.56260  0.70920  0.72430  1.0000 -0.3109388417
N   N15       1.0  0.23850  0.93920  0.98400  1.0000 -0.2079673102
N   N16       1.0  0.60070  0.86110  0.00750  1.0000 -0.2079673102
O   O1        1.0  0.35160  0.65903  0.93130  1.0000 -0.5840484565
O   O2        1.0  0.70010  0.70417  0.97430  1.0000 -0.6696960396
O   O3        1.0  0.01240  0.75480  0.30440  1.0000 -0.6246707505
O   O4        1.0  0.90710  0.67580  0.20330  1.0000 -0.4479421443
O   O5        1.0  0.95450  0.61830  0.74520  1.0000 -0.6484039492
O   O6        1.0  0.02010  0.55470  0.63650  1.0000 -0.4991784236
O   O7        1.0  0.31550  0.46955  0.61390  1.0000 -0.4991784236
O   O8        1.0  0.66200  0.50460  0.73020  1.0000 -0.4132660767
O   O9        1.0  0.64840  0.15903  0.56870  1.0000 -0.5840484565
O   O10       1.0  0.29990  0.20417  0.52570  1.0000 -0.6696960396
O   O11       1.0  0.98760  0.25480  0.19560  1.0000 -0.6246707505
O   O12       1.0  0.09290  0.17580  0.29670  1.0000 -0.4479421443
O   O13       1.0  0.04550  0.11830  0.75480  1.0000 -0.6484039492
O   O14       1.0  0.97990  0.05470  0.86350  1.0000 -0.4991784236
O   O15       1.0  0.68450  0.96955  0.88610  1.0000 -0.4991784236
O   O16       1.0  0.33800  0.00460  0.76980  1.0000 -0.4132660767
O   O17       1.0  0.64840  0.34097  0.06870  1.0000 -0.5840484565
O   O18       1.0  0.29990  0.29583  0.02570  1.0000 -0.6696960396
O   O19       1.0  0.98760  0.24520  0.69560  1.0000 -0.6246707505
O   O20       1.0  0.09290  0.32420  0.79670  1.0000 -0.4479421443
O   O21       1.0  0.04550  0.38170  0.25480  1.0000 -0.6484039492
O   O22       1.0  0.97990  0.44530  0.36350  1.0000 -0.4991784236
O   O23       1.0  0.68450  0.53045  0.38610  1.0000 -0.4991784236
O   O24       1.0  0.33800  0.49540  0.26980  1.0000 -0.4132660767
O   O25       1.0  0.35160  0.84097  0.43130  1.0000 -0.5840484565
O   O26       1.0  0.70010  0.79583  0.47430  1.0000 -0.6696960396
O   O27       1.0  0.01240  0.74520  0.80440  1.0000 -0.6246707505
O   O28       1.0  0.90710  0.82420  0.70330  1.0000 -0.4479421443
O   O29       1.0  0.95450  0.88170  0.24520  1.0000 -0.6484039492
O   O30       1.0  0.02010  0.94530  0.13650  1.0000 -0.4991784236
O   O31       1.0  0.31550  0.03045  0.11390  1.0000 -0.4991784236
O   O32       1.0  0.66200  0.99540  0.23020  1.0000 -0.4132660767
