# DDEC6 charges by PACMAN v1.1 (https://github.com/mtap-research/PACMAN-charge/)
data_2018[U][hcb]2[ASR]6
_chemical_formula_sum              "U4 H48 C84 O24"
_cell_length_a       24.1181
_cell_length_b       24.1181
_cell_length_c       14.3788
_cell_angle_alpha    85.7951
_cell_angle_beta     94.2049
_cell_angle_gamma    25.2387

_symmetry_space_group_name_H-M    "P 1"
_symmetry_Int_Tables_number       1

loop_
  _symmetry_equiv_pos_as_xyz
  'x, y, z'

loop_
  _atom_site_type_symbol
  _atom_site_label
  _atom_site_symmetry_multiplicity
  _atom_site_fract_x
  _atom_site_fract_y
  _atom_site_fract_z
  _atom_site_occupancy
  _atom_site_charge
U   U1        1.0  0.01208  0.01208  0.25000  1.0000 2.0342919356
U   U2        1.0  0.67759  0.67759  0.25000  1.0000 2.1625668532
U   U3        1.0  0.98792  0.98792  0.75000  1.0000 2.0388531215
U   U4        1.0  0.32241  0.32241  0.75000  1.0000 2.1625668532
H   H1        1.0  0.79550  0.85130  0.10980  1.0000 0.1099231087
H   H2        1.0  0.84120  0.98860  0.09950  1.0000 0.1188737599
H   H3        1.0  0.28760  0.90600  0.46210  1.0000 0.1188737599
H   H4        1.0  0.74410  0.80490  0.11130  1.0000 0.1269169352
H   H5        1.0  0.36220  0.73240  0.75780  1.0000 0.1099231087
H   H6        1.0  0.80700  0.92440  0.10360  1.0000 0.1031790054
H   H7        1.0  0.45270  0.68490  0.88690  1.0000 0.1099231087
H   H8        1.0  0.56330  0.77110  0.88450  1.0000 0.1188737599
H   H9        1.0  0.40530  0.83730  0.60960  1.0000 0.1031790054
H   H10       1.0  0.53870  0.64650  0.03350  1.0000 0.1269169352
H   H11       1.0  0.48810  0.79650  0.74130  1.0000 0.1031790054
H   H12       1.0  0.25470  0.79270  0.60890  1.0000 0.1188737599
H   H13       1.0  0.85130  0.79550  0.39020  1.0000 0.1099231087
H   H14       1.0  0.98860  0.84120  0.40050  1.0000 0.1188737599
H   H15       1.0  0.90600  0.28760  0.03790  1.0000 0.1188737599
H   H16       1.0  0.80490  0.74410  0.38870  1.0000 0.1269169352
H   H17       1.0  0.73240  0.36220  0.74220  1.0000 0.1099231087
H   H18       1.0  0.92440  0.80700  0.39640  1.0000 0.1031790054
H   H19       1.0  0.68490  0.45270  0.61310  1.0000 0.1099231087
H   H20       1.0  0.77110  0.56330  0.61550  1.0000 0.1188737599
H   H21       1.0  0.83730  0.40530  0.89040  1.0000 0.1031790054
H   H22       1.0  0.64650  0.53870  0.46650  1.0000 0.1269169352
H   H23       1.0  0.79650  0.48810  0.75870  1.0000 0.1031790054
H   H24       1.0  0.79270  0.25470  0.89110  1.0000 0.1188737599
H   H25       1.0  0.20450  0.14870  0.89020  1.0000 0.1099231087
H   H26       1.0  0.15880  0.01140  0.90050  1.0000 0.1099231087
H   H27       1.0  0.71240  0.09400  0.53790  1.0000 0.1188737599
H   H28       1.0  0.25590  0.19510  0.88870  1.0000 0.1269169352
H   H29       1.0  0.63780  0.26760  0.24220  1.0000 0.1099231087
H   H30       1.0  0.19300  0.07560  0.89640  1.0000 0.1031790054
H   H31       1.0  0.54730  0.31510  0.11310  1.0000 0.1099231087
H   H32       1.0  0.43670  0.22890  0.11550  1.0000 0.1188737599
H   H33       1.0  0.59470  0.16270  0.39040  1.0000 0.1031790054
H   H34       1.0  0.46130  0.35350  0.96650  1.0000 0.1269169352
H   H35       1.0  0.51190  0.20350  0.25870  1.0000 0.1031790054
H   H36       1.0  0.74530  0.20730  0.39110  1.0000 0.1188737599
H   H37       1.0  0.14870  0.20450  0.60980  1.0000 0.1099231087
H   H38       1.0  0.01140  0.15880  0.59950  1.0000 0.1099231087
H   H39       1.0  0.09400  0.71240  0.96210  1.0000 0.1188737599
H   H40       1.0  0.19510  0.25590  0.61130  1.0000 0.1269169352
H   H41       1.0  0.26760  0.63780  0.25780  1.0000 0.1099231087
H   H42       1.0  0.07560  0.19300  0.60360  1.0000 0.1031790054
H   H43       1.0  0.31510  0.54730  0.38690  1.0000 0.1099231087
H   H44       1.0  0.22890  0.43670  0.38450  1.0000 0.1188737599
H   H45       1.0  0.16270  0.59470  0.10960  1.0000 0.1031790054
H   H46       1.0  0.35350  0.46130  0.53350  1.0000 0.1269169352
H   H47       1.0  0.20350  0.51190  0.24130  1.0000 0.1031790054
H   H48       1.0  0.20730  0.74530  0.10890  1.0000 0.1188737599
C   C1        1.0  0.79780  0.82980  0.17020  1.0000 -0.1712884628
C   C2        1.0  0.86280  0.94720  0.16050  1.0000 -0.1023071729
C   C3        1.0  0.30240  0.87060  0.52240  1.0000 -0.1104911836
C   C4        1.0  0.76720  0.80120  0.17180  1.0000 -0.1104911836
C   C5        1.0  0.45620  0.74840  0.79400  1.0000 0.0688553852
C   C6        1.0  0.39520  0.77820  0.70180  1.0000 0.0642883065
C   C7        1.0  0.25320  0.86160  0.51910  1.0000 -0.0508494388
C   C8        1.0  0.60680  0.68980  0.06730  1.0000 0.5297527215
C   C9        1.0  0.34870  0.76710  0.69810  1.0000 -0.1604173969
C   C10       1.0  0.55910  0.70390  0.97540  1.0000 -0.0318376473
C   C11       1.0  0.83950  0.91190  0.16440  1.0000 -0.1604173969
C   C12       1.0  0.47600  0.70200  0.88570  1.0000 -0.1526378213
C   C13       1.0  0.54220  0.75180  0.88510  1.0000 -0.1229706262
C   C14       1.0  0.37250  0.83010  0.61060  1.0000 -0.1526378213
C   C15       1.0  0.52650  0.67950  0.97350  1.0000 -0.1104911836
C   C16       1.0  0.17700  0.90680  0.42780  1.0000 0.5297527215
C   C17       1.0  0.49540  0.76860  0.80110  1.0000 -0.1526378213
C   C18       1.0  0.28190  0.80570  0.60830  1.0000 -0.1104911836
C   C19       1.0  0.82980  0.79780  0.32980  1.0000 -0.1712884628
C   C20       1.0  0.94720  0.86280  0.33950  1.0000 -0.1023071729
C   C21       1.0  0.87060  0.30240  0.97760  1.0000 -0.1104911836
C   C22       1.0  0.80120  0.76720  0.32820  1.0000 -0.1104911836
C   C23       1.0  0.74840  0.45620  0.70600  1.0000 0.0688553852
C   C24       1.0  0.77820  0.39520  0.79820  1.0000 0.0642883065
C   C25       1.0  0.86160  0.25320  0.98090  1.0000 -0.0508494388
C   C26       1.0  0.68980  0.60680  0.43270  1.0000 0.5297527215
C   C27       1.0  0.76710  0.34870  0.80190  1.0000 -0.1604173969
C   C28       1.0  0.70390  0.55910  0.52460  1.0000 -0.0318376473
C   C29       1.0  0.91190  0.83950  0.33560  1.0000 -0.1604173969
C   C30       1.0  0.70200  0.47600  0.61430  1.0000 -0.1604173969
C   C31       1.0  0.75180  0.54220  0.61490  1.0000 -0.1229706262
C   C32       1.0  0.83010  0.37250  0.88940  1.0000 -0.1526378213
C   C33       1.0  0.67950  0.52650  0.52650  1.0000 -0.1104911836
C   C34       1.0  0.90680  0.17700  0.07220  1.0000 0.5297527215
C   C35       1.0  0.76860  0.49540  0.69890  1.0000 -0.1526378213
C   C36       1.0  0.80570  0.28190  0.89170  1.0000 -0.1104911836
C   C37       1.0  0.82860  0.82860  0.25000  1.0000 0.0510224714
C   C38       1.0  0.91910  0.91910  0.25000  1.0000 -0.0508494388
C   C39       1.0  0.95060  0.95060  0.25000  1.0000 0.5245730407
C   C40       1.0  0.76930  0.76930  0.25000  1.0000 -0.0318376473
C   C41       1.0  0.86000  0.86000  0.25000  1.0000 0.0688553852
C   C42       1.0  0.73790  0.73790  0.25000  1.0000 0.5482353098
C   C43       1.0  0.20220  0.17020  0.82980  1.0000 -0.1712884628
C   C44       1.0  0.13720  0.05280  0.83950  1.0000 -0.1023071729
C   C45       1.0  0.69760  0.12940  0.47760  1.0000 -0.1104911836
C   C46       1.0  0.23280  0.19880  0.82820  1.0000 -0.1104911836
C   C47       1.0  0.54380  0.25160  0.20600  1.0000 0.0688553852
C   C48       1.0  0.60480  0.22180  0.29820  1.0000 0.0642883065
C   C49       1.0  0.74680  0.13840  0.48090  1.0000 -0.0508494388
C   C50       1.0  0.39320  0.31020  0.93270  1.0000 0.5297527215
C   C51       1.0  0.65130  0.23290  0.30190  1.0000 -0.1604173969
C   C52       1.0  0.44090  0.29610  0.02460  1.0000 -0.0318376473
C   C53       1.0  0.16050  0.08810  0.83560  1.0000 -0.1604173969
C   C54       1.0  0.52400  0.29800  0.11430  1.0000 -0.1526378213
C   C55       1.0  0.45780  0.24820  0.11490  1.0000 -0.1229706262
C   C56       1.0  0.62750  0.16990  0.38940  1.0000 -0.1526378213
C   C57       1.0  0.47350  0.32050  0.02650  1.0000 -0.1104911836
C   C58       1.0  0.82300  0.09320  0.57220  1.0000 0.5297527215
C   C59       1.0  0.50460  0.23140  0.19890  1.0000 -0.1526378213
C   C60       1.0  0.71810  0.19430  0.39170  1.0000 -0.1104911836
C   C61       1.0  0.17020  0.20220  0.67020  1.0000 -0.1712884628
C   C62       1.0  0.05280  0.13720  0.66050  1.0000 -0.1023071729
C   C63       1.0  0.12940  0.69760  0.02240  1.0000 -0.1104911836
C   C64       1.0  0.19880  0.23280  0.67180  1.0000 -0.1104911836
C   C65       1.0  0.25160  0.54380  0.29400  1.0000 0.0688553852
C   C66       1.0  0.22180  0.60480  0.20180  1.0000 0.0642883065
C   C67       1.0  0.13840  0.74680  0.01910  1.0000 -0.0508494388
C   C68       1.0  0.31020  0.39320  0.56730  1.0000 0.5297527215
C   C69       1.0  0.23290  0.65130  0.19810  1.0000 -0.1604173969
C   C70       1.0  0.29610  0.44090  0.47540  1.0000 -0.0318376473
C   C71       1.0  0.08810  0.16050  0.66440  1.0000 -0.1604173969
C   C72       1.0  0.29800  0.52400  0.38570  1.0000 -0.1526378213
C   C73       1.0  0.24820  0.45780  0.38510  1.0000 -0.1229706262
C   C74       1.0  0.16990  0.62750  0.11060  1.0000 -0.1526378213
C   C75       1.0  0.32050  0.47350  0.47350  1.0000 -0.1104911836
C   C76       1.0  0.09320  0.82300  0.92780  1.0000 0.5297527215
C   C77       1.0  0.23140  0.50460  0.30110  1.0000 -0.1526378213
C   C78       1.0  0.19430  0.71810  0.10830  1.0000 -0.1104911836
C   C79       1.0  0.17140  0.17140  0.75000  1.0000 0.0510224714
C   C80       1.0  0.08090  0.08090  0.75000  1.0000 -0.0508494388
C   C81       1.0  0.04940  0.04940  0.75000  1.0000 0.5245730407
C   C82       1.0  0.23070  0.23070  0.75000  1.0000 -0.0318376473
C   C83       1.0  0.14000  0.14000  0.75000  1.0000 0.0688553852
C   C84       1.0  0.26210  0.26210  0.75000  1.0000 0.5482353098
O   O1        1.0  0.13482  0.97682  0.34850  1.0000 -0.5825852625
O   O2        1.0  0.14537  0.88537  0.42650  1.0000 -0.5706948214
O   O3        1.0  0.90927  0.02207  0.17240  1.0000 -0.5706948214
O   O4        1.0  0.61079  0.65759  0.15350  1.0000 -0.6276692026
O   O5        1.0  0.63359  0.71539  0.07490  1.0000 -0.5480472916
O   O6        1.0  0.70228  0.74708  0.16940  1.0000 -0.6097756796
O   O7        1.0  0.97682  0.13482  0.15150  1.0000 -0.5825852625
O   O8        1.0  0.88537  0.14537  0.07350  1.0000 -0.5706948214
O   O9        1.0  0.02207  0.90927  0.32760  1.0000 -0.5706948214
O   O10       1.0  0.65759  0.61079  0.34650  1.0000 -0.6276692026
O   O11       1.0  0.71539  0.63359  0.42510  1.0000 -0.5480472916
O   O12       1.0  0.74708  0.70228  0.33060  1.0000 -0.6097756796
O   O13       1.0  0.86518  0.02318  0.65150  1.0000 -0.5825852625
O   O14       1.0  0.85463  0.11463  0.57350  1.0000 -0.5706948214
O   O15       1.0  0.09073  0.97793  0.82760  1.0000 -0.5706948214
O   O16       1.0  0.38921  0.34241  0.84650  1.0000 -0.6276692026
O   O17       1.0  0.36641  0.28461  0.92510  1.0000 -0.5480472916
O   O18       1.0  0.29772  0.25292  0.83060  1.0000 -0.6097756796
O   O19       1.0  0.02318  0.86518  0.84850  1.0000 -0.5825852625
O   O20       1.0  0.11463  0.85463  0.92650  1.0000 -0.5706948214
O   O21       1.0  0.97793  0.09073  0.67240  1.0000 -0.5706948214
O   O22       1.0  0.34241  0.38921  0.65350  1.0000 -0.6276692026
O   O23       1.0  0.28461  0.36641  0.57490  1.0000 -0.5480472916
O   O24       1.0  0.25292  0.29772  0.66940  1.0000 -0.6097756796
