# DDEC6 charges by PACMAN v1.1 (https://github.com/mtap-research/PACMAN-charge/)
data_2019[Cd][nan]2[ASR]3
_chemical_formula_sum              "Cd4 H64 C98 N8 O16"
_cell_length_a       12.2484
_cell_length_b       14.1885
_cell_length_c       20.3349
_cell_angle_alpha    85.831
_cell_angle_beta     88.351
_cell_angle_gamma    68.261

_symmetry_space_group_name_H-M    "P 1"
_symmetry_Int_Tables_number       1

loop_
  _symmetry_equiv_pos_as_xyz
  'x, y, z'

loop_
  _atom_site_type_symbol
  _atom_site_label
  _atom_site_symmetry_multiplicity
  _atom_site_fract_x
  _atom_site_fract_y
  _atom_site_fract_z
  _atom_site_occupancy
  _atom_site_charge
Cd  Cd1       1.0  0.89622  0.18997  0.15124  1.0000 0.8547484357
Cd  Cd2       1.0  0.86168  0.18676  0.32142  1.0000 0.9021348435
Cd  Cd3       1.0  0.10378  0.81003  0.84876  1.0000 0.8547484357
Cd  Cd4       1.0  0.13832  0.81324  0.67858  1.0000 0.9021348435
H   H1        1.0  0.07970  0.58980  0.20330  1.0000 0.111979891
H   H2        1.0  0.99690  0.47790  0.16900  1.0000 0.111979891
H   H3        1.0  0.10960  0.29960  0.33700  1.0000 0.111979891
H   H4        1.0  0.20170  0.40640  0.36800  1.0000 0.1193182785
H   H5        1.0  0.41600  0.42570  0.36350  1.0000 0.1193182785
H   H6        1.0  0.58870  0.31830  0.31840  1.0000 0.1193182785
H   H7        1.0  0.48530  0.45730  0.13770  1.0000 0.1193182785
H   H8        1.0  0.31050  0.56400  0.18280  1.0000 0.111979891
H   H9        1.0  0.33040  0.69630  0.25270  1.0000 0.1193182785
H   H10       1.0  0.25420  0.86740  0.21400  1.0000 0.1193182785
H   H11       1.0  0.92780  0.87910  0.26310  1.0000 0.111979891
H   H12       1.0  0.00290  0.70690  0.29820  1.0000 0.111979891
H   H13       1.0  0.06950  0.57440  0.40610  1.0000 0.111979891
H   H14       1.0  0.06530  0.61900  0.51460  1.0000 0.1193182785
H   H15       1.0  0.37750  0.65340  0.48650  1.0000 0.1193182785
H   H16       1.0  0.38330  0.60640  0.37890  1.0000 0.111979891
H   H17       1.0  0.03630  0.29320  0.05180  1.0000 0.1193182785
H   H18       1.0  0.08820  0.30730  0.93960  1.0000 0.1284717437
H   H19       1.0  0.03390  0.21630  0.86570  1.0000 0.1193182785
H   H20       1.0  0.92110  0.12160  0.90070  1.0000 0.1284717437
H   H21       1.0  0.82270  0.03260  0.93880  1.0000 0.1394369829
H   H22       1.0  0.70680  0.94700  0.98470  1.0000 0.1193182785
H   H23       1.0  0.66210  0.95650  0.09860  1.0000 0.1193182785
H   H24       1.0  0.73750  0.05010  0.16020  1.0000 0.111979891
H   H25       1.0  0.11240  0.13230  0.38780  1.0000 0.111979891
H   H26       1.0  0.25740  0.00580  0.45010  1.0000 0.1284717437
H   H27       1.0  0.22420  0.85820  0.48620  1.0000 0.1193182785
H   H28       1.0  0.05250  0.83830  0.45570  1.0000 0.1284717437
H   H29       1.0  0.89390  0.82870  0.42310  1.0000 0.1284717437
H   H30       1.0  0.71520  0.82790  0.38710  1.0000 0.1193182785
H   H31       1.0  0.58510  0.97270  0.32920  1.0000 0.1284717437
H   H32       1.0  0.63980  0.11420  0.30710  1.0000 0.1193182785
H   H33       1.0  0.92030  0.41020  0.79670  1.0000 0.111979891
H   H34       1.0  0.00310  0.52210  0.83100  1.0000 0.111979891
H   H35       1.0  0.89040  0.70040  0.66300  1.0000 0.111979891
H   H36       1.0  0.79830  0.59360  0.63200  1.0000 0.1193182785
H   H37       1.0  0.58400  0.57430  0.63650  1.0000 0.1193182785
H   H38       1.0  0.41130  0.68170  0.68160  1.0000 0.1193182785
H   H39       1.0  0.51470  0.54270  0.86230  1.0000 0.1193182785
H   H40       1.0  0.68950  0.43600  0.81720  1.0000 0.111979891
H   H41       1.0  0.66960  0.30370  0.74730  1.0000 0.1193182785
H   H42       1.0  0.74580  0.13260  0.78600  1.0000 0.1193182785
H   H43       1.0  0.07220  0.12090  0.73690  1.0000 0.111979891
H   H44       1.0  0.99710  0.29310  0.70180  1.0000 0.111979891
H   H45       1.0  0.93050  0.42560  0.59390  1.0000 0.111979891
H   H46       1.0  0.93470  0.38100  0.48540  1.0000 0.1193182785
H   H47       1.0  0.62250  0.34660  0.51350  1.0000 0.1193182785
H   H48       1.0  0.61670  0.39360  0.62110  1.0000 0.111979891
H   H49       1.0  0.96370  0.70680  0.94820  1.0000 0.1193182785
H   H50       1.0  0.91180  0.69270  0.06040  1.0000 0.1284717437
H   H51       1.0  0.96610  0.78370  0.13430  1.0000 0.1193182785
H   H52       1.0  0.07890  0.87840  0.09930  1.0000 0.1284717437
H   H53       1.0  0.17730  0.96740  0.06120  1.0000 0.1394369829
H   H54       1.0  0.29320  0.05300  0.01530  1.0000 0.1193182785
H   H55       1.0  0.33790  0.04350  0.90140  1.0000 0.1193182785
H   H56       1.0  0.26250  0.94990  0.83980  1.0000 0.111979891
H   H57       1.0  0.88760  0.86770  0.61220  1.0000 0.111979891
H   H58       1.0  0.74260  0.99420  0.54990  1.0000 0.1284717437
H   H59       1.0  0.77580  0.14180  0.51380  1.0000 0.1193182785
H   H60       1.0  0.94750  0.16170  0.54430  1.0000 0.1284717437
H   H61       1.0  0.10610  0.17130  0.57690  1.0000 0.1284717437
H   H62       1.0  0.28480  0.17210  0.61290  1.0000 0.1193182785
H   H63       1.0  0.41490  0.02730  0.67080  1.0000 0.1284717437
H   H64       1.0  0.36020  0.88580  0.69290  1.0000 0.1193182785
C   C1        1.0  0.22450  0.57170  0.30670  1.0000 -0.0188666178
C   C2        1.0  0.14940  0.50900  0.28930  1.0000 0.070461142
C   C3        1.0  0.08760  0.52990  0.23000  1.0000 -0.1692264374
C   C4        1.0  0.03760  0.46360  0.20980  1.0000 -0.0934333276
C   C5        1.0  0.04670  0.37580  0.24920  1.0000 -0.0310164025
C   C6        1.0  0.10560  0.35730  0.30890  1.0000 -0.0831810009
C   C7        1.0  0.15860  0.42200  0.32800  1.0000 -0.1605745084
C   C8        1.0  0.99680  0.30260  0.22670  1.0000 0.5772602934
C   C9        1.0  0.34460  0.50920  0.27880  1.0000 0.0619398881
C   C10       1.0  0.42980  0.43340  0.31750  1.0000 -0.1517198119
C   C11       1.0  0.53320  0.36960  0.29080  1.0000 -0.0934333276
C   C12       1.0  0.55690  0.37980  0.22400  1.0000 -0.0310164025
C   C13       1.0  0.47200  0.45170  0.18380  1.0000 -0.0934333276
C   C14       1.0  0.36770  0.51520  0.21090  1.0000 -0.1605745084
C   C15       1.0  0.67020  0.31430  0.19480  1.0000 0.5662165958
C   C16       1.0  0.17490  0.68310  0.27670  1.0000 0.070461142
C   C17       1.0  0.24790  0.73280  0.25350  1.0000 -0.1605745084
C   C18       1.0  0.20290  0.83530  0.23130  1.0000 -0.1076794598
C   C19       1.0  0.08290  0.89010  0.23460  1.0000 -0.0188666178
C   C20       1.0  0.00980  0.84160  0.26000  1.0000 -0.1185372766
C   C21       1.0  0.05430  0.73900  0.28100  1.0000 -0.1605745084
C   C22       1.0  0.02990  0.99980  0.20720  1.0000 0.5414214808
C   C23       1.0  0.22650  0.58530  0.38120  1.0000 0.070461142
C   C24       1.0  0.13240  0.59020  0.42220  1.0000 -0.1605745084
C   C25       1.0  0.12920  0.61790  0.48670  1.0000 -0.1185372766
C   C26       1.0  0.21910  0.64430  0.51100  1.0000 -0.0188666178
C   C27       1.0  0.31440  0.63800  0.47030  1.0000 -0.1076794598
C   C28       1.0  0.31800  0.60960  0.40630  1.0000 -0.1517198119
C   C29       1.0  0.20810  0.68920  0.57780  1.0000 0.5218859989
C   C30       1.0  0.01180  0.25850  0.02060  1.0000 0.098510447
C   C31       1.0  0.04450  0.26640  0.95380  1.0000 -0.1517198119
C   C32       1.0  0.01150  0.21390  0.91070  1.0000 -0.0473422106
C   C33       1.0  0.94590  0.15680  0.93150  1.0000 -0.1605745084
C   C34       1.0  0.91620  0.15120  0.99740  1.0000 0.1641778428
C   C35       1.0  0.84360  0.09290  0.02380  1.0000 0.1681045471
C   C36       1.0  0.80310  0.03600  0.98440  1.0000 -0.1692264374
C   C37       1.0  0.73550  0.98530  0.01120  1.0000 -0.0310164025
C   C38       1.0  0.70920  0.99060  0.07820  1.0000 -0.1692264374
C   C39       1.0  0.75400  0.04720  0.11430  1.0000 0.098510447
C   C40       1.0  0.10090  0.07130  0.40190  1.0000 0.0871599656
C   C41       1.0  0.18690  0.99720  0.43910  1.0000 -0.1517198119
C   C42       1.0  0.16740  0.91030  0.45980  1.0000 -0.0310164025
C   C43       1.0  0.06570  0.89870  0.44230  1.0000 -0.1605745084
C   C44       1.0  0.98290  0.97630  0.40480  1.0000 0.1681045471
C   C45       1.0  0.86870  0.97110  0.38450  1.0000 0.1681045471
C   C46       1.0  0.84070  0.88640  0.39890  1.0000 -0.1692264374
C   C47       1.0  0.73520  0.88620  0.37800  1.0000 -0.0565423887
C   C48       1.0  0.65880  0.97110  0.34370  1.0000 -0.1605745084
C   C49       1.0  0.69200  0.05520  0.33070  1.0000 0.098510447
C   C50       1.0  0.77550  0.42830  0.69330  1.0000 -0.0188666178
C   C51       1.0  0.85060  0.49100  0.71070  1.0000 0.070461142
C   C52       1.0  0.91240  0.47010  0.77000  1.0000 -0.1692264374
C   C53       1.0  0.96240  0.53640  0.79020  1.0000 -0.0934333276
C   C54       1.0  0.95330  0.62420  0.75080  1.0000 -0.0310164025
C   C55       1.0  0.89440  0.64270  0.69110  1.0000 -0.0831810009
C   C56       1.0  0.84140  0.57800  0.67200  1.0000 -0.1605745084
C   C57       1.0  0.00320  0.69740  0.77330  1.0000 0.5772602934
C   C58       1.0  0.65540  0.49080  0.72120  1.0000 0.0619398881
C   C59       1.0  0.57020  0.56660  0.68250  1.0000 -0.1517198119
C   C60       1.0  0.46680  0.63040  0.70920  1.0000 -0.0934333276
C   C61       1.0  0.44310  0.62020  0.77600  1.0000 -0.0310164025
C   C62       1.0  0.52800  0.54830  0.81620  1.0000 -0.0934333276
C   C63       1.0  0.63230  0.48480  0.78910  1.0000 -0.1605745084
C   C64       1.0  0.32980  0.68570  0.80520  1.0000 0.5662165958
C   C65       1.0  0.82510  0.31690  0.72330  1.0000 0.070461142
C   C66       1.0  0.75210  0.26720  0.74650  1.0000 -0.1605745084
C   C67       1.0  0.79710  0.16470  0.76870  1.0000 -0.1076794598
C   C68       1.0  0.91710  0.10990  0.76540  1.0000 -0.0188666178
C   C69       1.0  0.99020  0.15840  0.74000  1.0000 -0.1185372766
C   C70       1.0  0.94570  0.26100  0.71900  1.0000 -0.1605745084
C   C71       1.0  0.97010  0.00020  0.79280  1.0000 0.5414214808
C   C72       1.0  0.77350  0.41470  0.61880  1.0000 0.070461142
C   C73       1.0  0.86760  0.40980  0.57780  1.0000 -0.1605745084
C   C74       1.0  0.87080  0.38210  0.51330  1.0000 -0.1185372766
C   C75       1.0  0.78090  0.35570  0.48900  1.0000 -0.0188666178
C   C76       1.0  0.68560  0.36200  0.52970  1.0000 -0.1076794598
C   C77       1.0  0.68200  0.39040  0.59370  1.0000 -0.1517198119
C   C78       1.0  0.79190  0.31080  0.42220  1.0000 0.5218859989
C   C79       1.0  0.98820  0.74150  0.97940  1.0000 0.098510447
C   C80       1.0  0.95550  0.73360  0.04620  1.0000 -0.1517198119
C   C81       1.0  0.98850  0.78610  0.08930  1.0000 -0.0473422106
C   C82       1.0  0.05410  0.84320  0.06850  1.0000 -0.1605745084
C   C83       1.0  0.08380  0.84880  0.00260  1.0000 0.1641778428
C   C84       1.0  0.15640  0.90710  0.97620  1.0000 0.1681045471
C   C85       1.0  0.19690  0.96400  0.01560  1.0000 -0.1692264374
C   C86       1.0  0.26450  0.01470  0.98880  1.0000 -0.0310164025
C   C87       1.0  0.29080  0.00940  0.92180  1.0000 -0.1692264374
C   C88       1.0  0.24600  0.95280  0.88570  1.0000 0.098510447
C   C89       1.0  0.89910  0.92870  0.59810  1.0000 0.0871599656
C   C90       1.0  0.81310  0.00280  0.56090  1.0000 -0.1517198119
C   C91       1.0  0.83260  0.08970  0.54020  1.0000 -0.0310164025
C   C92       1.0  0.93430  0.10130  0.55770  1.0000 -0.1605745084
C   C93       1.0  0.01710  0.02370  0.59520  1.0000 0.1681045471
C   C94       1.0  0.13130  0.02890  0.61550  1.0000 0.1681045471
C   C95       1.0  0.15930  0.11360  0.60110  1.0000 -0.1692264374
C   C96       1.0  0.26480  0.11380  0.62200  1.0000 -0.0565423887
C   C97       1.0  0.34120  0.02890  0.65630  1.0000 -0.1605745084
C   C98       1.0  0.30800  0.94480  0.66930  1.0000 0.098510447
N   N1        1.0  0.94750  0.20390  0.04130  1.0000 -0.2606698196
N   N2        1.0  0.81830  0.09710  0.08850  1.0000 -0.2518820759
N   N3        1.0  0.00280  0.06070  0.38500  1.0000 -0.2606698196
N   N4        1.0  0.79420  0.05450  0.35070  1.0000 -0.2431716915
N   N5        1.0  0.05250  0.79610  0.95870  1.0000 -0.2606698196
N   N6        1.0  0.18170  0.90290  0.91150  1.0000 -0.2518820759
N   N7        1.0  0.99720  0.93930  0.61500  1.0000 -0.2606698196
N   N8        1.0  0.20580  0.94550  0.64930  1.0000 -0.2431716915
O   O1        1.0  0.00180  0.22730  0.26420  1.0000 -0.5582873743
O   O2        1.0  0.95380  0.31900  0.16830  1.0000 -0.5478636842
O   O3        1.0  0.74480  0.24470  0.23240  1.0000 -0.5850250643
O   O4        1.0  0.69200  0.32710  0.13540  1.0000 -0.5276630145
O   O5        1.0  0.08420  0.03290  0.16450  1.0000 -0.5478636842
O   O6        1.0  0.92830  0.05280  0.22860  1.0000 -0.5840613764
O   O7        1.0  0.27650  0.73300  0.59040  1.0000 -0.5654350441
O   O8        1.0  0.12980  0.68530  0.61460  1.0000 -0.5065760534
O   O9        1.0  0.99820  0.77270  0.73580  1.0000 -0.5582873743
O   O10       1.0  0.04620  0.68100  0.83170  1.0000 -0.5478636842
O   O11       1.0  0.25520  0.75530  0.76760  1.0000 -0.5850250643
O   O12       1.0  0.30800  0.67290  0.86460  1.0000 -0.5276630145
O   O13       1.0  0.91580  0.96710  0.83550  1.0000 -0.5478636842
O   O14       1.0  0.07170  0.94720  0.77140  1.0000 -0.5840613764
O   O15       1.0  0.72350  0.26700  0.40960  1.0000 -0.5654350441
O   O16       1.0  0.87020  0.31470  0.38540  1.0000 -0.5065760534
