# DDEC6 charges by PACMAN v1.1 (https://github.com/mtap-research/PACMAN-charge/)
data_2019[Cd][qtz]2[ASR]1
_chemical_formula_sum              "Cd3 H54 C54 N12 O18"
_cell_length_a       13.3227
_cell_length_b       13.3227
_cell_length_c       11.917
_cell_angle_alpha    90
_cell_angle_beta     90
_cell_angle_gamma    120

_symmetry_space_group_name_H-M    "P 1"
_symmetry_Int_Tables_number       1

loop_
  _symmetry_equiv_pos_as_xyz
  'x, y, z'

loop_
  _atom_site_type_symbol
  _atom_site_label
  _atom_site_symmetry_multiplicity
  _atom_site_fract_x
  _atom_site_fract_y
  _atom_site_fract_z
  _atom_site_occupancy
  _atom_site_charge
Cd  Cd1       1.0  0.17220  0.17220  0.00000  1.0000 0.8084263765
Cd  Cd2       1.0  1.00000  0.82780  0.33333  1.0000 0.8084263765
Cd  Cd3       1.0  0.82780  0.00000  0.66667  1.0000 0.8084263765
H   H1        1.0  0.74530  0.99490  0.04697  1.0000 0.0956020915
H   H2        1.0  0.72000  0.80650  0.03287  1.0000 0.1380947047
H   H3        1.0  0.62890  0.80590  0.11657  1.0000 0.1300490115
H   H4        1.0  0.59130  0.75800  0.99447  1.0000 0.1300490115
H   H5        1.0  0.54340  0.17890  0.14657  1.0000 0.1300490115
H   H6        1.0  0.38460  0.20310  0.15327  1.0000 0.1098204144
H   H7        1.0  0.23400  0.97830  0.91487  1.0000 0.1098204144
H   H8        1.0  0.39170  0.94940  0.90497  1.0000 0.1380947047
H   H9        1.0  0.51550  0.89350  0.00867  1.0000 0.2730862611
H   H10       1.0  0.24960  0.25470  0.38030  1.0000 0.0956020915
H   H11       1.0  0.08650  0.28000  0.36620  1.0000 0.1380947047
H   H12       1.0  0.17700  0.37110  0.44990  1.0000 0.1300490115
H   H13       1.0  0.16670  0.40870  0.32780  1.0000 0.1300490115
H   H14       1.0  0.63550  0.45660  0.47990  1.0000 0.1300490115
H   H15       1.0  0.81850  0.61540  0.48660  1.0000 0.1098204144
H   H16       1.0  0.74430  0.76600  0.24820  1.0000 0.1098204144
H   H17       1.0  0.55770  0.60830  0.23830  1.0000 0.1380947047
H   H18       1.0  0.37800  0.48450  0.34200  1.0000 0.2730862611
H   H19       1.0  0.00510  0.75040  0.71363  1.0000 0.0956020915
H   H20       1.0  0.19350  0.91350  0.69953  1.0000 0.1380947047
H   H21       1.0  0.19410  0.82300  0.78323  1.0000 0.1300490115
H   H22       1.0  0.24200  0.83330  0.66113  1.0000 0.1300490115
H   H23       1.0  0.82110  0.36450  0.81323  1.0000 0.1300490115
H   H24       1.0  0.79690  0.18150  0.81993  1.0000 0.1098204144
H   H25       1.0  0.02170  0.25570  0.58153  1.0000 0.1098204144
H   H26       1.0  0.05060  0.44230  0.57163  1.0000 0.1380947047
H   H27       1.0  0.10650  0.62200  0.67533  1.0000 0.2730862611
H   H28       1.0  0.75040  0.00510  0.28637  1.0000 0.0956020915
H   H29       1.0  0.91350  0.19350  0.30047  1.0000 0.1380947047
H   H30       1.0  0.82300  0.19410  0.21677  1.0000 0.1300490115
H   H31       1.0  0.83330  0.24200  0.33887  1.0000 0.1300490115
H   H32       1.0  0.36450  0.82110  0.18677  1.0000 0.1300490115
H   H33       1.0  0.18150  0.79690  0.18007  1.0000 0.1098204144
H   H34       1.0  0.25570  0.02170  0.41847  1.0000 0.1098204144
H   H35       1.0  0.44230  0.05060  0.42837  1.0000 0.1380947047
H   H36       1.0  0.62200  0.10650  0.32467  1.0000 0.2730862611
H   H37       1.0  0.99490  0.74530  0.95303  1.0000 0.0956020915
H   H38       1.0  0.80650  0.72000  0.96713  1.0000 0.1380947047
H   H39       1.0  0.80590  0.62890  0.88343  1.0000 0.1300490115
H   H40       1.0  0.75800  0.59130  0.00553  1.0000 0.1300490115
H   H41       1.0  0.17890  0.54340  0.85343  1.0000 0.1300490115
H   H42       1.0  0.20310  0.38460  0.84673  1.0000 0.1098204144
H   H43       1.0  0.97830  0.23400  0.08513  1.0000 0.1098204144
H   H44       1.0  0.94940  0.39170  0.09503  1.0000 0.1380947047
H   H45       1.0  0.89350  0.51550  0.99133  1.0000 0.2730862611
H   H46       1.0  0.25470  0.24960  0.61970  1.0000 0.0956020915
H   H47       1.0  0.28000  0.08650  0.63380  1.0000 0.1380947047
H   H48       1.0  0.37110  0.17700  0.55010  1.0000 0.1300490115
H   H49       1.0  0.40870  0.16670  0.67220  1.0000 0.1300490115
H   H50       1.0  0.45660  0.63550  0.52010  1.0000 0.1300490115
H   H51       1.0  0.61540  0.81850  0.51340  1.0000 0.1098204144
H   H52       1.0  0.76600  0.74430  0.75180  1.0000 0.1098204144
H   H53       1.0  0.60830  0.55770  0.76170  1.0000 0.1380947047
H   H54       1.0  0.48450  0.37800  0.65800  1.0000 0.2730862611
C   C1        1.0  0.72940  0.95560  0.87837  1.0000 0.5160006248
C   C2        1.0  0.68370  0.93760  0.99877  1.0000 0.0511476709
C   C3        1.0  0.65310  0.81550  0.03967  1.0000 -0.4385325647
C   C4        1.0  0.59720  0.05770  0.01537  1.0000 0.4474800491
C   C5        1.0  0.48590  0.06550  0.02077  1.0000 0.0240792571
C   C6        1.0  0.48210  0.13850  0.09707  1.0000 -0.1631995427
C   C7        1.0  0.38640  0.15260  0.10057  1.0000 0.0939671274
C   C8        1.0  0.29780  0.02080  0.96107  1.0000 0.0792364292
C   C9        1.0  0.39270  0.00360  0.95477  1.0000 -0.1720177742
C   C10       1.0  0.22620  0.27060  0.21170  1.0000 0.5160006248
C   C11       1.0  0.25390  0.31630  0.33210  1.0000 0.0511476709
C   C12       1.0  0.16240  0.34690  0.37300  1.0000 -0.4385325647
C   C13       1.0  0.46050  0.40280  0.34870  1.0000 0.4474800491
C   C14       1.0  0.57960  0.51410  0.35410  1.0000 0.0240792571
C   C15       1.0  0.65640  0.51790  0.43040  1.0000 -0.1631995427
C   C16       1.0  0.76620  0.61360  0.43390  1.0000 0.0939671274
C   C17       1.0  0.72300  0.70220  0.29440  1.0000 0.0792364292
C   C18       1.0  0.61090  0.60730  0.28810  1.0000 -0.1720177742
C   C19       1.0  0.04440  0.77380  0.54503  1.0000 0.5160006248
C   C20       1.0  0.06240  0.74610  0.66543  1.0000 0.0511476709
C   C21       1.0  0.18450  0.83760  0.70633  1.0000 -0.4385325647
C   C22       1.0  0.94230  0.53950  0.68203  1.0000 0.4474800491
C   C23       1.0  0.93450  0.42040  0.68743  1.0000 0.0240792571
C   C24       1.0  0.86150  0.34360  0.76373  1.0000 -0.1631995427
C   C25       1.0  0.84740  0.23380  0.76723  1.0000 0.0939671274
C   C26       1.0  0.97920  0.27700  0.62773  1.0000 0.0792364292
C   C27       1.0  0.99640  0.38910  0.62143  1.0000 -0.1720177742
C   C28       1.0  0.77380  0.04440  0.45497  1.0000 0.5160006248
C   C29       1.0  0.74610  0.06240  0.33457  1.0000 0.0511476709
C   C30       1.0  0.83760  0.18450  0.29367  1.0000 -0.4385325647
C   C31       1.0  0.53950  0.94230  0.31797  1.0000 0.4474800491
C   C32       1.0  0.42040  0.93450  0.31257  1.0000 0.0240792571
C   C33       1.0  0.34360  0.86150  0.23627  1.0000 -0.1631995427
C   C34       1.0  0.23380  0.84740  0.23277  1.0000 0.0939671274
C   C35       1.0  0.27700  0.97920  0.37227  1.0000 0.0792364292
C   C36       1.0  0.38910  0.99640  0.37857  1.0000 -0.1720177742
C   C37       1.0  0.95560  0.72940  0.12163  1.0000 0.5160006248
C   C38       1.0  0.93760  0.68370  0.00123  1.0000 0.0511476709
C   C39       1.0  0.81550  0.65310  0.96033  1.0000 -0.4385325647
C   C40       1.0  0.05770  0.59720  0.98463  1.0000 0.4474800491
C   C41       1.0  0.06550  0.48590  0.97923  1.0000 0.0240792571
C   C42       1.0  0.13850  0.48210  0.90293  1.0000 -0.1631995427
C   C43       1.0  0.15260  0.38640  0.89943  1.0000 0.0939671274
C   C44       1.0  0.02080  0.29780  0.03893  1.0000 0.0792364292
C   C45       1.0  0.00360  0.39270  0.04523  1.0000 -0.1720177742
C   C46       1.0  0.27060  0.22620  0.78830  1.0000 0.5160006248
C   C47       1.0  0.31630  0.25390  0.66790  1.0000 0.0511476709
C   C48       1.0  0.34690  0.16240  0.62700  1.0000 -0.4385325647
C   C49       1.0  0.40280  0.46050  0.65130  1.0000 0.4474800491
C   C50       1.0  0.51410  0.57960  0.64590  1.0000 0.0240792571
C   C51       1.0  0.51790  0.65640  0.56960  1.0000 -0.1631995427
C   C52       1.0  0.61360  0.76620  0.56610  1.0000 0.0939671274
C   C53       1.0  0.70220  0.72300  0.70560  1.0000 0.0792364292
C   C54       1.0  0.60730  0.61090  0.71190  1.0000 -0.1720177742
N   N1        1.0  0.58410  0.95320  0.00797  1.0000 -0.3565910733
N   N2        1.0  0.29760  0.09730  0.03257  1.0000 -0.2143586612
N   N3        1.0  0.36910  0.41590  0.34130  1.0000 -0.3565910733
N   N4        1.0  0.79970  0.70240  0.36590  1.0000 -0.2143586612
N   N5        1.0  0.04680  0.63090  0.67463  1.0000 -0.3565910733
N   N6        1.0  0.90270  0.20030  0.69923  1.0000 -0.2143586612
N   N7        1.0  0.63090  0.04680  0.32537  1.0000 -0.3565910733
N   N8        1.0  0.20030  0.90270  0.30077  1.0000 -0.2143586612
N   N9        1.0  0.95320  0.58410  0.99203  1.0000 -0.3545478321
N   N10       1.0  0.09730  0.29760  0.96743  1.0000 -0.2143586612
N   N11       1.0  0.41590  0.36910  0.65870  1.0000 -0.3565910733
N   N12       1.0  0.70240  0.79970  0.63410  1.0000 -0.2143586612
O   O1        1.0  0.69320  0.14620  0.01937  1.0000 -0.4764610963
O   O2        1.0  0.67180  0.96460  0.80207  1.0000 -0.5183063285
O   O3        1.0  0.82640  0.96590  0.86317  1.0000 -0.5316634711
O   O4        1.0  0.45300  0.30680  0.35270  1.0000 -0.4764610963
O   O5        1.0  0.29280  0.32820  0.13540  1.0000 -0.5183063285
O   O6        1.0  0.13950  0.17360  0.19650  1.0000 -0.5316634711
O   O7        1.0  0.85380  0.54700  0.68603  1.0000 -0.4764610963
O   O8        1.0  0.03540  0.70720  0.46873  1.0000 -0.5183063285
O   O9        1.0  0.03410  0.86050  0.52983  1.0000 -0.5316634711
O   O10       1.0  0.54700  0.85380  0.31397  1.0000 -0.4764610963
O   O11       1.0  0.70720  0.03540  0.53127  1.0000 -0.5183063285
O   O12       1.0  0.86050  0.03410  0.47017  1.0000 -0.5316634711
O   O13       1.0  0.14620  0.69320  0.98063  1.0000 -0.4764610963
O   O14       1.0  0.96460  0.67180  0.19793  1.0000 -0.5183063285
O   O15       1.0  0.96590  0.82640  0.13683  1.0000 -0.5316634711
O   O16       1.0  0.30680  0.45300  0.64730  1.0000 -0.4764610963
O   O17       1.0  0.32820  0.29280  0.86460  1.0000 -0.5183063285
O   O18       1.0  0.17360  0.13950  0.80350  1.0000 -0.5316634711
