# DDEC6 charges by PACMAN v1.1 (https://github.com/mtap-research/PACMAN-charge/)
data_2019[Zn][nan]2[ASR]2
_chemical_formula_sum              "Zn4 H36 C52 N8 O16"
_cell_length_a       12.4439
_cell_length_b       7.6771
_cell_length_c       16.1252
_cell_angle_alpha    90
_cell_angle_beta     108.2
_cell_angle_gamma    90

_symmetry_space_group_name_H-M    "P 1"
_symmetry_Int_Tables_number       1

loop_
  _symmetry_equiv_pos_as_xyz
  'x, y, z'

loop_
  _atom_site_type_symbol
  _atom_site_label
  _atom_site_symmetry_multiplicity
  _atom_site_fract_x
  _atom_site_fract_y
  _atom_site_fract_z
  _atom_site_occupancy
  _atom_site_charge
Zn  Zn1       1.0  0.80619  0.50143  0.18547  1.0000 0.7749256127
Zn  Zn2       1.0  0.19381  0.00143  0.31453  1.0000 0.7749256127
Zn  Zn3       1.0  0.19381  0.49857  0.81453  1.0000 0.7749256127
Zn  Zn4       1.0  0.80619  0.99857  0.68547  1.0000 0.7749256127
H   H1        1.0  0.99297  0.03878  0.64837  1.0000 0.3105258353
H   H2        1.0  0.99677  0.16268  0.71615  1.0000 0.3105258353
H   H3        1.0  0.82350  0.60552  0.43707  1.0000 0.1190621078
H   H4        1.0  0.92963  0.11427  0.49791  1.0000 0.1388159079
H   H5        1.0  0.90780  0.44174  0.68573  1.0000 0.1320356958
H   H6        1.0  0.58871  0.95381  0.14114  1.0000 0.1388159079
H   H7        1.0  0.70418  0.17258  0.21413  1.0000 0.1190621078
H   H8        1.0  0.63742  0.44813  0.00283  1.0000 0.1190621078
H   H9        1.0  0.51631  0.24033  0.92614  1.0000 0.1388159079
H   H10       1.0  0.00703  0.53878  0.85163  1.0000 0.3105258353
H   H11       1.0  0.00323  0.66268  0.78385  1.0000 0.3105258353
H   H12       1.0  0.17650  0.10552  0.06293  1.0000 0.1190621078
H   H13       1.0  0.07037  0.61427  0.00209  1.0000 0.1388159079
H   H14       1.0  0.09220  0.94174  0.81427  1.0000 0.1320356958
H   H15       1.0  0.41129  0.45381  0.35886  1.0000 0.1388159079
H   H16       1.0  0.29582  0.67258  0.28587  1.0000 0.1190621078
H   H17       1.0  0.36258  0.94813  0.49717  1.0000 0.1190621078
H   H18       1.0  0.48369  0.74033  0.57386  1.0000 0.1388159079
H   H19       1.0  0.00703  0.96122  0.35163  1.0000 0.3105258353
H   H20       1.0  0.00323  0.83732  0.28385  1.0000 0.3105258353
H   H21       1.0  0.17650  0.39448  0.56293  1.0000 0.1190621078
H   H22       1.0  0.07037  0.88573  0.50209  1.0000 0.1388159079
H   H23       1.0  0.09220  0.55826  0.31427  1.0000 0.1320356958
H   H24       1.0  0.41129  0.04619  0.85886  1.0000 0.1388159079
H   H25       1.0  0.29582  0.82742  0.78587  1.0000 0.1190621078
H   H26       1.0  0.36258  0.55187  0.99717  1.0000 0.1190621078
H   H27       1.0  0.48369  0.75967  0.07386  1.0000 0.1388159079
H   H28       1.0  0.99297  0.46122  0.14837  1.0000 0.3105258353
H   H29       1.0  0.99677  0.33732  0.21615  1.0000 0.3105258353
H   H30       1.0  0.82350  0.89448  0.93707  1.0000 0.1190621078
H   H31       1.0  0.92963  0.38573  0.99791  1.0000 0.1388159079
H   H32       1.0  0.90780  0.05826  0.18573  1.0000 0.1320356958
H   H33       1.0  0.58871  0.54619  0.64114  1.0000 0.1388159079
H   H34       1.0  0.70418  0.32742  0.71413  1.0000 0.1190621078
H   H35       1.0  0.63742  0.05187  0.50283  1.0000 0.1190621078
H   H36       1.0  0.51631  0.25967  0.42614  1.0000 0.1388159079
C   C1        1.0  0.87590  0.35550  0.45339  1.0000 -0.0117024527
C   C2        1.0  0.84930  0.51830  0.47850  1.0000 -0.1395000138
C   C3        1.0  0.91270  0.22390  0.51493  1.0000 -0.1987870105
C   C4        1.0  0.92400  0.25680  0.60181  1.0000 0.2534187071
C   C5        1.0  0.86510  0.32260  0.35886  1.0000 0.5578258865
C   C6        1.0  0.89920  0.41980  0.62727  1.0000 -0.2092957005
C   C7        1.0  0.86120  0.55130  0.56561  1.0000 -0.0117024527
C   C8        1.0  0.83160  0.72740  0.59309  1.0000 0.5407700174
C   C9        1.0  0.59620  0.05450  0.11140  1.0000 -0.1731424697
C   C10       1.0  0.66630  0.18640  0.15490  1.0000 0.0853566237
C   C11       1.0  0.53770  0.07100  0.02500  1.0000 0.1190621078
C   C12       1.0  0.62680  0.34790  0.03170  1.0000 0.0853566237
C   C13       1.0  0.55440  0.22270  0.98510  1.0000 -0.1890588172
C   C14       1.0  0.12410  0.85550  0.04661  1.0000 -0.0117024527
C   C15       1.0  0.15070  0.01830  0.02150  1.0000 -0.1395000138
C   C16       1.0  0.08730  0.72390  0.98507  1.0000 -0.1987870105
C   C17       1.0  0.07600  0.75680  0.89819  1.0000 0.2534187071
C   C18       1.0  0.13490  0.82260  0.14114  1.0000 0.5578258865
C   C19       1.0  0.10080  0.91980  0.87273  1.0000 -0.2092957005
C   C20       1.0  0.13880  0.05130  0.93439  1.0000 -0.0117024527
C   C21       1.0  0.16840  0.22740  0.90691  1.0000 0.5407700174
C   C22       1.0  0.40380  0.55450  0.38860  1.0000 -0.1731424697
C   C23       1.0  0.33370  0.68640  0.34510  1.0000 0.0853566237
C   C24       1.0  0.46230  0.57100  0.47500  1.0000 0.1190621078
C   C25       1.0  0.37320  0.84790  0.46830  1.0000 0.0853566237
C   C26       1.0  0.44560  0.72270  0.51490  1.0000 -0.1890588172
C   C27       1.0  0.12410  0.64450  0.54661  1.0000 -0.0117024527
C   C28       1.0  0.15070  0.48170  0.52150  1.0000 -0.1395000138
C   C29       1.0  0.08730  0.77610  0.48507  1.0000 -0.1987870105
C   C30       1.0  0.07600  0.74320  0.39819  1.0000 0.2534187071
C   C31       1.0  0.13490  0.67740  0.64114  1.0000 0.5578258865
C   C32       1.0  0.10080  0.58020  0.37273  1.0000 -0.2092957005
C   C33       1.0  0.13880  0.44870  0.43439  1.0000 -0.0117024527
C   C34       1.0  0.16840  0.27260  0.40691  1.0000 0.5407700174
C   C35       1.0  0.40380  0.94550  0.88860  1.0000 -0.1731424697
C   C36       1.0  0.33370  0.81360  0.84510  1.0000 0.0853566237
C   C37       1.0  0.46230  0.92900  0.97500  1.0000 0.1190621078
C   C38       1.0  0.37320  0.65210  0.96830  1.0000 0.0853566237
C   C39       1.0  0.44560  0.77730  0.01490  1.0000 -0.1890588172
C   C40       1.0  0.87590  0.14450  0.95339  1.0000 -0.0117024527
C   C41       1.0  0.84930  0.98170  0.97850  1.0000 -0.1395000138
C   C42       1.0  0.91270  0.27610  0.01493  1.0000 -0.1987870105
C   C43       1.0  0.92400  0.24320  0.10181  1.0000 0.2534187071
C   C44       1.0  0.86510  0.17740  0.85886  1.0000 0.5578258865
C   C45       1.0  0.89920  0.08020  0.12727  1.0000 -0.2092957005
C   C46       1.0  0.86120  0.94870  0.06561  1.0000 -0.0117024527
C   C47       1.0  0.83160  0.77260  0.09309  1.0000 0.5407700174
C   C48       1.0  0.59620  0.44550  0.61140  1.0000 -0.1731424697
C   C49       1.0  0.66630  0.31360  0.65490  1.0000 0.0853566237
C   C50       1.0  0.53770  0.42900  0.52500  1.0000 0.1190621078
C   C51       1.0  0.62680  0.15210  0.53170  1.0000 0.0853566237
C   C52       1.0  0.55440  0.27730  0.48510  1.0000 -0.1890588172
N   N1        1.0  0.95320  0.11940  0.66563  1.0000 -0.5765035667
N   N2        1.0  0.68230  0.33270  0.11610  1.0000 -0.2249441959
N   N3        1.0  0.04680  0.61940  0.83437  1.0000 -0.5765035667
N   N4        1.0  0.31770  0.83270  0.38390  1.0000 -0.2249441959
N   N5        1.0  0.04680  0.88060  0.33437  1.0000 -0.5765035667
N   N6        1.0  0.31770  0.66730  0.88390  1.0000 -0.2249441959
N   N7        1.0  0.95320  0.38060  0.16563  1.0000 -0.5765035667
N   N8        1.0  0.68230  0.16730  0.61610  1.0000 -0.2249441959
O   O1        1.0  0.85335  0.75440  0.67477  1.0000 -0.5414747812
O   O2        1.0  0.83350  0.45200  0.30880  1.0000 -0.5588869817
O   O3        1.0  0.88567  0.17460  0.33550  1.0000 -0.5669637687
O   O4        1.0  0.78870  0.83930  0.53809  1.0000 -0.5414747812
O   O5        1.0  0.14665  0.25440  0.82523  1.0000 -0.5414747812
O   O6        1.0  0.16650  0.95200  0.19120  1.0000 -0.5588869817
O   O7        1.0  0.11433  0.67460  0.16450  1.0000 -0.5669637687
O   O8        1.0  0.21130  0.33930  0.96191  1.0000 -0.5414747812
O   O9        1.0  0.14665  0.24560  0.32523  1.0000 -0.5414747812
O   O10       1.0  0.16650  0.54800  0.69120  1.0000 -0.5588869817
O   O11       1.0  0.11433  0.82540  0.66450  1.0000 -0.5669637687
O   O12       1.0  0.21130  0.16070  0.46191  1.0000 -0.5414747812
O   O13       1.0  0.85335  0.74560  0.17477  1.0000 -0.5414747812
O   O14       1.0  0.83350  0.04800  0.80880  1.0000 -0.5588869817
O   O15       1.0  0.88567  0.32540  0.83550  1.0000 -0.5669637687
O   O16       1.0  0.78870  0.66070  0.03809  1.0000 -0.5414747812
