# DDEC6 charges by PACMAN v1.1 (https://github.com/mtap-research/PACMAN-charge/)
data_2019[Cu][hof]3[ASR]1
_chemical_formula_sum              "Cu8 H18 C32 O28"
_cell_length_a       17.0075
_cell_length_b       17.0075
_cell_length_c       17.0075
_cell_angle_alpha    156.341
_cell_angle_beta     118.512
_cell_angle_gamma    66.8409

_symmetry_space_group_name_H-M    "P 1"
_symmetry_Int_Tables_number       1

loop_
  _symmetry_equiv_pos_as_xyz
  'x, y, z'

loop_
  _atom_site_type_symbol
  _atom_site_label
  _atom_site_symmetry_multiplicity
  _atom_site_fract_x
  _atom_site_fract_y
  _atom_site_fract_z
  _atom_site_occupancy
  _atom_site_charge
Cu  Cu1       1.0  0.37193  0.42161  0.43056  1.0000 0.8989496258
Cu  Cu2       1.0  0.48609  0.29031  0.52574  1.0000 0.9341894217
Cu  Cu3       1.0  0.00895  0.57839  0.95032  1.0000 0.8989496258
Cu  Cu4       1.0  0.23543  0.70969  0.19578  1.0000 0.9341894217
Cu  Cu5       1.0  0.99105  0.94137  0.56944  1.0000 0.8989496258
Cu  Cu6       1.0  0.76457  0.96035  0.47426  1.0000 0.9352725176
Cu  Cu7       1.0  0.62807  0.05863  0.04968  1.0000 0.8989496258
Cu  Cu8       1.0  0.51391  0.03965  0.80422  1.0000 0.9341894217
H   H1        1.0  0.56140  0.69090  0.83790  1.0000 0.1211003428
H   H2        1.0  0.62360  0.33440  0.48700  1.0000 0.1510087335
H   H3        1.0  0.68380  0.54500  0.70360  1.0000 0.1510087335
H   H4        1.0  0.12400  0.15630  0.14430  1.0000 0.1211003428
H   H5        1.0  0.14700  0.30910  0.87050  1.0000 0.1211003428
H   H6        1.0  0.15260  0.66560  0.28920  1.0000 0.1510087335
H   H7        1.0  0.15860  0.45500  0.13880  1.0000 0.1510087335
H   H8        1.0  0.98800  0.84370  0.96770  1.0000 0.1211003428
H   H9        1.0  0.85300  0.72350  0.16210  1.0000 0.1211003428
H   H10       1.0  0.84740  0.13660  0.51300  1.0000 0.1510087335
H   H11       1.0  0.84140  0.98020  0.29640  1.0000 0.1510087335
H   H12       1.0  0.01200  0.97970  0.85570  1.0000 0.1211003428
H   H13       1.0  0.43860  0.27650  0.12950  1.0000 0.1211003428
H   H14       1.0  0.37640  0.86340  0.71080  1.0000 0.1510087335
H   H15       1.0  0.31620  0.01980  0.86120  1.0000 0.1510087335
H   H16       1.0  0.87600  0.02030  0.03230  1.0000 0.1211003428
H   H17       1.0  0.25790  0.00000  0.25790  1.0000 0.1302455468
H   H18       1.0  0.74210  0.00000  0.74210  1.0000 0.1302455468
C   C1        1.0  0.53074  0.62204  0.64370  1.0000 0.5536957411
C   C2        1.0  0.55041  0.56641  0.68720  1.0000 0.0825251015
C   C3        1.0  0.63576  0.46536  0.63820  1.0000 -0.390506302
C   C4        1.0  0.66915  0.43865  0.71210  1.0000 0.6540346769
C   C5        1.0  0.28911  0.20151  0.32360  1.0000 0.598300877
C   C6        1.0  0.20346  0.09506  0.21820  1.0000 -0.0193879071
C   C7        1.0  0.12336  0.09336  0.13620  1.0000 -0.1391891064
C   C8        1.0  0.02166  0.37796  0.90870  1.0000 0.5536957411
C   C9        1.0  0.12079  0.43359  0.98400  1.0000 0.0825251015
C   C10       1.0  0.17284  0.53464  0.17040  1.0000 -0.390506302
C   C11       1.0  0.27345  0.56135  0.23050  1.0000 0.6540346769
C   C12       1.0  0.12209  0.79849  0.08760  1.0000 0.598300877
C   C13       1.0  0.12314  0.90494  0.10840  1.0000 -0.0193879071
C   C14       1.0  0.04284  0.90664  0.03000  1.0000 -0.1391891064
C   C15       1.0  0.97834  0.88704  0.35630  1.0000 0.5536957411
C   C16       1.0  0.87921  0.86321  0.31280  1.0000 0.0825251015
C   C17       1.0  0.82716  0.99756  0.36180  1.0000 -0.390506302
C   C18       1.0  0.72655  0.95705  0.28790  1.0000 0.6540346769
C   C19       1.0  0.87791  0.96551  0.67640  1.0000 0.598300877
C   C20       1.0  0.87686  0.98526  0.78180  1.0000 -0.0193879071
C   C21       1.0  0.95716  0.98716  0.86380  1.0000 -0.1391891064
C   C22       1.0  0.46926  0.11296  0.09130  1.0000 0.5536957411
C   C23       1.0  0.44959  0.13679  0.01600  1.0000 0.0825251015
C   C24       1.0  0.36424  0.00244  0.82960  1.0000 -0.390506302
C   C25       1.0  0.33085  0.04295  0.76950  1.0000 0.6540346769
C   C26       1.0  0.71089  0.03449  0.91240  1.0000 0.598300877
C   C27       1.0  0.79654  0.01474  0.89160  1.0000 -0.0193879071
C   C28       1.0  0.87664  0.01284  0.97000  1.0000 -0.1391891064
C   C29       1.0  0.20330  0.00000  0.20330  1.0000 -0.0926073539
C   C30       1.0  0.04250  0.00000  0.04250  1.0000 0.0659300936
C   C31       1.0  0.79670  0.00000  0.79670  1.0000 -0.0926073539
C   C32       1.0  0.95750  0.00000  0.95750  1.0000 0.0659300936
O   O1        1.0  0.45147  0.57537  0.53790  1.0000 -0.5078451084
O   O2        1.0  0.59185  0.70985  0.71140  1.0000 -0.5274102661
O   O3        1.0  0.47362  0.44942  0.57500  1.0000 -0.6239598068
O   O4        1.0  0.61172  0.38492  0.68940  1.0000 -0.5424688431
O   O5        1.0  0.75180  0.46180  0.78780  1.0000 -0.4642000469
O   O6        1.0  0.28417  0.27757  0.32400  1.0000 -0.5424688431
O   O7        1.0  0.35883  0.20573  0.40230  1.0000 -0.5570497336
O   O8        1.0  0.96253  0.42463  0.87610  1.0000 -0.5078451084
O   O9        1.0  0.00155  0.29015  0.88200  1.0000 -0.5274102661
O   O10       1.0  0.12558  0.55058  0.02420  1.0000 -0.6250831457
O   O11       1.0  0.30448  0.61508  0.22680  1.0000 -0.5424688431
O   O12       1.0  0.32600  0.53820  0.29000  1.0000 -0.4680945548
O   O13       1.0  0.04643  0.72243  0.00660  1.0000 -0.5424688431
O   O14       1.0  0.19657  0.79427  0.15310  1.0000 -0.5570497336
O   O15       1.0  0.03747  0.91357  0.46210  1.0000 -0.5078451084
O   O16       1.0  0.99845  0.88045  0.28860  1.0000 -0.5274102661
O   O17       1.0  0.87442  0.89862  0.42500  1.0000 -0.6250831457
O   O18       1.0  0.69552  0.92232  0.31060  1.0000 -0.5424688431
O   O19       1.0  0.67400  0.96400  0.21220  1.0000 -0.4680945548
O   O20       1.0  0.95357  0.96017  0.67600  1.0000 -0.5424688431
O   O21       1.0  0.80343  0.95653  0.59770  1.0000 -0.5570497336
O   O22       1.0  0.54853  0.08643  0.12390  1.0000 -0.5078451084
O   O23       1.0  0.40815  0.11955  0.11800  1.0000 -0.5274102661
O   O24       1.0  0.52638  0.10138  0.97580  1.0000 -0.6239598068
O   O25       1.0  0.38828  0.07768  0.77320  1.0000 -0.5424688431
O   O26       1.0  0.24820  0.03600  0.71000  1.0000 -0.4680945548
O   O27       1.0  0.71583  0.03983  0.99340  1.0000 -0.5424688431
O   O28       1.0  0.64117  0.04347  0.84690  1.0000 -0.5570497336
