# DDEC6 charges by PACMAN v1.1 (https://github.com/mtap-research/PACMAN-charge/)
data_2019[Gd][sql]2[ASR]1
_chemical_formula_sum              "Gd8 H56 C64 O52"
_cell_length_a       8.7374
_cell_length_b       14.0643
_cell_length_c       24.8728
_cell_angle_alpha    90
_cell_angle_beta     90
_cell_angle_gamma    90

_symmetry_space_group_name_H-M    "P 1"
_symmetry_Int_Tables_number       1

loop_
  _symmetry_equiv_pos_as_xyz
  'x, y, z'

loop_
  _atom_site_type_symbol
  _atom_site_label
  _atom_site_symmetry_multiplicity
  _atom_site_fract_x
  _atom_site_fract_y
  _atom_site_fract_z
  _atom_site_occupancy
  _atom_site_charge
Gd  Gd1       1.0  0.02700  0.10544  0.55722  1.0000 1.9502883683
Gd  Gd2       1.0  0.97300  0.89456  0.05722  1.0000 1.9502883683
Gd  Gd3       1.0  0.97300  0.89456  0.44278  1.0000 1.9502883683
Gd  Gd4       1.0  0.02700  0.10544  0.94278  1.0000 1.9502883683
Gd  Gd5       1.0  0.47300  0.60544  0.44278  1.0000 1.9502883683
Gd  Gd6       1.0  0.52700  0.39456  0.94278  1.0000 1.9502883683
Gd  Gd7       1.0  0.52700  0.39456  0.55722  1.0000 1.9502883683
Gd  Gd8       1.0  0.47300  0.60544  0.05722  1.0000 1.9502883683
H   H1        1.0  0.33210  0.16460  0.39860  1.0000 0.1346321683
H   H2        1.0  0.25710  0.06850  0.37930  1.0000 0.1205005999
H   H3        1.0  0.49730  0.97680  0.35870  1.0000 0.1205005999
H   H4        1.0  0.57810  0.07620  0.36290  1.0000 0.1205005999
H   H5        1.0  0.41990  0.98730  0.44670  1.0000 0.0980280851
H   H6        1.0  0.50820  0.08370  0.45350  1.0000 0.0980280851
H   H7        1.0  0.60000  0.22180  0.70020  1.0000 0.1448202561
H   H8        1.0  0.66790  0.83540  0.89860  1.0000 0.1346321683
H   H9        1.0  0.74290  0.93150  0.87930  1.0000 0.1205005999
H   H10       1.0  0.50270  0.02320  0.85870  1.0000 0.1205005999
H   H11       1.0  0.42190  0.92380  0.86290  1.0000 0.1205005999
H   H12       1.0  0.58010  0.01270  0.94670  1.0000 0.0980280851
H   H13       1.0  0.49180  0.91630  0.95350  1.0000 0.0980280851
H   H14       1.0  0.40000  0.77820  0.20020  1.0000 0.1448202561
H   H15       1.0  0.66790  0.83540  0.60140  1.0000 0.1346321683
H   H16       1.0  0.74290  0.93150  0.62070  1.0000 0.1205005999
H   H17       1.0  0.50270  0.02320  0.64130  1.0000 0.1205005999
H   H18       1.0  0.42190  0.92380  0.63710  1.0000 0.1205005999
H   H19       1.0  0.58010  0.01270  0.55330  1.0000 0.0980280851
H   H20       1.0  0.49180  0.91630  0.54650  1.0000 0.0980280851
H   H21       1.0  0.40000  0.77820  0.29980  1.0000 0.1448202561
H   H22       1.0  0.33210  0.16460  0.10140  1.0000 0.1346321683
H   H23       1.0  0.25710  0.06850  0.12070  1.0000 0.1205005999
H   H24       1.0  0.49730  0.97680  0.14130  1.0000 0.1205005999
H   H25       1.0  0.57810  0.07620  0.13710  1.0000 0.1205005999
H   H26       1.0  0.41990  0.98730  0.05330  1.0000 0.0980280851
H   H27       1.0  0.50820  0.08370  0.04650  1.0000 0.0980280851
H   H28       1.0  0.60000  0.22180  0.79980  1.0000 0.1448202561
H   H29       1.0  0.16790  0.66460  0.60140  1.0000 0.1346321683
H   H30       1.0  0.24290  0.56850  0.62070  1.0000 0.1205005999
H   H31       1.0  0.00270  0.47680  0.64130  1.0000 0.1205005999
H   H32       1.0  0.92190  0.57620  0.63710  1.0000 0.1205005999
H   H33       1.0  0.08010  0.48730  0.55330  1.0000 0.0980280851
H   H34       1.0  0.99180  0.58370  0.54650  1.0000 0.0980280851
H   H35       1.0  0.90000  0.72180  0.29980  1.0000 0.1448202561
H   H36       1.0  0.83210  0.33540  0.10140  1.0000 0.1346321683
H   H37       1.0  0.75710  0.43150  0.12070  1.0000 0.1205005999
H   H38       1.0  0.99730  0.52320  0.14130  1.0000 0.1205005999
H   H39       1.0  0.07810  0.42380  0.13710  1.0000 0.1205005999
H   H40       1.0  0.91990  0.51270  0.05330  1.0000 0.0980280851
H   H41       1.0  0.00820  0.41630  0.04650  1.0000 0.0980280851
H   H42       1.0  0.10000  0.27820  0.79980  1.0000 0.1448202561
H   H43       1.0  0.83210  0.33540  0.39860  1.0000 0.1346321683
H   H44       1.0  0.75710  0.43150  0.37930  1.0000 0.1205005999
H   H45       1.0  0.99730  0.52320  0.35870  1.0000 0.1205005999
H   H46       1.0  0.07810  0.42380  0.36290  1.0000 0.1205005999
H   H47       1.0  0.91990  0.51270  0.44670  1.0000 0.0980280851
H   H48       1.0  0.00820  0.41630  0.45350  1.0000 0.0980280851
H   H49       1.0  0.10000  0.27820  0.70020  1.0000 0.1448202561
H   H50       1.0  0.16790  0.66460  0.89860  1.0000 0.1346321683
H   H51       1.0  0.24290  0.56850  0.87930  1.0000 0.1205005999
H   H52       1.0  0.00270  0.47680  0.85870  1.0000 0.1205005999
H   H53       1.0  0.92190  0.57620  0.86290  1.0000 0.1205005999
H   H54       1.0  0.08010  0.48730  0.94670  1.0000 0.0980280851
H   H55       1.0  0.99180  0.58370  0.95350  1.0000 0.0980280851
H   H56       1.0  0.90000  0.72180  0.20020  1.0000 0.1448202561
C   C1        1.0  0.19990  0.10250  0.45700  1.0000 0.6650419365
C   C2        1.0  0.85760  0.11970  0.65330  1.0000 0.5202073585
C   C3        1.0  0.30530  0.10050  0.40950  1.0000 -0.3183775116
C   C4        1.0  0.69430  0.97190  0.40270  1.0000 0.619882984
C   C5        1.0  0.78720  0.14480  0.70500  1.0000 0.0526787107
C   C6        1.0  0.55130  0.01930  0.38280  1.0000 -0.3123429884
C   C7        1.0  0.45120  0.04480  0.42820  1.0000 -0.1090500402
C   C8        1.0  0.67200  0.19210  0.72180  1.0000 -0.1628275551
C   C9        1.0  0.80010  0.89750  0.95700  1.0000 0.6638398896
C   C10       1.0  0.14240  0.88030  0.15330  1.0000 0.5202073585
C   C11       1.0  0.69470  0.89950  0.90950  1.0000 -0.3183775116
C   C12       1.0  0.30570  0.02810  0.90270  1.0000 0.619882984
C   C13       1.0  0.21280  0.85520  0.20500  1.0000 0.0526787107
C   C14       1.0  0.44870  0.98070  0.88280  1.0000 -0.3123429884
C   C15       1.0  0.54880  0.95520  0.92820  1.0000 -0.1090500402
C   C16       1.0  0.32800  0.80790  0.22180  1.0000 -0.1628275551
C   C17       1.0  0.80010  0.89750  0.54300  1.0000 0.6638398896
C   C18       1.0  0.14240  0.88030  0.34670  1.0000 0.5202073585
C   C19       1.0  0.69470  0.89950  0.59050  1.0000 -0.3183775116
C   C20       1.0  0.30570  0.02810  0.59730  1.0000 0.619882984
C   C21       1.0  0.21280  0.85520  0.29500  1.0000 0.0526787107
C   C22       1.0  0.44870  0.98070  0.61720  1.0000 -0.3123429884
C   C23       1.0  0.54880  0.95520  0.57180  1.0000 -0.1090500402
C   C24       1.0  0.32800  0.80790  0.27820  1.0000 -0.1628275551
C   C25       1.0  0.19990  0.10250  0.04300  1.0000 0.6650419365
C   C26       1.0  0.85760  0.11970  0.84670  1.0000 0.5202073585
C   C27       1.0  0.30530  0.10050  0.09050  1.0000 -0.3183775116
C   C28       1.0  0.69430  0.97190  0.09730  1.0000 0.619882984
C   C29       1.0  0.78720  0.14480  0.79500  1.0000 0.0526787107
C   C30       1.0  0.55130  0.01930  0.11720  1.0000 -0.3123429884
C   C31       1.0  0.45120  0.04480  0.07180  1.0000 -0.1090500402
C   C32       1.0  0.67200  0.19210  0.77820  1.0000 -0.1628275551
C   C33       1.0  0.30010  0.60250  0.54300  1.0000 0.6650419365
C   C34       1.0  0.64240  0.61970  0.34670  1.0000 0.5202073585
C   C35       1.0  0.19470  0.60050  0.59050  1.0000 -0.3183775116
C   C36       1.0  0.80570  0.47190  0.59730  1.0000 0.619882984
C   C37       1.0  0.71280  0.64480  0.29500  1.0000 0.0526787107
C   C38       1.0  0.94870  0.51930  0.61720  1.0000 -0.3123429884
C   C39       1.0  0.04880  0.54480  0.57180  1.0000 -0.1090500402
C   C40       1.0  0.82800  0.69210  0.27820  1.0000 -0.1628275551
C   C41       1.0  0.69990  0.39750  0.04300  1.0000 0.6650419365
C   C42       1.0  0.35760  0.38030  0.84670  1.0000 0.5202073585
C   C43       1.0  0.80530  0.39950  0.09050  1.0000 -0.3183775116
C   C44       1.0  0.19430  0.52810  0.09730  1.0000 0.619882984
C   C45       1.0  0.28720  0.35520  0.79500  1.0000 0.0526787107
C   C46       1.0  0.05130  0.48070  0.11720  1.0000 -0.3123429884
C   C47       1.0  0.95120  0.45520  0.07180  1.0000 -0.1090500402
C   C48       1.0  0.17200  0.30790  0.77820  1.0000 -0.1628275551
C   C49       1.0  0.69990  0.39750  0.45700  1.0000 0.6650419365
C   C50       1.0  0.35760  0.38030  0.65330  1.0000 0.5202073585
C   C51       1.0  0.80530  0.39950  0.40950  1.0000 -0.3183775116
C   C52       1.0  0.19430  0.52810  0.40270  1.0000 0.619882984
C   C53       1.0  0.28720  0.35520  0.70500  1.0000 0.0526787107
C   C54       1.0  0.05130  0.48070  0.38280  1.0000 -0.3123429884
C   C55       1.0  0.95120  0.45520  0.42820  1.0000 -0.1090500402
C   C56       1.0  0.17200  0.30790  0.72180  1.0000 -0.1628275551
C   C57       1.0  0.30010  0.60250  0.95700  1.0000 0.6650419365
C   C58       1.0  0.64240  0.61970  0.15330  1.0000 0.5202073585
C   C59       1.0  0.19470  0.60050  0.90950  1.0000 -0.3183775116
C   C60       1.0  0.80570  0.47190  0.90270  1.0000 0.619882984
C   C61       1.0  0.71280  0.64480  0.20500  1.0000 0.0526787107
C   C62       1.0  0.94870  0.51930  0.88280  1.0000 -0.3123429884
C   C63       1.0  0.04880  0.54480  0.92820  1.0000 -0.1090500402
C   C64       1.0  0.82800  0.69210  0.22180  1.0000 -0.1628275551
O   O1        1.0  0.11050  0.03430  0.46520  1.0000 -0.6977611054
O   O2        1.0  0.20860  0.16780  0.49040  1.0000 -0.5958110759
O   O3        1.0  0.79160  0.14120  0.60920  1.0000 -0.617523158
O   O4        1.0  0.71100  0.88390  0.40140  1.0000 -0.5908441295
O   O5        1.0  0.80030  0.02330  0.42200  1.0000 -0.6348749865
O   O6        1.0  0.98610  0.07940  0.65300  1.0000 -0.5736986865
O   O7        1.0  0.88950  0.96570  0.96520  1.0000 -0.6977611054
O   O8        1.0  0.79140  0.83220  0.99040  1.0000 -0.5958110759
O   O9        1.0  0.20840  0.85880  0.10920  1.0000 -0.617523158
O   O10       1.0  0.28900  0.11610  0.90140  1.0000 -0.5908441295
O   O11       1.0  0.19970  0.97670  0.92200  1.0000 -0.6356001367
O   O12       1.0  0.01390  0.92060  0.15300  1.0000 -0.5736986865
O   O13       1.0  0.88950  0.96570  0.53480  1.0000 -0.6977611054
O   O14       1.0  0.79140  0.83220  0.50960  1.0000 -0.5958110759
O   O15       1.0  0.20840  0.85880  0.39080  1.0000 -0.617523158
O   O16       1.0  0.28900  0.11610  0.59860  1.0000 -0.5908441295
O   O17       1.0  0.19970  0.97670  0.57800  1.0000 -0.6356001367
O   O18       1.0  0.01390  0.92060  0.34700  1.0000 -0.5736986865
O   O19       1.0  0.11050  0.03430  0.03480  1.0000 -0.6977611054
O   O20       1.0  0.20860  0.16780  0.00960  1.0000 -0.5958110759
O   O21       1.0  0.79160  0.14120  0.89080  1.0000 -0.617523158
O   O22       1.0  0.71100  0.88390  0.09860  1.0000 -0.5908441295
O   O23       1.0  0.80030  0.02330  0.07800  1.0000 -0.6348749865
O   O24       1.0  0.98610  0.07940  0.84700  1.0000 -0.5736986865
O   O25       1.0  0.86890  0.11420  0.75000  1.0000 -0.0643299093
O   O26       1.0  0.13110  0.88580  0.25000  1.0000 -0.0659787507
O   O27       1.0  0.38950  0.53430  0.53480  1.0000 -0.6977611054
O   O28       1.0  0.29140  0.66780  0.50960  1.0000 -0.5958110759
O   O29       1.0  0.70840  0.64120  0.39080  1.0000 -0.617523158
O   O30       1.0  0.78900  0.38390  0.59860  1.0000 -0.5908441295
O   O31       1.0  0.69970  0.52330  0.57800  1.0000 -0.6348749865
O   O32       1.0  0.51390  0.57940  0.34700  1.0000 -0.5736986865
O   O33       1.0  0.61050  0.46570  0.03480  1.0000 -0.6977611054
O   O34       1.0  0.70860  0.33220  0.00960  1.0000 -0.5908441295
O   O35       1.0  0.29160  0.35880  0.89080  1.0000 -0.617523158
O   O36       1.0  0.21100  0.61610  0.09860  1.0000 -0.5908441295
O   O37       1.0  0.30030  0.47670  0.07800  1.0000 -0.6356001367
O   O38       1.0  0.48610  0.42060  0.84700  1.0000 -0.5736986865
O   O39       1.0  0.61050  0.46570  0.46520  1.0000 -0.6977611054
O   O40       1.0  0.70860  0.33220  0.49040  1.0000 -0.5908441295
O   O41       1.0  0.29160  0.35880  0.60920  1.0000 -0.617523158
O   O42       1.0  0.21100  0.61610  0.40140  1.0000 -0.5908441295
O   O43       1.0  0.30030  0.47670  0.42200  1.0000 -0.6356001367
O   O44       1.0  0.48610  0.42060  0.65300  1.0000 -0.5736986865
O   O45       1.0  0.38950  0.53430  0.96520  1.0000 -0.6977611054
O   O46       1.0  0.29140  0.66780  0.99040  1.0000 -0.5958110759
O   O47       1.0  0.70840  0.64120  0.10920  1.0000 -0.617523158
O   O48       1.0  0.78900  0.38390  0.90140  1.0000 -0.5908441295
O   O49       1.0  0.69970  0.52330  0.92200  1.0000 -0.6348749865
O   O50       1.0  0.51390  0.57940  0.15300  1.0000 -0.5736986865
O   O51       1.0  0.63110  0.61420  0.25000  1.0000 -0.0659787507
O   O52       1.0  0.36890  0.38580  0.75000  1.0000 -0.0643299093
