# DDEC6 charges by PACMAN v1.1 (https://github.com/mtap-research/PACMAN-charge/)
data_2019[Co][rtl]3[ASR]2
_chemical_formula_sum              "Co2 H28 C44 N24 O8"
_cell_length_a       10.6493
_cell_length_b       14.9679
_cell_length_c       14.4159
_cell_angle_alpha    90
_cell_angle_beta     121.411
_cell_angle_gamma    90

_symmetry_space_group_name_H-M    "P 1"
_symmetry_Int_Tables_number       1

loop_
  _symmetry_equiv_pos_as_xyz
  'x, y, z'

loop_
  _atom_site_type_symbol
  _atom_site_label
  _atom_site_symmetry_multiplicity
  _atom_site_fract_x
  _atom_site_fract_y
  _atom_site_fract_z
  _atom_site_occupancy
  _atom_site_charge
Co  Co1       1.0  0.00000  0.50000  0.00000  1.0000 0.7844279587
Co  Co2       1.0  0.00000  0.00000  0.50000  1.0000 0.7844279587
H   H1        1.0  0.02250  0.78020  0.50040  1.0000 0.1198332864
H   H2        1.0  0.34610  0.94260  0.58010  1.0000 0.1198332864
H   H3        1.0  0.56430  0.88640  0.58960  1.0000 0.1313479517
H   H4        1.0  0.88020  0.71000  0.78000  1.0000 0.1313479517
H   H5        1.0  0.45840  0.65780  0.67970  1.0000 0.138407889
H   H6        1.0  0.73570  0.91570  0.52680  1.0000 0.1198332864
H   H7        1.0  0.14720  0.92210  0.75090  1.0000 0.1198332864
H   H8        1.0  0.97750  0.28020  0.99960  1.0000 0.1198332864
H   H9        1.0  0.65390  0.44260  0.91990  1.0000 0.1198332864
H   H10       1.0  0.43570  0.38640  0.91040  1.0000 0.1313479517
H   H11       1.0  0.11980  0.21000  0.72000  1.0000 0.1313479517
H   H12       1.0  0.54160  0.15780  0.82030  1.0000 0.138407889
H   H13       1.0  0.26430  0.41570  0.97320  1.0000 0.1198332864
H   H14       1.0  0.85280  0.42210  0.74910  1.0000 0.1198332864
H   H15       1.0  0.97750  0.21980  0.49960  1.0000 0.1198332864
H   H16       1.0  0.65390  0.05740  0.41990  1.0000 0.1198332864
H   H17       1.0  0.43570  0.11360  0.41040  1.0000 0.1313479517
H   H18       1.0  0.11980  0.29000  0.22000  1.0000 0.1313479517
H   H19       1.0  0.54160  0.34220  0.32030  1.0000 0.138407889
H   H20       1.0  0.26430  0.08430  0.47320  1.0000 0.1198332864
H   H21       1.0  0.85280  0.07790  0.24910  1.0000 0.1198332864
H   H22       1.0  0.02250  0.71980  0.00040  1.0000 0.1198332864
H   H23       1.0  0.34610  0.55740  0.08010  1.0000 0.1198332864
H   H24       1.0  0.56430  0.61360  0.08960  1.0000 0.1313479517
H   H25       1.0  0.88020  0.79000  0.28000  1.0000 0.1313479517
H   H26       1.0  0.45840  0.84220  0.17970  1.0000 0.138407889
H   H27       1.0  0.73570  0.58430  0.02680  1.0000 0.1198332864
H   H28       1.0  0.14720  0.57790  0.25090  1.0000 0.1198332864
C   C1        1.0  0.11680  0.80130  0.52460  1.0000 0.1514579162
C   C2        1.0  0.28990  0.89140  0.56690  1.0000 0.107039164
C   C3        1.0  0.48980  0.77770  0.63090  1.0000 0.159598279
C   C4        1.0  0.59230  0.83270  0.62750  1.0000 -0.2679948926
C   C5        1.0  0.73700  0.80520  0.68220  1.0000 0.1514579162
C   C6        1.0  0.78130  0.72570  0.74010  1.0000 -0.1807670899
C   C7        1.0  0.67570  0.67050  0.73730  1.0000 0.014574201
C   C8        1.0  0.52930  0.69560  0.68220  1.0000 -0.1718559571
C   C9        1.0  0.82520  0.90660  0.59120  1.0000 0.0776831631
C   C10       1.0  0.04740  0.90870  0.71400  1.0000 0.159598279
C   C11       1.0  0.72220  0.58080  0.79560  1.0000 0.5594503462
C   C12       1.0  0.88320  0.30130  0.97540  1.0000 0.1514579162
C   C13       1.0  0.71010  0.39140  0.93310  1.0000 0.107039164
C   C14       1.0  0.51020  0.27770  0.86910  1.0000 0.159598279
C   C15       1.0  0.40770  0.33270  0.87250  1.0000 -0.2679948926
C   C16       1.0  0.26300  0.30520  0.81780  1.0000 0.1514579162
C   C17       1.0  0.21870  0.22570  0.75990  1.0000 -0.1807670899
C   C18       1.0  0.32430  0.17050  0.76270  1.0000 0.0159862071
C   C19       1.0  0.47070  0.19560  0.81780  1.0000 -0.1718559571
C   C20       1.0  0.17480  0.40660  0.90880  1.0000 0.0776831631
C   C21       1.0  0.95260  0.40870  0.78600  1.0000 0.159598279
C   C22       1.0  0.27780  0.08080  0.70440  1.0000 0.5594503462
C   C23       1.0  0.88320  0.19870  0.47540  1.0000 0.1514579162
C   C24       1.0  0.71010  0.10860  0.43310  1.0000 0.107039164
C   C25       1.0  0.51020  0.22230  0.36910  1.0000 0.159598279
C   C26       1.0  0.40770  0.16730  0.37250  1.0000 -0.2679948926
C   C27       1.0  0.26300  0.19480  0.31780  1.0000 0.1514579162
C   C28       1.0  0.21870  0.27430  0.25990  1.0000 -0.1807670899
C   C29       1.0  0.32430  0.32950  0.26270  1.0000 0.0159862071
C   C30       1.0  0.47070  0.30440  0.31780  1.0000 -0.1718559571
C   C31       1.0  0.17480  0.09340  0.40880  1.0000 0.0776831631
C   C32       1.0  0.95260  0.09130  0.28600  1.0000 0.159598279
C   C33       1.0  0.27780  0.41920  0.20440  1.0000 0.5594503462
C   C34       1.0  0.11680  0.69870  0.02460  1.0000 0.1514579162
C   C35       1.0  0.28990  0.60860  0.06690  1.0000 0.107039164
C   C36       1.0  0.48980  0.72230  0.13090  1.0000 0.159598279
C   C37       1.0  0.59230  0.66730  0.12750  1.0000 -0.2679948926
C   C38       1.0  0.73700  0.69480  0.18220  1.0000 0.1514579162
C   C39       1.0  0.78130  0.77430  0.24010  1.0000 -0.1807670899
C   C40       1.0  0.67570  0.82950  0.23730  1.0000 0.0159862071
C   C41       1.0  0.52930  0.80440  0.18220  1.0000 -0.1718559571
C   C42       1.0  0.82520  0.59340  0.09120  1.0000 0.0776831631
C   C43       1.0  0.04740  0.59130  0.21400  1.0000 0.159598279
C   C44       1.0  0.72220  0.91920  0.29560  1.0000 0.5594503462
N   N1        1.0  0.34190  0.80740  0.58260  1.0000 0.1198332864
N   N2        1.0  0.22980  0.74816  0.55600  1.0000 -0.2480932724
N   N3        1.0  0.14900  0.89062  0.53040  1.0000 -0.3091451794
N   N4        1.0  0.84340  0.85826  0.67540  1.0000 0.1198332864
N   N5        1.0  0.98860  0.85830  0.75650  1.0000 -0.2480932724
N   N6        1.0  0.95190  0.93957  0.61260  1.0000 -0.3028598175
N   N7        1.0  0.65810  0.30740  0.91740  1.0000 0.1198332864
N   N8        1.0  0.77020  0.24816  0.94400  1.0000 -0.2480932724
N   N9        1.0  0.85100  0.39062  0.96960  1.0000 -0.3091451794
N   N10       1.0  0.15660  0.35826  0.82460  1.0000 0.1198332864
N   N11       1.0  0.01140  0.35830  0.74350  1.0000 -0.2480932724
N   N12       1.0  0.04810  0.43957  0.88740  1.0000 -0.3028598175
N   N13       1.0  0.65810  0.19260  0.41740  1.0000 0.1198332864
N   N14       1.0  0.77020  0.25184  0.44400  1.0000 -0.2480932724
N   N15       1.0  0.85100  0.10938  0.46960  1.0000 -0.3091451794
N   N16       1.0  0.15660  0.14174  0.32460  1.0000 0.1198332864
N   N17       1.0  0.01140  0.14170  0.24350  1.0000 -0.2480932724
N   N18       1.0  0.04810  0.06043  0.38740  1.0000 -0.3028598175
N   N19       1.0  0.34190  0.69260  0.08260  1.0000 0.1198332864
N   N20       1.0  0.22980  0.75184  0.05600  1.0000 -0.2480932724
N   N21       1.0  0.14900  0.60938  0.03040  1.0000 -0.3091451794
N   N22       1.0  0.84340  0.64174  0.17540  1.0000 0.1198332864
N   N23       1.0  0.98860  0.64170  0.25650  1.0000 -0.2480932724
N   N24       1.0  0.95190  0.56043  0.11260  1.0000 -0.3028598175
O   O1        1.0  0.84260  0.58136  0.88360  1.0000 -0.5816236953
O   O2        1.0  0.64000  0.51539  0.74940  1.0000 -0.5816236953
O   O3        1.0  0.15740  0.08136  0.61640  1.0000 -0.5816236953
O   O4        1.0  0.36000  0.01539  0.75060  1.0000 -0.5816236953
O   O5        1.0  0.15740  0.41864  0.11640  1.0000 -0.5859814704
O   O6        1.0  0.36000  0.48461  0.25060  1.0000 -0.5816236953
O   O7        1.0  0.84260  0.91864  0.38360  1.0000 -0.5859814704
O   O8        1.0  0.64000  0.98461  0.24940  1.0000 -0.5816236953
