# DDEC6 charges by PACMAN v1.1 (https://github.com/mtap-research/PACMAN-charge/)
data_2019[Cu][hcb]2[ASR]1
_chemical_formula_sum              "Cu4 H40 C52 N16 O8"
_cell_length_a       11.234
_cell_length_b       13.2231
_cell_length_c       17.4945
_cell_angle_alpha    90
_cell_angle_beta     112.22
_cell_angle_gamma    90

_symmetry_space_group_name_H-M    "P 1"
_symmetry_Int_Tables_number       1

loop_
  _symmetry_equiv_pos_as_xyz
  'x, y, z'

loop_
  _atom_site_type_symbol
  _atom_site_label
  _atom_site_symmetry_multiplicity
  _atom_site_fract_x
  _atom_site_fract_y
  _atom_site_fract_z
  _atom_site_occupancy
  _atom_site_charge
Cu  Cu1       1.0  0.36612  0.08310  0.85975  1.0000 0.6317661384
Cu  Cu2       1.0  0.63388  0.58310  0.64025  1.0000 0.635788677
Cu  Cu3       1.0  0.63388  0.91690  0.14025  1.0000 0.6317661384
Cu  Cu4       1.0  0.36612  0.41690  0.35975  1.0000 0.635788677
H   H1        1.0  0.11770  0.83400  0.51360  1.0000 0.1213578471
H   H2        1.0  0.21430  0.12790  0.52300  1.0000 0.1213578471
H   H3        1.0  0.12090  0.84470  0.63630  1.0000 0.1213578471
H   H4        1.0  0.20220  0.89500  0.78390  1.0000 0.1277289575
H   H5        1.0  0.05870  0.13150  0.24440  1.0000 0.1213578471
H   H6        1.0  0.08160  0.83120  0.37370  1.0000 0.0993100635
H   H7        1.0  0.10530  0.97520  0.30590  1.0000 0.1213578471
H   H8        1.0  0.14620  0.29100  0.21710  1.0000 0.1104068856
H   H9        1.0  0.31860  0.23500  0.45400  1.0000 0.1277289575
H   H10       1.0  0.29450  0.11050  0.66200  1.0000 0.1104068856
H   H11       1.0  0.88230  0.33400  0.98640  1.0000 0.1213578471
H   H12       1.0  0.78570  0.62790  0.97700  1.0000 0.1213578471
H   H13       1.0  0.87910  0.34470  0.86370  1.0000 0.1213578471
H   H14       1.0  0.79780  0.39500  0.71610  1.0000 0.1277289575
H   H15       1.0  0.94130  0.63150  0.25560  1.0000 0.1213578471
H   H16       1.0  0.91840  0.33120  0.12630  1.0000 0.0993100635
H   H17       1.0  0.89470  0.47520  0.19410  1.0000 0.1213578471
H   H18       1.0  0.85380  0.79100  0.28290  1.0000 0.1104068856
H   H19       1.0  0.68140  0.73500  0.04600  1.0000 0.1277289575
H   H20       1.0  0.70550  0.61050  0.83800  1.0000 0.1104068856
H   H21       1.0  0.88230  0.16600  0.48640  1.0000 0.1213578471
H   H22       1.0  0.78570  0.87210  0.47700  1.0000 0.1213578471
H   H23       1.0  0.87910  0.15530  0.36370  1.0000 0.1213578471
H   H24       1.0  0.79780  0.10500  0.21610  1.0000 0.1277289575
H   H25       1.0  0.94130  0.86850  0.75560  1.0000 0.1213578471
H   H26       1.0  0.91840  0.16880  0.62630  1.0000 0.0993100635
H   H27       1.0  0.89470  0.02480  0.69410  1.0000 0.1213578471
H   H28       1.0  0.85380  0.70900  0.78290  1.0000 0.1104068856
H   H29       1.0  0.68140  0.76500  0.54600  1.0000 0.1277289575
H   H30       1.0  0.70550  0.88950  0.33800  1.0000 0.1104068856
H   H31       1.0  0.11770  0.66600  0.01360  1.0000 0.1213578471
H   H32       1.0  0.21430  0.37210  0.02300  1.0000 0.1213578471
H   H33       1.0  0.12090  0.65530  0.13630  1.0000 0.1213578471
H   H34       1.0  0.20220  0.60500  0.28390  1.0000 0.1277289575
H   H35       1.0  0.05870  0.36850  0.74440  1.0000 0.1213578471
H   H36       1.0  0.08160  0.66880  0.87370  1.0000 0.0993100635
H   H37       1.0  0.10530  0.52480  0.80590  1.0000 0.1213578471
H   H38       1.0  0.14620  0.20900  0.71710  1.0000 0.1104068856
H   H39       1.0  0.31860  0.26500  0.95400  1.0000 0.1277289575
H   H40       1.0  0.29450  0.38950  0.16200  1.0000 0.1104068856
C   C1        1.0  0.13030  0.89210  0.48770  1.0000 -0.2315024933
C   C2        1.0  0.16180  0.06560  0.40740  1.0000 0.1753277124
C   C3        1.0  0.18740  0.06830  0.49320  1.0000 -0.2979284173
C   C4        1.0  0.16560  0.90350  0.65910  1.0000 -0.1263322156
C   C5        1.0  0.21200  0.93150  0.74120  1.0000 -0.032897603
C   C6        1.0  0.49640  0.94900  0.97840  1.0000 0.4578309336
C   C7        1.0  0.12100  0.17130  0.28290  1.0000 -0.1219647548
C   C8        1.0  0.10730  0.89120  0.40310  1.0000 -0.0845196324
C   C9        1.0  0.12180  0.97690  0.36210  1.0000 -0.2226382614
C   C10       1.0  0.17050  0.25880  0.26810  1.0000 -0.0626179503
C   C11       1.0  0.26580  0.22900  0.39850  1.0000 0.0993100635
C   C12       1.0  0.26280  0.05020  0.67400  1.0000 0.0277728203
C   C13       1.0  0.17190  0.98080  0.53200  1.0000 0.1753277124
C   C14       1.0  0.86970  0.39210  0.01230  1.0000 -0.2315024933
C   C15       1.0  0.83820  0.56560  0.09260  1.0000 0.1740981022
C   C16       1.0  0.81260  0.56830  0.00680  1.0000 -0.2979284173
C   C17       1.0  0.83440  0.40350  0.84090  1.0000 -0.1263322156
C   C18       1.0  0.78800  0.43150  0.75880  1.0000 -0.032897603
C   C19       1.0  0.50360  0.44900  0.52160  1.0000 0.4578309336
C   C20       1.0  0.87900  0.67130  0.21710  1.0000 -0.1219647548
C   C21       1.0  0.89270  0.39120  0.09690  1.0000 -0.0845196324
C   C22       1.0  0.87820  0.47690  0.13790  1.0000 -0.2226382614
C   C23       1.0  0.82950  0.75880  0.23190  1.0000 -0.0626179503
C   C24       1.0  0.73420  0.72900  0.10150  1.0000 0.0993100635
C   C25       1.0  0.73720  0.55020  0.82600  1.0000 0.0277728203
C   C26       1.0  0.82810  0.48080  0.96800  1.0000 0.1740981022
C   C27       1.0  0.86970  0.10790  0.51230  1.0000 -0.2315024933
C   C28       1.0  0.83820  0.93440  0.59260  1.0000 0.1740981022
C   C29       1.0  0.81260  0.93170  0.50680  1.0000 -0.2979284173
C   C30       1.0  0.83440  0.09650  0.34090  1.0000 -0.1219647548
C   C31       1.0  0.78800  0.06850  0.25880  1.0000 -0.032897603
C   C32       1.0  0.50360  0.05100  0.02160  1.0000 0.4578309336
C   C33       1.0  0.87900  0.82870  0.71710  1.0000 -0.1219647548
C   C34       1.0  0.89270  0.10880  0.59690  1.0000 -0.0845196324
C   C35       1.0  0.87820  0.02310  0.63790  1.0000 -0.2226382614
C   C36       1.0  0.82950  0.74120  0.73190  1.0000 -0.0626179503
C   C37       1.0  0.73420  0.77100  0.60150  1.0000 0.0993100635
C   C38       1.0  0.73720  0.94980  0.32600  1.0000 0.0277728203
C   C39       1.0  0.82810  0.01920  0.46800  1.0000 0.1740981022
C   C40       1.0  0.13030  0.60790  0.98770  1.0000 -0.2315024933
C   C41       1.0  0.16180  0.43440  0.90740  1.0000 0.1753277124
C   C42       1.0  0.18740  0.43170  0.99320  1.0000 -0.2979284173
C   C43       1.0  0.16560  0.59650  0.15910  1.0000 -0.1263322156
C   C44       1.0  0.21200  0.56850  0.24120  1.0000 -0.032897603
C   C45       1.0  0.49640  0.55100  0.47840  1.0000 0.4578309336
C   C46       1.0  0.12100  0.32870  0.78290  1.0000 -0.1219647548
C   C47       1.0  0.10730  0.60880  0.90310  1.0000 -0.0845196324
C   C48       1.0  0.12180  0.52310  0.86210  1.0000 -0.2315024933
C   C49       1.0  0.17050  0.24120  0.76810  1.0000 -0.0626179503
C   C50       1.0  0.26580  0.27100  0.89850  1.0000 0.0993100635
C   C51       1.0  0.26280  0.44980  0.17400  1.0000 0.0277728203
C   C52       1.0  0.17190  0.51920  0.03200  1.0000 0.1753277124
N   N1        1.0  0.19890  0.98020  0.61780  1.0000 0.0071550857
N   N2        1.0  0.26350  0.29280  0.34140  1.0000 -0.2906318402
N   N3        1.0  0.27430  0.02120  0.74900  1.0000 -0.2906318402
N   N4        1.0  0.18100  0.15260  0.36640  1.0000 0.0030595523
N   N5        1.0  0.80110  0.48020  0.88220  1.0000 0.0071550857
N   N6        1.0  0.73650  0.79280  0.15860  1.0000 -0.2906318402
N   N7        1.0  0.72570  0.52120  0.75100  1.0000 -0.2906318402
N   N8        1.0  0.81900  0.65260  0.13360  1.0000 0.0030595523
N   N9        1.0  0.80110  0.01980  0.38220  1.0000 0.0071550857
N   N10       1.0  0.73650  0.70720  0.65860  1.0000 -0.2906318402
N   N11       1.0  0.72570  0.97880  0.25100  1.0000 -0.2906318402
N   N12       1.0  0.81900  0.84740  0.63360  1.0000 0.0030595523
N   N13       1.0  0.19890  0.51980  0.11780  1.0000 0.0071550857
N   N14       1.0  0.26350  0.20720  0.84140  1.0000 -0.2906318402
N   N15       1.0  0.27430  0.47880  0.24900  1.0000 -0.2906318402
N   N16       1.0  0.18100  0.34740  0.86640  1.0000 0.0030595523
O   O1        1.0  0.54150  0.87380  0.02400  1.0000 -0.5087808242
O   O2        1.0  0.44230  0.94900  0.90150  1.0000 -0.4891326374
O   O3        1.0  0.45850  0.37380  0.47600  1.0000 -0.5087808242
O   O4        1.0  0.55770  0.44900  0.59850  1.0000 -0.4891326374
O   O5        1.0  0.45850  0.12620  0.97600  1.0000 -0.5087808242
O   O6        1.0  0.55770  0.05100  0.09850  1.0000 -0.4891326374
O   O7        1.0  0.54150  0.62620  0.52400  1.0000 -0.5087808242
O   O8        1.0  0.44230  0.55100  0.40150  1.0000 -0.4891326374
