# DDEC6 charges by PACMAN v1.1 (https://github.com/mtap-research/PACMAN-charge/)
data_2019[Zr][zll]3[ASR]1
_chemical_formula_sum              "Zr6 H36 C72 N4 O28"
_cell_length_a       21.3988
_cell_length_b       17.0414
_cell_length_c       16.55
_cell_angle_alpha    79.1267
_cell_angle_beta     51.4509
_cell_angle_gamma    49.4223

_symmetry_space_group_name_H-M    "P 1"
_symmetry_Int_Tables_number       1

loop_
  _symmetry_equiv_pos_as_xyz
  'x, y, z'

loop_
  _atom_site_type_symbol
  _atom_site_label
  _atom_site_symmetry_multiplicity
  _atom_site_fract_x
  _atom_site_fract_y
  _atom_site_fract_z
  _atom_site_occupancy
  _atom_site_charge
Zr  Zr1       1.0  0.91666  0.08334  0.91666  1.0000 2.3986848643
Zr  Zr2       1.0  0.08334  0.91666  0.08334  1.0000 2.3986848643
Zr  Zr3       1.0  0.82241  0.06415  0.17759  1.0000 2.4320432593
Zr  Zr4       1.0  0.06415  0.82241  0.93585  1.0000 2.4320432593
Zr  Zr5       1.0  0.17759  0.93585  0.82241  1.0000 2.4320432593
Zr  Zr6       1.0  0.93585  0.17759  0.06415  1.0000 2.4320432593
H   H1        1.0  0.61950  0.20890  0.99390  1.0000 0.1271556054
H   H2        1.0  0.47250  0.24490  0.04290  1.0000 0.1166944703
H   H3        1.0  0.35560  0.25800  0.35280  1.0000 0.1271556054
H   H4        1.0  0.49970  0.22590  0.30610  1.0000 0.1271556054
H   H5        1.0  0.20890  0.61950  0.17770  1.0000 0.1271556054
H   H6        1.0  0.24490  0.47250  0.23970  1.0000 0.1166944703
H   H7        1.0  0.25800  0.35560  0.03360  1.0000 0.1271556054
H   H8        1.0  0.22590  0.49970  0.96830  1.0000 0.1271556054
H   H9        1.0  0.99390  0.17770  0.61950  1.0000 0.1271556054
H   H10       1.0  0.04290  0.23970  0.47250  1.0000 0.1166944703
H   H11       1.0  0.35280  0.03360  0.35560  1.0000 0.1271556054
H   H12       1.0  0.30610  0.96830  0.49970  1.0000 0.1271556054
H   H13       1.0  0.17770  0.99390  0.20890  1.0000 0.1271556054
H   H14       1.0  0.23970  0.04290  0.24490  1.0000 0.1166944703
H   H15       1.0  0.03360  0.35280  0.25800  1.0000 0.1271556054
H   H16       1.0  0.96830  0.30610  0.22590  1.0000 0.1271556054
H   H17       1.0  0.38050  0.79110  0.00610  1.0000 0.1271556054
H   H18       1.0  0.52750  0.75510  0.95710  1.0000 0.1166944703
H   H19       1.0  0.64440  0.74200  0.64720  1.0000 0.1271556054
H   H20       1.0  0.50030  0.77410  0.69390  1.0000 0.1271556054
H   H21       1.0  0.79110  0.38050  0.82230  1.0000 0.1271556054
H   H22       1.0  0.75510  0.52750  0.76030  1.0000 0.1166944703
H   H23       1.0  0.74200  0.64440  0.96640  1.0000 0.1271556054
H   H24       1.0  0.77410  0.50030  0.03170  1.0000 0.1271556054
H   H25       1.0  0.00610  0.82230  0.38050  1.0000 0.1271556054
H   H26       1.0  0.95710  0.76030  0.52750  1.0000 0.1166944703
H   H27       1.0  0.64720  0.96640  0.64440  1.0000 0.1271556054
H   H28       1.0  0.69390  0.03170  0.50030  1.0000 0.1271556054
H   H29       1.0  0.82230  0.00610  0.79110  1.0000 0.1271556054
H   H30       1.0  0.76030  0.95710  0.75510  1.0000 0.1166944703
H   H31       1.0  0.96640  0.64720  0.74200  1.0000 0.1271556054
H   H32       1.0  0.03170  0.69390  0.77410  1.0000 0.1271556054
H   H33       1.0  0.64710  0.48370  0.35290  1.0000 0.1271556054
H   H34       1.0  0.48370  0.64710  0.51630  1.0000 0.1271556054
H   H35       1.0  0.35290  0.51630  0.64710  1.0000 0.1271556054
H   H36       1.0  0.51630  0.35290  0.48370  1.0000 0.1271556054
C   C1        1.0  0.67421  0.17799  0.11221  1.0000 0.6330050429
C   C2        1.0  0.57357  0.21237  0.14583  1.0000 -0.0264904969
C   C3        1.0  0.56584  0.21860  0.06680  1.0000 -0.0911369796
C   C4        1.0  0.47921  0.23913  0.09587  1.0000 -0.1666702057
C   C5        1.0  0.40124  0.25166  0.20214  1.0000 0.0505956778
C   C6        1.0  0.40965  0.24741  0.27959  1.0000 -0.1363550915
C   C7        1.0  0.49497  0.22821  0.25219  1.0000 -0.0977809808
C   C8        1.0  0.31581  0.25947  0.23153  1.0000 0.1077116098
C   C9        1.0  0.17799  0.67421  0.03559  1.0000 0.6330050429
C   C10       1.0  0.21237  0.57357  0.06823  1.0000 -0.0264904969
C   C11       1.0  0.21860  0.56584  0.14876  1.0000 -0.0911369796
C   C12       1.0  0.23913  0.47921  0.18579  1.0000 -0.1666702057
C   C13       1.0  0.25166  0.40124  0.14496  1.0000 0.0505956778
C   C14       1.0  0.24741  0.40965  0.06335  1.0000 -0.1363550915
C   C15       1.0  0.22821  0.49497  0.02463  1.0000 -0.0977809808
C   C16       1.0  0.25947  0.31581  0.19319  1.0000 0.1077116098
C   C17       1.0  0.11221  0.03559  0.67421  1.0000 0.6330050429
C   C18       1.0  0.14583  0.06823  0.57357  1.0000 -0.0246556854
C   C19       1.0  0.06680  0.14876  0.56584  1.0000 -0.0911369796
C   C20       1.0  0.09587  0.18579  0.47921  1.0000 -0.1666702057
C   C21       1.0  0.20214  0.14496  0.40124  1.0000 0.0505956778
C   C22       1.0  0.27959  0.06335  0.40965  1.0000 -0.1363550915
C   C23       1.0  0.25219  0.02463  0.49497  1.0000 -0.0977809808
C   C24       1.0  0.23153  0.19319  0.31581  1.0000 0.1077116098
C   C25       1.0  0.03559  0.11221  0.17799  1.0000 0.6330050429
C   C26       1.0  0.06823  0.14583  0.21237  1.0000 -0.0264904969
C   C27       1.0  0.14876  0.06680  0.21860  1.0000 -0.0911369796
C   C28       1.0  0.18579  0.09587  0.23913  1.0000 -0.1666702057
C   C29       1.0  0.14496  0.20214  0.25166  1.0000 0.0505956778
C   C30       1.0  0.06335  0.27959  0.24741  1.0000 -0.1363550915
C   C31       1.0  0.02463  0.25219  0.22821  1.0000 -0.0977809808
C   C32       1.0  0.19319  0.23153  0.25947  1.0000 0.1077116098
C   C33       1.0  0.32579  0.82201  0.88779  1.0000 0.6330050429
C   C34       1.0  0.42643  0.78763  0.85417  1.0000 -0.0264904969
C   C35       1.0  0.43416  0.78140  0.93320  1.0000 -0.0911369796
C   C36       1.0  0.52079  0.76087  0.90413  1.0000 -0.1666702057
C   C37       1.0  0.59876  0.74834  0.79786  1.0000 0.0505956778
C   C38       1.0  0.59035  0.75259  0.72041  1.0000 -0.1363550915
C   C39       1.0  0.50503  0.77179  0.74781  1.0000 -0.0977809808
C   C40       1.0  0.68419  0.74053  0.76847  1.0000 0.1077116098
C   C41       1.0  0.82201  0.32579  0.96441  1.0000 0.6330050429
C   C42       1.0  0.78763  0.42643  0.93177  1.0000 -0.0264904969
C   C43       1.0  0.78140  0.43416  0.85124  1.0000 -0.0911369796
C   C44       1.0  0.76087  0.52079  0.81421  1.0000 -0.1666702057
C   C45       1.0  0.74834  0.59876  0.85504  1.0000 0.0505956778
C   C46       1.0  0.75259  0.59035  0.93665  1.0000 -0.1363550915
C   C47       1.0  0.77179  0.50503  0.97537  1.0000 -0.0977809808
C   C48       1.0  0.74053  0.68419  0.80681  1.0000 0.1077116098
C   C49       1.0  0.88779  0.96441  0.32579  1.0000 0.6330050429
C   C50       1.0  0.85417  0.93177  0.42643  1.0000 -0.0264904969
C   C51       1.0  0.93320  0.85124  0.43416  1.0000 -0.0911369796
C   C52       1.0  0.90413  0.81421  0.52079  1.0000 -0.1666702057
C   C53       1.0  0.79786  0.85504  0.59876  1.0000 0.0505956778
C   C54       1.0  0.72041  0.93665  0.59035  1.0000 -0.1363550915
C   C55       1.0  0.74781  0.97537  0.50503  1.0000 -0.0977809808
C   C56       1.0  0.76847  0.80681  0.68419  1.0000 0.1077116098
C   C57       1.0  0.96441  0.88779  0.82201  1.0000 0.6330050429
C   C58       1.0  0.93177  0.85417  0.78763  1.0000 -0.0264904969
C   C59       1.0  0.85124  0.93320  0.78140  1.0000 -0.0911369796
C   C60       1.0  0.81421  0.90413  0.76087  1.0000 -0.1666702057
C   C61       1.0  0.85504  0.79786  0.74834  1.0000 0.0505956778
C   C62       1.0  0.93665  0.72041  0.75259  1.0000 -0.1363550915
C   C63       1.0  0.97537  0.74781  0.77179  1.0000 -0.0977809808
C   C64       1.0  0.80681  0.76847  0.74053  1.0000 0.1077116098
C   C65       1.0  0.58760  0.49000  0.41240  1.0000 -0.0977809808
C   C66       1.0  0.49000  0.58760  0.51000  1.0000 -0.0977809808
C   C67       1.0  0.41240  0.51000  0.58760  1.0000 -0.0977809808
C   C68       1.0  0.51000  0.41240  0.49000  1.0000 -0.0977809808
C   C69       1.0  0.69800  0.30200  0.30200  1.0000 0.6383014371
C   C70       1.0  0.59470  0.40530  0.40530  1.0000 -0.0264904969
C   C71       1.0  0.30200  0.69800  0.69800  1.0000 0.6383014371
C   C72       1.0  0.40530  0.59470  0.59470  1.0000 -0.0264904969
N   N1        1.0  0.29587  0.20413  0.29587  1.0000 -0.2728233983
N   N2        1.0  0.20413  0.29587  0.20413  1.0000 -0.2754934678
N   N3        1.0  0.70413  0.79587  0.70413  1.0000 -0.2728233983
N   N4        1.0  0.79587  0.70413  0.79587  1.0000 -0.2728233983
O   O1        1.0  0.74215  0.16887  0.01553  1.0000 -0.5806752692
O   O2        1.0  0.68151  0.15929  0.18591  1.0000 -0.6092154781
O   O3        1.0  0.16887  0.74215  0.07345  1.0000 -0.5806752692
O   O4        1.0  0.15929  0.68151  0.97329  1.0000 -0.6092154781
O   O5        1.0  0.01553  0.07345  0.74215  1.0000 -0.5806752692
O   O6        1.0  0.18591  0.97329  0.68151  1.0000 -0.6092154781
O   O7        1.0  0.07345  0.01553  0.16887  1.0000 -0.5806752692
O   O8        1.0  0.97329  0.18591  0.15929  1.0000 -0.6092154781
O   O9        1.0  0.25785  0.83113  0.98447  1.0000 -0.5806752692
O   O10       1.0  0.31849  0.84071  0.81409  1.0000 -0.6092154781
O   O11       1.0  0.83113  0.25785  0.92655  1.0000 -0.5806752692
O   O12       1.0  0.84071  0.31849  0.02671  1.0000 -0.6092154781
O   O13       1.0  0.98447  0.92655  0.25785  1.0000 -0.5806752692
O   O14       1.0  0.81409  0.02671  0.31849  1.0000 -0.6092154781
O   O15       1.0  0.92655  0.98447  0.83113  1.0000 -0.5806752692
O   O16       1.0  0.02671  0.81409  0.84071  1.0000 -0.6092154781
O   O17       1.0  0.90035  0.98253  0.01747  1.0000 -1.1428748319
O   O18       1.0  0.98253  0.90035  0.09965  1.0000 -1.1497847587
O   O19       1.0  0.01747  0.09965  0.90035  1.0000 -1.1497847587
O   O20       1.0  0.09965  0.01747  0.98253  1.0000 -1.1497847587
O   O21       1.0  0.07470  0.92530  0.84310  1.0000 -1.1175769915
O   O22       1.0  0.92530  0.07470  0.15690  1.0000 -1.111743922
O   O23       1.0  0.84310  0.15690  0.07470  1.0000 -1.1175769915
O   O24       1.0  0.15690  0.84310  0.92530  1.0000 -1.1175769915
O   O25       1.0  0.69806  0.22786  0.30194  1.0000 -0.5917558024
O   O26       1.0  0.22786  0.69806  0.77214  1.0000 -0.5917558024
O   O27       1.0  0.30194  0.77214  0.69806  1.0000 -0.5917558024
O   O28       1.0  0.77214  0.30194  0.22786  1.0000 -0.5917558024
