# DDEC6 charges by PACMAN v1.1 (https://github.com/mtap-research/PACMAN-charge/)
data_2019[Zn][sql]2[ASR]24
_chemical_formula_sum              "Zn4 H128 C184 O8"
_cell_length_a       19.039
_cell_length_b       19.244
_cell_length_c       19.579
_cell_angle_alpha    74.73
_cell_angle_beta     71.112
_cell_angle_gamma    61.065

_symmetry_space_group_name_H-M    "P 1"
_symmetry_Int_Tables_number       1

loop_
  _symmetry_equiv_pos_as_xyz
  'x, y, z'

loop_
  _atom_site_type_symbol
  _atom_site_label
  _atom_site_symmetry_multiplicity
  _atom_site_fract_x
  _atom_site_fract_y
  _atom_site_fract_z
  _atom_site_occupancy
  _atom_site_charge
Zn  Zn1       1.0  0.57650  0.02861  0.51626  1.0000 0.5818469684
Zn  Zn2       1.0  0.55490  0.95700  0.57940  1.0000 0.5269865852
Zn  Zn3       1.0  0.42350  0.97139  0.48374  1.0000 0.5818469684
Zn  Zn4       1.0  0.44510  0.04300  0.42060  1.0000 0.5269865852
H   H1        1.0  0.67158  0.92302  0.74670  1.0000 0.1304566072
H   H2        1.0  0.74354  0.92333  0.82350  1.0000 0.1197014601
H   H3        1.0  0.79008  0.09835  0.68099  1.0000 0.1118774139
H   H4        1.0  0.72278  0.09142  0.60540  1.0000 0.1304566072
H   H5        1.0  0.75623  0.97339  0.90350  1.0000 0.1118774139
H   H6        1.0  0.89232  0.05884  0.73617  1.0000 0.1118774139
H   H7        1.0  0.72672  0.93851  0.00943  1.0000 0.1197014601
H   H8        1.0  0.77859  0.87270  0.20593  1.0000 0.1118774139
H   H9        1.0  0.97304  0.10681  0.69899  1.0000 0.1197014601
H   H10       1.0  0.15759  0.13247  0.72731  1.0000 0.1118774139
H   H11       1.0  0.62343  0.74040  0.12545  1.0000 0.1304566072
H   H12       1.0  0.48498  0.92628  0.24052  1.0000 0.1197014601
H   H13       1.0  0.76112  0.79005  0.01694  1.0000 0.138710933
H   H14       1.0  0.75827  0.71112  0.06339  1.0000 0.1304566072
H   H15       1.0  0.80570  0.74914  0.08142  1.0000 0.1304566072
H   H16       1.0  0.45728  0.80328  0.17166  1.0000 0.138710933
H   H17       1.0  0.42647  0.84267  0.24283  1.0000 0.1304566072
H   H18       1.0  0.49131  0.75275  0.24070  1.0000 0.138710933
H   H19       1.0  0.59995  0.02804  0.17514  1.0000 0.138710933
H   H20       1.0  0.62240  0.97439  0.24764  1.0000 0.1304566072
H   H21       1.0  0.53035  0.01856  0.24106  1.0000 0.1304566072
H   H22       1.0  0.20490  0.09611  0.46604  1.0000 0.1197014601
H   H23       1.0  0.03790  0.31903  0.50567  1.0000 0.138710933
H   H24       1.0  0.15514  0.99393  0.62052  1.0000 0.138710933
H   H25       1.0  0.22545  0.00964  0.62841  1.0000 0.138710933
H   H26       1.0  0.22925  0.99042  0.55395  1.0000 0.138710933
H   H27       1.0  0.12664  0.22990  0.36314  1.0000 0.1304566072
H   H28       1.0  0.20535  0.22701  0.37562  1.0000 0.1197014601
H   H29       1.0  0.12133  0.30411  0.38728  1.0000 0.1197014601
H   H30       1.0  0.92613  0.29749  0.65351  1.0000 0.1484800439
H   H31       1.0  0.97701  0.34701  0.63440  1.0000 0.138710933
H   H32       1.0  0.99096  0.27581  0.69789  1.0000 0.1304566072
H   H33       1.0  0.23023  0.19560  0.57409  1.0000 0.1304566072
H   H34       1.0  0.14646  0.28867  0.65225  1.0000 0.1197014601
H   H35       1.0  0.34349  0.25126  0.71705  1.0000 0.1197014601
H   H36       1.0  0.42561  0.15079  0.64520  1.0000 0.1304566072
H   H37       1.0  0.08418  0.30915  0.77579  1.0000 0.1197014601
H   H38       1.0  0.25977  0.37756  0.74686  1.0000 0.1118774139
H   H39       1.0  0.96158  0.33306  0.81684  1.0000 0.1197014601
H   H40       1.0  0.76633  0.39548  0.98400  1.0000 0.1197014601
H   H41       1.0  0.71526  0.43191  0.08243  1.0000 0.1197014601
H   H42       1.0  0.70157  0.55283  0.22981  1.0000 0.1197014601
H   H43       1.0  0.73879  0.36843  0.72380  1.0000 0.1197014601
H   H44       1.0  0.76027  0.18663  0.88863  1.0000 0.1197014601
H   H45       1.0  0.76834  0.47162  0.72331  1.0000 0.1197014601
H   H46       1.0  0.85815  0.43294  0.73479  1.0000 0.1304566072
H   H47       1.0  0.78307  0.48162  0.79371  1.0000 0.138710933
H   H48       1.0  0.74445  0.20987  0.72894  1.0000 0.1304566072
H   H49       1.0  0.65927  0.28469  0.74597  1.0000 0.138710933
H   H50       1.0  0.68147  0.20808  0.80368  1.0000 0.138710933
H   H51       1.0  0.79775  0.24694  0.00634  1.0000 0.138710933
H   H52       1.0  0.88904  0.20654  0.96163  1.0000 0.1304566072
H   H53       1.0  0.83045  0.16571  0.97711  1.0000 0.1304566072
H   H54       1.0  0.42192  0.56130  0.22315  1.0000 0.1197014601
H   H55       1.0  0.55048  0.38558  0.35531  1.0000 0.1484800439
H   H56       1.0  0.56543  0.57320  0.08371  1.0000 0.138710933
H   H57       1.0  0.56404  0.62981  0.12940  1.0000 0.1304566072
H   H58       1.0  0.48116  0.63255  0.12716  1.0000 0.1304566072
H   H59       1.0  0.36524  0.46687  0.30487  1.0000 0.1197014601
H   H60       1.0  0.36656  0.49879  0.37010  1.0000 0.1197014601
H   H61       1.0  0.41326  0.40686  0.36374  1.0000 0.1197014601
H   H62       1.0  0.69535  0.34012  0.33980  1.0000 0.1118774139
H   H63       1.0  0.73074  0.40117  0.29408  1.0000 0.1118774139
H   H64       1.0  0.74282  0.33111  0.25822  1.0000 0.1197014601
H   H65       1.0  0.32842  0.07698  0.25330  1.0000 0.1304566072
H   H66       1.0  0.25646  0.07667  0.17650  1.0000 0.1197014601
H   H67       1.0  0.20992  0.90165  0.31901  1.0000 0.1118774139
H   H68       1.0  0.27722  0.90858  0.39460  1.0000 0.1304566072
H   H69       1.0  0.24377  0.02661  0.09650  1.0000 0.1118774139
H   H70       1.0  0.10768  0.94116  0.26383  1.0000 0.1118774139
H   H71       1.0  0.27328  0.06149  0.99057  1.0000 0.1197014601
H   H72       1.0  0.22141  0.12730  0.79407  1.0000 0.1118774139
H   H73       1.0  0.02696  0.89319  0.30101  1.0000 0.1197014601
H   H74       1.0  0.84241  0.86753  0.27269  1.0000 0.1118774139
H   H75       1.0  0.37657  0.25960  0.87455  1.0000 0.1304566072
H   H76       1.0  0.51502  0.07372  0.75948  1.0000 0.1197014601
H   H77       1.0  0.23888  0.20995  0.98306  1.0000 0.138710933
H   H78       1.0  0.24173  0.28888  0.93661  1.0000 0.1304566072
H   H79       1.0  0.19430  0.25086  0.91858  1.0000 0.1304566072
H   H80       1.0  0.54272  0.19672  0.82834  1.0000 0.138710933
H   H81       1.0  0.57353  0.15733  0.75717  1.0000 0.1304566072
H   H82       1.0  0.50869  0.24725  0.75930  1.0000 0.138710933
H   H83       1.0  0.40005  0.97196  0.82486  1.0000 0.138710933
H   H84       1.0  0.37760  0.02561  0.75236  1.0000 0.1304566072
H   H85       1.0  0.46965  0.98144  0.75894  1.0000 0.1304566072
H   H86       1.0  0.79510  0.90389  0.53396  1.0000 0.1197014601
H   H87       1.0  0.96210  0.68097  0.49433  1.0000 0.138710933
H   H88       1.0  0.84486  0.00607  0.37948  1.0000 0.138710933
H   H89       1.0  0.77455  0.99036  0.37159  1.0000 0.138710933
H   H90       1.0  0.77075  0.00958  0.44605  1.0000 0.138710933
H   H91       1.0  0.87336  0.77010  0.63686  1.0000 0.1197014601
H   H92       1.0  0.79465  0.77299  0.62438  1.0000 0.1197014601
H   H93       1.0  0.87867  0.69589  0.61272  1.0000 0.1197014601
H   H94       1.0  0.07387  0.70251  0.34649  1.0000 0.1484800439
H   H95       1.0  0.02299  0.65299  0.36560  1.0000 0.138710933
H   H96       1.0  0.00904  0.72419  0.30211  1.0000 0.1304566072
H   H97       1.0  0.76977  0.80440  0.42591  1.0000 0.1304566072
H   H98       1.0  0.85354  0.71133  0.34775  1.0000 0.1197014601
H   H99       1.0  0.65651  0.74874  0.28295  1.0000 0.1197014601
H   H100      1.0  0.57439  0.84921  0.35480  1.0000 0.1304566072
H   H101      1.0  0.91582  0.69085  0.22421  1.0000 0.1197014601
H   H102      1.0  0.74023  0.62244  0.25314  1.0000 0.1118774139
H   H103      1.0  0.03842  0.66694  0.18316  1.0000 0.1197014601
H   H104      1.0  0.23367  0.60452  0.01600  1.0000 0.1197014601
H   H105      1.0  0.28474  0.56809  0.91757  1.0000 0.1197014601
H   H106      1.0  0.29843  0.44717  0.77019  1.0000 0.1197014601
H   H107      1.0  0.26121  0.63157  0.27620  1.0000 0.1197014601
H   H108      1.0  0.23973  0.81337  0.11137  1.0000 0.1197014601
H   H109      1.0  0.23166  0.52838  0.27669  1.0000 0.1197014601
H   H110      1.0  0.14185  0.56706  0.26521  1.0000 0.1304566072
H   H111      1.0  0.21693  0.51838  0.20629  1.0000 0.138710933
H   H112      1.0  0.25555  0.79013  0.27106  1.0000 0.1304566072
H   H113      1.0  0.34073  0.71531  0.25403  1.0000 0.138710933
H   H114      1.0  0.31853  0.79192  0.19632  1.0000 0.138710933
H   H115      1.0  0.20225  0.75306  0.99366  1.0000 0.138710933
H   H116      1.0  0.11096  0.79346  0.03837  1.0000 0.1304566072
H   H117      1.0  0.16955  0.83429  0.02289  1.0000 0.1304566072
H   H118      1.0  0.57808  0.43870  0.77685  1.0000 0.1197014601
H   H119      1.0  0.44952  0.61442  0.64469  1.0000 0.1484800439
H   H120      1.0  0.43457  0.42680  0.91629  1.0000 0.138710933
H   H121      1.0  0.43596  0.37019  0.87060  1.0000 0.1304566072
H   H122      1.0  0.51884  0.36745  0.87284  1.0000 0.1304566072
H   H123      1.0  0.63476  0.53313  0.69513  1.0000 0.1197014601
H   H124      1.0  0.63344  0.50121  0.62990  1.0000 0.1197014601
H   H125      1.0  0.58674  0.59314  0.63626  1.0000 0.1197014601
H   H126      1.0  0.30465  0.65988  0.66020  1.0000 0.1118774139
H   H127      1.0  0.26926  0.59883  0.70592  1.0000 0.1118774139
H   H128      1.0  0.25718  0.66889  0.74178  1.0000 0.1197014601
C   C1        1.0  0.64370  0.00390  0.62070  1.0000 0.5364401203
C   C2        1.0  0.68930  0.00740  0.66920  1.0000 -0.0276427332
C   C3        1.0  0.69590  0.95800  0.73340  1.0000 -0.0991174617
C   C4        1.0  0.73870  0.95840  0.78040  1.0000 -0.1569692817
C   C5        1.0  0.77400  0.01300  0.76070  1.0000 0.0716476713
C   C6        1.0  0.76700  0.06230  0.69510  1.0000 -0.1569692817
C   C7        1.0  0.72570  0.05860  0.64970  1.0000 -0.0991174617
C   C8        1.0  0.81690  0.01480  0.81140  1.0000 0.0716476713
C   C9        1.0  0.79820  0.98970  0.88510  1.0000 -0.2081615218
C   C10       1.0  0.84000  0.98800  0.93300  1.0000 0.0398706281
C   C11       1.0  0.90530  0.01120  0.90550  1.0000 -0.0196550896
C   C12       1.0  0.92220  0.04190  0.83040  1.0000 0.0398706281
C   C13       1.0  0.87930  0.04120  0.78550  1.0000 -0.1924134072
C   C14       1.0  0.75820  0.93330  0.03980  1.0000 -0.1924134072
C   C15       1.0  0.73990  0.90210  0.11270  1.0000 0.1118774139
C   C16       1.0  0.78890  0.89440  0.15740  1.0000 -0.1924134072
C   C17       1.0  0.85240  0.91840  0.13140  1.0000 0.0398706281
C   C18       1.0  0.86980  0.94990  0.05730  1.0000 -0.0196550896
C   C19       1.0  0.82120  0.95670  0.01080  1.0000 0.0398706281
C   C20       1.0  0.00470  0.10110  0.72940  1.0000 -0.1987087626
C   C21       1.0  0.98750  0.06850  0.80220  1.0000 0.0398706281
C   C22       1.0  0.03500  0.06300  0.84880  1.0000 -0.0196550896
C   C23       1.0  0.09810  0.08810  0.82120  1.0000 0.0398706281
C   C24       1.0  0.11450  0.11770  0.74660  1.0000 -0.1987087626
C   C25       1.0  0.06710  0.12500  0.70140  1.0000 0.1033421003
C   C26       1.0  0.95270  0.00610  0.95350  1.0000 -0.0196550896
C   C27       1.0  0.93550  0.97500  0.02880  1.0000 -0.0196550896
C   C28       1.0  0.01730  0.03150  0.92500  1.0000 -0.0108965282
C   C29       1.0  0.67190  0.87630  0.13980  1.0000 -0.0762877956
C   C30       1.0  0.68110  0.80910  0.11610  1.0000 0.1304566072
C   C31       1.0  0.61680  0.78570  0.14030  1.0000 -0.2632102657
C   C32       1.0  0.54280  0.83040  0.18670  1.0000 0.1798894864
C   C33       1.0  0.53420  0.89670  0.20970  1.0000 -0.2632102657
C   C34       1.0  0.59820  0.92060  0.18730  1.0000 0.1484800439
C   C35       1.0  0.75850  0.76050  0.06480  1.0000 -0.4580133218
C   C36       1.0  0.47300  0.80490  0.21290  1.0000 -0.4685678977
C   C37       1.0  0.58670  0.99180  0.21530  1.0000 -0.4493387598
C   C38       1.0  0.08740  0.15680  0.62150  1.0000 -0.0762877956
C   C39       1.0  0.14590  0.10550  0.57250  1.0000 0.138710933
C   C40       1.0  0.16510  0.13210  0.49830  1.0000 -0.2632102657
C   C41       1.0  0.12430  0.21280  0.47310  1.0000 0.1798894864
C   C42       1.0  0.06500  0.26500  0.52230  1.0000 -0.2537095684
C   C43       1.0  0.04470  0.23790  0.59760  1.0000 0.1304566072
C   C44       1.0  0.19330  0.01670  0.59600  1.0000 -0.4307737488
C   C45       1.0  0.14650  0.24670  0.39210  1.0000 -0.4162279505
C   C46       1.0  0.97870  0.29470  0.65070  1.0000 -0.4685678977
C   C47       1.0  0.39220  0.09220  0.55980  1.0000 0.5562066298
C   C48       1.0  0.33700  0.16090  0.60290  1.0000 -0.0424721695
C   C49       1.0  0.25240  0.20490  0.60480  1.0000 -0.0991174617
C   C50       1.0  0.20250  0.26100  0.65110  1.0000 -0.1457074795
C   C51       1.0  0.23410  0.27810  0.69720  1.0000 0.0810284439
C   C52       1.0  0.31990  0.23780  0.69080  1.0000 -0.1393327255
C   C53       1.0  0.36960  0.17890  0.64630  1.0000 -0.1079524744
C   C54       1.0  0.18080  0.33340  0.75300  1.0000 0.0716476713
C   C55       1.0  0.10420  0.33730  0.79000  1.0000 -0.1987087626
C   C56       1.0  0.05580  0.38160  0.84750  1.0000 0.0398706281
C   C57       1.0  0.08810  0.42310  0.86960  1.0000 -0.0108965282
C   C58       1.0  0.16450  0.42250  0.83030  1.0000 0.0463584338
C   C59       1.0  0.20920  0.37790  0.77300  1.0000 -0.1924134072
C   C60       1.0  0.93440  0.35640  0.85970  1.0000 -0.1987087626
C   C61       1.0  0.85800  0.36000  0.89480  1.0000 0.1118774139
C   C62       1.0  0.81730  0.39470  0.95900  1.0000 -0.1987087626
C   C63       1.0  0.85110  0.42840  0.98670  1.0000 0.0398706281
C   C64       1.0  0.93000  0.42490  0.94910  1.0000 -0.0196550896
C   C65       1.0  0.97310  0.38640  0.88560  1.0000 0.0398706281
C   C66       1.0  0.80960  0.46280  0.05570  1.0000 0.0398706281
C   C67       1.0  0.73690  0.45740  0.09830  1.0000 -0.2081615218
C   C68       1.0  0.69630  0.48980  0.16440  1.0000 0.1033421003
C   C69       1.0  0.72890  0.52950  0.18700  1.0000 -0.2081615218
C   C70       1.0  0.80160  0.53420  0.14590  1.0000 0.0398706281
C   C71       1.0  0.84380  0.49880  0.08140  1.0000 -0.0196550896
C   C72       1.0  0.04270  0.46330  0.93550  1.0000 -0.0108965282
C   C73       1.0  0.96520  0.46330  0.97530  1.0000 -0.0108965282
C   C74       1.0  0.92270  0.50030  0.03900  1.0000 -0.0108965282
C   C75       1.0  0.81600  0.32920  0.86320  1.0000 -0.0868519514
C   C76       1.0  0.79270  0.36790  0.79820  1.0000 0.1304566072
C   C77       1.0  0.75500  0.34110  0.76700  1.0000 -0.2666959006
C   C78       1.0  0.74180  0.27470  0.79970  1.0000 0.1798894864
C   C79       1.0  0.76770  0.23230  0.86570  1.0000 -0.2632102657
C   C80       1.0  0.80520  0.26280  0.89510  1.0000 0.138710933
C   C81       1.0  0.80140  0.44600  0.75870  1.0000 -0.4375390399
C   C82       1.0  0.70310  0.24120  0.76640  1.0000 -0.4580133218
C   C83       1.0  0.83330  0.21600  0.96690  1.0000 -0.4375390399
C   C84       1.0  0.61950  0.48400  0.21000  1.0000 -0.0868519514
C   C85       1.0  0.54440  0.53530  0.19260  1.0000 0.1197014601
C   C86       1.0  0.47230  0.52650  0.23520  1.0000 -0.2537095684
C   C87       1.0  0.47490  0.46910  0.29260  1.0000 0.1484800439
C   C88       1.0  0.54940  0.42050  0.31220  1.0000 -0.2283424873
C   C89       1.0  0.62410  0.42250  0.26840  1.0000 0.1197014601
C   C90       1.0  0.53820  0.59840  0.12730  1.0000 -0.4580133218
C   C91       1.0  0.39800  0.45950  0.33690  1.0000 -0.4307737488
C   C92       1.0  0.70600  0.36860  0.29240  1.0000 -0.4074860502
C   C93       1.0  0.35630  0.99610  0.37930  1.0000 0.5364401203
C   C94       1.0  0.31070  0.99260  0.33080  1.0000 -0.0276427332
C   C95       1.0  0.30410  0.04200  0.26660  1.0000 -0.0991174617
C   C96       1.0  0.26130  0.04160  0.21960  1.0000 -0.1569692817
C   C97       1.0  0.22600  0.98700  0.23930  1.0000 0.0716476713
C   C98       1.0  0.23300  0.93770  0.30490  1.0000 -0.1569692817
C   C99       1.0  0.27430  0.94140  0.35030  1.0000 -0.0991174617
C   C100      1.0  0.18310  0.98520  0.18860  1.0000 0.0716476713
C   C101      1.0  0.20180  0.01030  0.11490  1.0000 -0.2081615218
C   C102      1.0  0.16000  0.01200  0.06700  1.0000 0.0398706281
C   C103      1.0  0.09470  0.98880  0.09450  1.0000 -0.0196550896
C   C104      1.0  0.07780  0.95810  0.16960  1.0000 0.0398706281
C   C105      1.0  0.12070  0.95880  0.21450  1.0000 -0.1924134072
C   C106      1.0  0.24180  0.06670  0.96020  1.0000 -0.1924134072
C   C107      1.0  0.26010  0.09790  0.88730  1.0000 0.1118774139
C   C108      1.0  0.21110  0.10560  0.84260  1.0000 -0.1924134072
C   C109      1.0  0.14760  0.08160  0.86860  1.0000 0.0398706281
C   C110      1.0  0.13020  0.05010  0.94270  1.0000 -0.0196550896
C   C111      1.0  0.17880  0.04330  0.98920  1.0000 0.0398706281
C   C112      1.0  0.99530  0.89890  0.27060  1.0000 -0.1987087626
C   C113      1.0  0.01250  0.93150  0.19780  1.0000 0.0398706281
C   C114      1.0  0.96500  0.93700  0.15120  1.0000 -0.0276427332
C   C115      1.0  0.90190  0.91190  0.17880  1.0000 0.0398706281
C   C116      1.0  0.88550  0.88230  0.25340  1.0000 -0.1987087626
C   C117      1.0  0.93290  0.87500  0.29860  1.0000 0.1033421003
C   C118      1.0  0.04730  0.99390  0.04650  1.0000 -0.0196550896
C   C119      1.0  0.06450  0.02500  0.97120  1.0000 -0.0196550896
C   C120      1.0  0.98270  0.96850  0.07500  1.0000 -0.0108965282
C   C121      1.0  0.32810  0.12370  0.86020  1.0000 -0.0762877956
C   C122      1.0  0.31890  0.19090  0.88390  1.0000 0.1304566072
C   C123      1.0  0.38320  0.21430  0.85970  1.0000 -0.2632102657
C   C124      1.0  0.45720  0.16960  0.81330  1.0000 0.1798894864
C   C125      1.0  0.46580  0.10330  0.79030  1.0000 -0.2632102657
C   C126      1.0  0.40180  0.07940  0.81270  1.0000 0.1484800439
C   C127      1.0  0.24150  0.23950  0.93520  1.0000 -0.4580133218
C   C128      1.0  0.52700  0.19510  0.78710  1.0000 -0.4685678977
C   C129      1.0  0.41330  0.00820  0.78470  1.0000 -0.4493387598
C   C130      1.0  0.91260  0.84320  0.37850  1.0000 -0.0762877956
C   C131      1.0  0.85410  0.89450  0.42750  1.0000 0.138710933
C   C132      1.0  0.83490  0.86790  0.50170  1.0000 -0.2632102657
C   C133      1.0  0.87570  0.78720  0.52690  1.0000 0.1798894864
C   C134      1.0  0.93500  0.73500  0.47770  1.0000 -0.2537095684
C   C135      1.0  0.95530  0.76210  0.40240  1.0000 0.1304566072
C   C136      1.0  0.80670  0.98330  0.40400  1.0000 -0.4307737488
C   C137      1.0  0.85350  0.75330  0.60790  1.0000 -0.4162279505
C   C138      1.0  0.02130  0.70530  0.34930  1.0000 -0.4685678977
C   C139      1.0  0.60780  0.90780  0.44020  1.0000 0.5548705321
C   C140      1.0  0.66300  0.83910  0.39710  1.0000 -0.0424721695
C   C141      1.0  0.74760  0.79510  0.39520  1.0000 -0.0991174617
C   C142      1.0  0.79750  0.73900  0.34890  1.0000 -0.1457074795
C   C143      1.0  0.76590  0.72190  0.30280  1.0000 0.0810284439
C   C144      1.0  0.68010  0.76220  0.30920  1.0000 -0.1393327255
C   C145      1.0  0.63040  0.82110  0.35370  1.0000 -0.1079524744
C   C146      1.0  0.81920  0.66667  0.24700  1.0000 0.0716476713
C   C147      1.0  0.89580  0.66270  0.21000  1.0000 -0.1987087626
C   C148      1.0  0.94420  0.61840  0.15250  1.0000 0.0398706281
C   C149      1.0  0.91190  0.57690  0.13040  1.0000 -0.0108965282
C   C150      1.0  0.83550  0.57750  0.16970  1.0000 0.0463584338
C   C151      1.0  0.79080  0.62210  0.22700  1.0000 -0.1924134072
C   C152      1.0  0.06560  0.64360  0.14030  1.0000 -0.1987087626
C   C153      1.0  0.14200  0.64000  0.10520  1.0000 0.1118774139
C   C154      1.0  0.18270  0.60530  0.04100  1.0000 -0.1987087626
C   C155      1.0  0.14890  0.57160  0.01330  1.0000 0.0398706281
C   C156      1.0  0.07000  0.57510  0.05090  1.0000 -0.0196550896
C   C157      1.0  0.02690  0.61360  0.11440  1.0000 0.0398706281
C   C158      1.0  0.19040  0.53720  0.94430  1.0000 0.0398706281
C   C159      1.0  0.26310  0.54260  0.90170  1.0000 -0.2081615218
C   C160      1.0  0.30370  0.51020  0.83560  1.0000 0.1033421003
C   C161      1.0  0.27110  0.47050  0.81300  1.0000 -0.2081615218
C   C162      1.0  0.19840  0.46580  0.85410  1.0000 0.0398706281
C   C163      1.0  0.15620  0.50120  0.91860  1.0000 -0.0196550896
C   C164      1.0  0.95730  0.53670  0.06450  1.0000 -0.0196550896
C   C165      1.0  0.03480  0.53670  0.02470  1.0000 -0.0108965282
C   C166      1.0  0.07730  0.49970  0.96100  1.0000 -0.0108965282
C   C167      1.0  0.18400  0.67080  0.13680  1.0000 -0.0868519514
C   C168      1.0  0.20730  0.63210  0.20180  1.0000 0.1304566072
C   C169      1.0  0.24500  0.65890  0.23300  1.0000 -0.2666959006
C   C170      1.0  0.25820  0.72530  0.20030  1.0000 0.1798894864
C   C171      1.0  0.23230  0.76770  0.13430  1.0000 -0.2632102657
C   C172      1.0  0.19480  0.73720  0.10490  1.0000 0.138710933
C   C173      1.0  0.19860  0.55400  0.24130  1.0000 -0.4375390399
C   C174      1.0  0.29690  0.75880  0.23360  1.0000 -0.4580133218
C   C175      1.0  0.16670  0.78400  0.03310  1.0000 -0.4375390399
C   C176      1.0  0.38050  0.51600  0.79000  1.0000 -0.0868519514
C   C177      1.0  0.45560  0.46470  0.80740  1.0000 0.1197014601
C   C178      1.0  0.52770  0.47350  0.76480  1.0000 -0.2537095684
C   C179      1.0  0.52510  0.53090  0.70740  1.0000 0.1484800439
C   C180      1.0  0.45060  0.57950  0.68780  1.0000 -0.2283424873
C   C181      1.0  0.37590  0.57750  0.73160  1.0000 0.1197014601
C   C182      1.0  0.46180  0.40160  0.87270  1.0000 -0.4493387598
C   C183      1.0  0.60200  0.54050  0.66310  1.0000 -0.4307737488
C   C184      1.0  0.29400  0.63140  0.70760  1.0000 -0.4074860502
O   O1        1.0  0.63660  0.05450  0.56140  1.0000 -0.4926824782
O   O2        1.0  0.61380  0.95400  0.63960  1.0000 -0.4685678977
O   O3        1.0  0.46360  0.05160  0.56580  1.0000 -0.4926824782
O   O4        1.0  0.35980  0.07350  0.52450  1.0000 -0.4493387598
O   O5        1.0  0.36340  0.94550  0.43860  1.0000 -0.4926824782
O   O6        1.0  0.38620  0.04600  0.36040  1.0000 -0.4751654107
O   O7        1.0  0.53640  0.94840  0.43420  1.0000 -0.4926824782
O   O8        1.0  0.64020  0.92650  0.47550  1.0000 -0.4493387598
