# DDEC6 charges by PACMAN v1.1 (https://github.com/mtap-research/PACMAN-charge/)
data_2019[Cu][sql]2[ASR]1
_chemical_formula_sum              "Cu2 H48 C34 N8 O8"
_cell_length_a       7.9593
_cell_length_b       8.1244
_cell_length_c       16.8731
_cell_angle_alpha    86.311
_cell_angle_beta     86.42
_cell_angle_gamma    85.68

_symmetry_space_group_name_H-M    "P 1"
_symmetry_Int_Tables_number       1

loop_
  _symmetry_equiv_pos_as_xyz
  'x, y, z'

loop_
  _atom_site_type_symbol
  _atom_site_label
  _atom_site_symmetry_multiplicity
  _atom_site_fract_x
  _atom_site_fract_y
  _atom_site_fract_z
  _atom_site_occupancy
  _atom_site_charge
Cu  Cu1       1.0  0.94114  0.32361  0.72644  1.0000 0.7521271904
Cu  Cu2       1.0  0.05886  0.67639  0.27356  1.0000 0.7521271904
H   H1        1.0  0.31746  0.20640  0.67153  1.0000 0.1299822547
H   H2        1.0  0.75971  0.85867  0.47790  1.0000 0.1186466887
H   H3        1.0  0.82067  0.03034  0.44472  1.0000 0.1133652863
H   H4        1.0  0.38792  0.44182  0.78716  1.0000 0.1299822547
H   H5        1.0  0.46268  0.57429  0.83539  1.0000 0.1186466887
H   H6        1.0  0.47202  0.86432  0.89139  1.0000 0.1186466887
H   H7        1.0  0.29698  0.88879  0.93882  1.0000 0.1186466887
H   H8        1.0  0.37628  0.13296  0.98569  1.0000 0.1133652863
H   H9        1.0  0.55000  0.11338  0.93648  1.0000 0.1186466887
H   H10       1.0  0.51747  0.05010  0.75782  1.0000 0.1359733243
H   H11       1.0  0.78389  0.78800  0.63081  1.0000 0.1503187368
H   H12       1.0  0.45037  0.61162  0.66991  1.0000 0.101694559
H   H13       1.0  0.49049  0.74847  0.72595  1.0000 0.081270342
H   H14       1.0  0.06742  0.03587  0.94547  1.0000 0.1299822547
H   H15       1.0  0.98392  0.20695  0.91449  1.0000 0.1760436197
H   H16       1.0  0.93161  0.04316  0.88169  1.0000 0.1503187368
H   H17       1.0  0.87516  0.93763  0.74096  1.0000 0.1299822547
H   H18       1.0  0.20767  0.74900  0.78200  1.0000 0.1186466887
H   H19       1.0  0.21498  0.80606  0.69126  1.0000 0.1133652863
H   H20       1.0  0.55192  0.15833  0.47794  1.0000 0.1133652863
H   H21       1.0  0.53795  0.02143  0.41794  1.0000 0.101694559
H   H22       1.0  0.81956  0.28730  0.48277  1.0000 0.1503187368
H   H23       1.0  0.77893  0.39513  0.55628  1.0000 0.1703497221
H   H24       1.0  0.96658  0.33931  0.53131  1.0000 0.1703497221
H   H25       1.0  0.68254  0.79360  0.32847  1.0000 0.1299822547
H   H26       1.0  0.24029  0.14133  0.52210  1.0000 0.1186466887
H   H27       1.0  0.17933  0.96966  0.55528  1.0000 0.1133652863
H   H28       1.0  0.61208  0.55818  0.21284  1.0000 0.1299822547
H   H29       1.0  0.53732  0.42571  0.16461  1.0000 0.1186466887
H   H30       1.0  0.52798  0.13568  0.10861  1.0000 0.1186466887
H   H31       1.0  0.70302  0.11121  0.06118  1.0000 0.1186466887
H   H32       1.0  0.62372  0.86704  0.01431  1.0000 0.1133652863
H   H33       1.0  0.45000  0.88662  0.06352  1.0000 0.1186466887
H   H34       1.0  0.48253  0.94990  0.24218  1.0000 0.1359733243
H   H35       1.0  0.21611  0.21200  0.36919  1.0000 0.1503187368
H   H36       1.0  0.54963  0.38838  0.33009  1.0000 0.101694559
H   H37       1.0  0.50951  0.25153  0.27405  1.0000 0.081270342
H   H38       1.0  0.93258  0.96413  0.05453  1.0000 0.1299822547
H   H39       1.0  0.01608  0.79305  0.08551  1.0000 0.1760436197
H   H40       1.0  0.06839  0.95684  0.11831  1.0000 0.1503187368
H   H41       1.0  0.12484  0.06237  0.25904  1.0000 0.1299822547
H   H42       1.0  0.79233  0.25100  0.21800  1.0000 0.1186466887
H   H43       1.0  0.78502  0.19394  0.30874  1.0000 0.1133652863
H   H44       1.0  0.44808  0.84167  0.52206  1.0000 0.1133652863
H   H45       1.0  0.46205  0.97857  0.58206  1.0000 0.101694559
H   H46       1.0  0.18044  0.71270  0.51723  1.0000 0.1503187368
H   H47       1.0  0.22107  0.60487  0.44372  1.0000 0.1703497221
H   H48       1.0  0.03342  0.66069  0.46869  1.0000 0.1703497221
C   C1        1.0  0.29360  0.16650  0.72360  1.0000 -0.0409057594
C   C2        1.0  0.12790  0.57530  0.71270  1.0000 0.5940719743
C   C3        1.0  0.64530  0.43640  0.77320  1.0000 0.6026277442
C   C4        1.0  0.74670  0.97670  0.48460  1.0000 -0.109573671
C   C5        1.0  0.15800  0.10920  0.83590  1.0000 0.3322634001
C   C6        1.0  0.47050  0.52420  0.78450  1.0000 -0.320701475
C   C7        1.0  0.38650  0.94650  0.91010  1.0000 -0.109573671
C   C8        1.0  0.46230  0.05310  0.96520  1.0000 -0.186813994
C   C9        1.0  0.40440  0.07950  0.77080  1.0000 -0.109573671
C   C10       1.0  0.80700  0.89870  0.62900  1.0000 -0.1036872237
C   C11       1.0  0.42370  0.65470  0.72190  1.0000 -0.1036872237
C   C12       1.0  0.84040  0.15580  0.58740  1.0000 0.3322634001
C   C13       1.0  0.02350  0.09780  0.90000  1.0000 -0.5532678764
C   C14       1.0  0.85720  0.98200  0.68980  1.0000 -0.0462690021
C   C15       1.0  0.23670  0.71270  0.72890  1.0000 -0.3296783666
C   C16       1.0  0.56330  0.04000  0.47200  1.0000 -0.186813994
C   C17       1.0  0.85240  0.30770  0.53480  1.0000 -0.5441680054
C   C18       1.0  0.70640  0.83350  0.27640  1.0000 -0.0409057594
C   C19       1.0  0.87210  0.42470  0.28730  1.0000 0.5940719743
C   C20       1.0  0.35470  0.56360  0.22680  1.0000 0.6026277442
C   C21       1.0  0.25330  0.02330  0.51540  1.0000 -0.109573671
C   C22       1.0  0.84200  0.89080  0.16410  1.0000 0.3322634001
C   C23       1.0  0.52950  0.47580  0.21550  1.0000 -0.320701475
C   C24       1.0  0.61350  0.05350  0.08990  1.0000 -0.109573671
C   C25       1.0  0.53770  0.94690  0.03480  1.0000 -0.186813994
C   C26       1.0  0.59560  0.92050  0.22920  1.0000 -0.109573671
C   C27       1.0  0.19300  0.10130  0.37100  1.0000 -0.1036872237
C   C28       1.0  0.57630  0.34530  0.27810  1.0000 -0.1036872237
C   C29       1.0  0.15960  0.84420  0.41260  1.0000 0.3322634001
C   C30       1.0  0.97650  0.90220  0.10000  1.0000 -0.5532678764
C   C31       1.0  0.14280  0.01800  0.31020  1.0000 -0.0462690021
C   C32       1.0  0.76330  0.28730  0.27110  1.0000 -0.3296783666
C   C33       1.0  0.43670  0.96000  0.52800  1.0000 -0.186813994
C   C34       1.0  0.14760  0.69230  0.46520  1.0000 -0.5441680054
N   N1        1.0  0.14050  0.18600  0.76500  1.0000 -0.3537951063
N   N2        1.0  0.31740  0.04380  0.84110  1.0000 -0.0087832382
N   N3        1.0  0.87670  0.14280  0.66263  1.0000 -0.3592226009
N   N4        1.0  0.79740  0.00960  0.56500  1.0000 -0.0150615403
N   N5        1.0  0.85950  0.81400  0.23500  1.0000 -0.3537951063
N   N6        1.0  0.68260  0.95620  0.15890  1.0000 -0.0087832382
N   N7        1.0  0.12330  0.85720  0.33737  1.0000 -0.3592226009
N   N8        1.0  0.20260  0.99040  0.43500  1.0000 -0.0150615403
O   O1        1.0  0.70440  0.34640  0.82880  1.0000 -0.6022185187
O   O2        1.0  0.13930  0.51380  0.64770  1.0000 -0.5606128077
O   O3        1.0  0.72510  0.45550  0.70647  1.0000 -0.5291648011
O   O4        1.0  0.03010  0.52250  0.76920  1.0000 -0.5133835177
O   O5        1.0  0.29560  0.65360  0.17120  1.0000 -0.6022185187
O   O6        1.0  0.86070  0.48620  0.35230  1.0000 -0.5606128077
O   O7        1.0  0.27490  0.54450  0.29353  1.0000 -0.5291648011
O   O8        1.0  0.96990  0.47750  0.23080  1.0000 -0.5133835177
