# DDEC6 charges by PACMAN v1.1 (https://github.com/mtap-research/PACMAN-charge/)
data_2019[Tb][nan]3[ASR]1
_chemical_formula_sum              "Tb16 H68 C92 S12 O96"
_cell_length_a       13.412
_cell_length_b       13.412
_cell_length_c       29.911
_cell_angle_alpha    72.9229
_cell_angle_beta     107.077
_cell_angle_gamma    119.954

_symmetry_space_group_name_H-M    "P 1"
_symmetry_Int_Tables_number       1

loop_
  _symmetry_equiv_pos_as_xyz
  'x, y, z'

loop_
  _atom_site_type_symbol
  _atom_site_label
  _atom_site_symmetry_multiplicity
  _atom_site_fract_x
  _atom_site_fract_y
  _atom_site_fract_z
  _atom_site_occupancy
  _atom_site_charge
Tb  Tb1       1.0  0.99798  0.47938  0.34795  1.0000 2.0998665924
Tb  Tb2       1.0  0.71928  0.49630  0.34164  1.0000 2.1276165481
Tb  Tb3       1.0  0.71481  0.20777  0.33983  1.0000 2.1785627837
Tb  Tb4       1.0  0.83736  0.33466  0.45556  1.0000 2.0815114017
Tb  Tb5       1.0  0.47938  0.99798  0.15205  1.0000 2.0998665924
Tb  Tb6       1.0  0.49630  0.71928  0.15836  1.0000 2.1276165481
Tb  Tb7       1.0  0.20777  0.71481  0.16017  1.0000 2.1785627837
Tb  Tb8       1.0  0.33466  0.83736  0.04444  1.0000 2.0815114017
Tb  Tb9       1.0  0.00202  0.52062  0.65205  1.0000 2.0998665924
Tb  Tb10      1.0  0.28072  0.50370  0.65836  1.0000 2.1276165481
Tb  Tb11      1.0  0.28519  0.79223  0.66017  1.0000 2.1785627837
Tb  Tb12      1.0  0.16264  0.66534  0.54444  1.0000 2.0815114017
Tb  Tb13      1.0  0.52062  0.00202  0.84795  1.0000 2.0998665924
Tb  Tb14      1.0  0.50370  0.28072  0.84164  1.0000 2.1276165481
Tb  Tb15      1.0  0.79223  0.28519  0.83983  1.0000 2.1785627837
Tb  Tb16      1.0  0.66534  0.16264  0.95556  1.0000 2.0815114017
H   H1        1.0  0.54692  0.41698  0.37936  1.0000 0.3097494404
H   H2        1.0  0.57664  0.46478  0.41956  1.0000 0.4048758383
H   H3        1.0  0.92100  0.56100  0.39980  1.0000 0.4074598557
H   H4        1.0  0.92957  0.26501  0.40576  1.0000 0.4074598557
H   H5        1.0  0.61460  0.27480  0.39080  1.0000 0.4074598557
H   H6        1.0  0.79479  0.42511  0.28110  1.0000 0.4074598557
H   H7        1.0  0.78800  0.72800  0.19930  1.0000 0.1316376413
H   H8        1.0  0.00800  0.02800  0.12700  1.0000 0.1316376413
H   H9        1.0  0.15600  0.02800  0.18890  1.0000 0.1132613729
H   H10       1.0  0.06800  0.88600  0.31890  1.0000 0.1029195842
H   H11       1.0  0.21500  0.93100  0.38200  1.0000 0.1362089451
H   H12       1.0  0.44357  0.97679  0.30830  1.0000 0.1316376413
H   H13       1.0  0.47300  0.23300  0.19360  1.0000 0.1500622044
H   H14       1.0  0.20000  0.27600  0.11800  1.0000 0.1316376413
H   H15       1.0  0.18500  0.31700  0.18500  1.0000 0.1156713377
H   H16       1.0  0.30486  0.71268  0.37905  1.0000 0.1029195842
H   H17       1.0  0.17200  0.40800  0.49210  1.0000 0.0925318367
H   H18       1.0  0.41698  0.54692  0.12064  1.0000 0.3097494404
H   H19       1.0  0.46478  0.57664  0.08044  1.0000 0.4074598557
H   H20       1.0  0.56100  0.92100  0.10020  1.0000 0.4074598557
H   H21       1.0  0.26501  0.92957  0.09424  1.0000 0.4074598557
H   H22       1.0  0.27480  0.61460  0.10920  1.0000 0.4074598557
H   H23       1.0  0.42511  0.79479  0.21890  1.0000 0.4074598557
H   H24       1.0  0.72800  0.78800  0.30070  1.0000 0.1316376413
H   H25       1.0  0.02800  0.00800  0.37300  1.0000 0.1316376413
H   H26       1.0  0.02800  0.15600  0.31110  1.0000 0.1132613729
H   H27       1.0  0.88600  0.06800  0.18110  1.0000 0.1029195842
H   H28       1.0  0.93100  0.21500  0.11800  1.0000 0.1362089451
H   H29       1.0  0.97679  0.44357  0.19170  1.0000 0.1316376413
H   H30       1.0  0.23300  0.47300  0.30640  1.0000 0.1500622044
H   H31       1.0  0.27600  0.20000  0.38200  1.0000 0.1316376413
H   H32       1.0  0.31700  0.18500  0.31500  1.0000 0.1156713377
H   H33       1.0  0.71268  0.30486  0.12095  1.0000 0.1029195842
H   H34       1.0  0.40800  0.17200  0.00790  1.0000 0.0925318367
H   H35       1.0  0.45308  0.58302  0.62064  1.0000 0.3097494404
H   H36       1.0  0.42336  0.53522  0.58044  1.0000 0.4048758383
H   H37       1.0  0.07900  0.43900  0.60020  1.0000 0.4074598557
H   H38       1.0  0.07043  0.73499  0.59424  1.0000 0.4074598557
H   H39       1.0  0.38540  0.72520  0.60920  1.0000 0.4074598557
H   H40       1.0  0.20521  0.57489  0.71890  1.0000 0.4074598557
H   H41       1.0  0.21200  0.27200  0.80070  1.0000 0.1316376413
H   H42       1.0  0.99200  0.97200  0.87300  1.0000 0.1316376413
H   H43       1.0  0.84400  0.97200  0.81110  1.0000 0.1132613729
H   H44       1.0  0.93200  0.11400  0.68110  1.0000 0.1029195842
H   H45       1.0  0.78500  0.06900  0.61800  1.0000 0.1362089451
H   H46       1.0  0.55643  0.02321  0.69170  1.0000 0.1316376413
H   H47       1.0  0.52700  0.76700  0.80640  1.0000 0.1500622044
H   H48       1.0  0.80000  0.72400  0.88200  1.0000 0.1316376413
H   H49       1.0  0.81500  0.68300  0.81500  1.0000 0.1156713377
H   H50       1.0  0.69514  0.28732  0.62095  1.0000 0.1029195842
H   H51       1.0  0.82800  0.59200  0.50790  1.0000 0.0925318367
H   H52       1.0  0.58302  0.45308  0.87936  1.0000 0.3097494404
H   H53       1.0  0.53522  0.42336  0.91956  1.0000 0.4048758383
H   H54       1.0  0.43900  0.07900  0.89980  1.0000 0.4074598557
H   H55       1.0  0.73499  0.07043  0.90576  1.0000 0.4074598557
H   H56       1.0  0.72520  0.38540  0.89080  1.0000 0.4074598557
H   H57       1.0  0.57489  0.20521  0.78110  1.0000 0.4074598557
H   H58       1.0  0.27200  0.21200  0.69930  1.0000 0.1316376413
H   H59       1.0  0.97200  0.99200  0.62700  1.0000 0.1316376413
H   H60       1.0  0.97200  0.84400  0.68890  1.0000 0.1132613729
H   H61       1.0  0.11400  0.93200  0.81890  1.0000 0.1029195842
H   H62       1.0  0.06900  0.78500  0.88200  1.0000 0.1362089451
H   H63       1.0  0.02321  0.55643  0.80830  1.0000 0.1316376413
H   H64       1.0  0.76700  0.52700  0.69360  1.0000 0.1500622044
H   H65       1.0  0.72400  0.80000  0.61800  1.0000 0.1316376413
H   H66       1.0  0.68300  0.81500  0.68500  1.0000 0.1156713377
H   H67       1.0  0.28732  0.69514  0.87905  1.0000 0.1029195842
H   H68       1.0  0.59200  0.82800  0.99210  1.0000 0.0925318367
C   C1        1.0  0.92510  0.68870  0.27523  1.0000 0.6310950901
C   C2        1.0  0.95470  0.79150  0.23419  1.0000 -0.0608981154
C   C3        1.0  0.86380  0.78980  0.19645  1.0000 -0.108080509
C   C4        1.0  0.88590  0.87630  0.15611  1.0000 -0.0929693909
C   C5        1.0  0.99730  0.96670  0.15346  1.0000 -0.0994114961
C   C6        1.0  0.08600  0.97140  0.19115  1.0000 -0.1212290603
C   C7        1.0  0.06870  0.88370  0.23192  1.0000 0.0619250621
C   C8        1.0  0.16660  0.90300  0.27323  1.0000 0.0619250621
C   C9        1.0  0.14470  0.90290  0.31643  1.0000 -0.1279914532
C   C10       1.0  0.23320  0.93280  0.35527  1.0000 -0.0782189117
C   C11       1.0  0.34530  0.96170  0.35156  1.0000 -0.1212290603
C   C12       1.0  0.36820  0.95920  0.30992  1.0000 -0.0994114961
C   C13       1.0  0.28070  0.93110  0.27055  1.0000 -0.0608981154
C   C14       1.0  0.31330  0.92770  0.22655  1.0000 0.6242782708
C   C15       1.0  0.51780  0.30400  0.27153  1.0000 0.6429222162
C   C16       1.0  0.41770  0.28390  0.23001  1.0000 -0.0608981154
C   C17       1.0  0.42560  0.25540  0.19056  1.0000 -0.108080509
C   C18       1.0  0.34290  0.25170  0.14925  1.0000 -0.0929693909
C   C19       1.0  0.25290  0.27750  0.14668  1.0000 -0.1279914532
C   C20       1.0  0.24370  0.30250  0.18630  1.0000 -0.1376279209
C   C21       1.0  0.32520  0.30720  0.22860  1.0000 0.0449847552
C   C22       1.0  0.22960  0.65660  0.36949  1.0000 0.4697889622
C   C23       1.0  0.13960  0.45220  0.49798  1.0000 0.6060176527
C   C24       1.0  0.68870  0.92510  0.22477  1.0000 0.6310950901
C   C25       1.0  0.79150  0.95470  0.26581  1.0000 -0.0608981154
C   C26       1.0  0.78980  0.86380  0.30355  1.0000 -0.108080509
C   C27       1.0  0.87630  0.88590  0.34389  1.0000 -0.0929693909
C   C28       1.0  0.96670  0.99730  0.34654  1.0000 -0.0994114961
C   C29       1.0  0.97140  0.08600  0.30885  1.0000 -0.1212290603
C   C30       1.0  0.88370  0.06870  0.26808  1.0000 0.0619250621
C   C31       1.0  0.90300  0.16660  0.22677  1.0000 0.0619250621
C   C32       1.0  0.90290  0.14470  0.18357  1.0000 -0.1279914532
C   C33       1.0  0.93280  0.23320  0.14473  1.0000 -0.0782189117
C   C34       1.0  0.96170  0.34530  0.14844  1.0000 -0.1212290603
C   C35       1.0  0.95920  0.36820  0.19008  1.0000 -0.0994114961
C   C36       1.0  0.93110  0.28070  0.22945  1.0000 -0.0608981154
C   C37       1.0  0.92770  0.31330  0.27345  1.0000 0.6242782708
C   C38       1.0  0.30400  0.51780  0.22847  1.0000 0.6429222162
C   C39       1.0  0.28390  0.41770  0.26999  1.0000 -0.0608981154
C   C40       1.0  0.25540  0.42560  0.30944  1.0000 -0.108080509
C   C41       1.0  0.25170  0.34290  0.35075  1.0000 -0.0929693909
C   C42       1.0  0.27750  0.25290  0.35332  1.0000 -0.1212290603
C   C43       1.0  0.30250  0.24370  0.31370  1.0000 -0.1376279209
C   C44       1.0  0.30720  0.32520  0.27140  1.0000 0.0453612703
C   C45       1.0  0.65660  0.22960  0.13051  1.0000 0.4697889622
C   C46       1.0  0.45220  0.13960  0.00202  1.0000 0.6048349972
C   C47       1.0  0.07490  0.31130  0.72477  1.0000 0.6310950901
C   C48       1.0  0.04530  0.20850  0.76581  1.0000 -0.0608981154
C   C49       1.0  0.13620  0.21020  0.80355  1.0000 -0.108080509
C   C50       1.0  0.11410  0.12370  0.84389  1.0000 -0.0994114961
C   C51       1.0  0.00270  0.03330  0.84654  1.0000 -0.0994114961
C   C52       1.0  0.91400  0.02860  0.80885  1.0000 -0.1212290603
C   C53       1.0  0.93130  0.11630  0.76808  1.0000 0.0619250621
C   C54       1.0  0.83340  0.09700  0.72677  1.0000 0.0619250621
C   C55       1.0  0.85530  0.09710  0.68357  1.0000 -0.1279914532
C   C56       1.0  0.76680  0.06720  0.64473  1.0000 -0.0782189117
C   C57       1.0  0.65470  0.03830  0.64844  1.0000 -0.1212290603
C   C58       1.0  0.63180  0.04080  0.69008  1.0000 -0.0929693909
C   C59       1.0  0.71930  0.06890  0.72945  1.0000 -0.0608981154
C   C60       1.0  0.68670  0.07230  0.77345  1.0000 0.6242782708
C   C61       1.0  0.48220  0.69600  0.72847  1.0000 0.6429222162
C   C62       1.0  0.58230  0.71610  0.76999  1.0000 -0.0608981154
C   C63       1.0  0.57440  0.74460  0.80944  1.0000 -0.108080509
C   C64       1.0  0.65710  0.74830  0.85075  1.0000 -0.0929693909
C   C65       1.0  0.74710  0.72250  0.85332  1.0000 -0.1212290603
C   C66       1.0  0.75630  0.69750  0.81370  1.0000 -0.1376279209
C   C67       1.0  0.67480  0.69280  0.77140  1.0000 0.0453612703
C   C68       1.0  0.77040  0.34340  0.63051  1.0000 0.4697889622
C   C69       1.0  0.86040  0.54780  0.50202  1.0000 0.6060176527
C   C70       1.0  0.31130  0.07490  0.77523  1.0000 0.6310950901
C   C71       1.0  0.20850  0.04530  0.73419  1.0000 -0.0608981154
C   C72       1.0  0.21020  0.13620  0.69645  1.0000 -0.108080509
C   C73       1.0  0.12370  0.11410  0.65611  1.0000 -0.0929693909
C   C74       1.0  0.03330  0.00270  0.65346  1.0000 -0.0994114961
C   C75       1.0  0.02860  0.91400  0.69115  1.0000 -0.1212290603
C   C76       1.0  0.11630  0.93130  0.73192  1.0000 0.0619250621
C   C77       1.0  0.09700  0.83340  0.77323  1.0000 0.0619250621
C   C78       1.0  0.09710  0.85530  0.81643  1.0000 -0.1279914532
C   C79       1.0  0.06720  0.76680  0.85527  1.0000 -0.0782189117
C   C80       1.0  0.03830  0.65470  0.85156  1.0000 -0.1212290603
C   C81       1.0  0.04080  0.63180  0.80992  1.0000 -0.0929693909
C   C82       1.0  0.06890  0.71930  0.77055  1.0000 -0.0608981154
C   C83       1.0  0.07230  0.68670  0.72655  1.0000 0.6242782708
C   C84       1.0  0.69600  0.48220  0.77153  1.0000 0.6429222162
C   C85       1.0  0.71610  0.58230  0.73001  1.0000 -0.0608981154
C   C86       1.0  0.74460  0.57440  0.69056  1.0000 -0.108080509
C   C87       1.0  0.74830  0.65710  0.64925  1.0000 -0.0929693909
C   C88       1.0  0.72250  0.74710  0.64668  1.0000 -0.1212290603
C   C89       1.0  0.69750  0.75630  0.68630  1.0000 -0.1376279209
C   C90       1.0  0.69280  0.67480  0.72860  1.0000 0.0453612703
C   C91       1.0  0.34340  0.77040  0.86949  1.0000 0.4697889622
C   C92       1.0  0.54780  0.86040  0.99798  1.0000 0.6060176527
S   S1        1.0  0.77085  0.87405  0.10794  1.0000 1.2004941817
S   S2        1.0  0.46033  0.00167  0.40040  1.0000 1.206870162
S   S3        1.0  0.35815  0.21899  0.09904  1.0000 1.1910003062
S   S4        1.0  0.87405  0.77085  0.39206  1.0000 1.2004941817
S   S5        1.0  0.00167  0.46033  0.09960  1.0000 1.206870162
S   S6        1.0  0.21899  0.35815  0.40096  1.0000 1.1910003062
S   S7        1.0  0.22915  0.12595  0.89206  1.0000 1.2004941817
S   S8        1.0  0.53967  0.99833  0.59960  1.0000 1.206870162
S   S9        1.0  0.64185  0.78101  0.90096  1.0000 1.1910003062
S   S10       1.0  0.12595  0.22915  0.60794  1.0000 1.2004941817
S   S11       1.0  0.99833  0.53967  0.90040  1.0000 1.2004941817
S   S12       1.0  0.78101  0.64185  0.59904  1.0000 1.1910003062
O   O1        1.0  0.66236  0.78264  0.12295  1.0000 -0.7441355948
O   O2        1.0  0.79270  0.85330  0.06906  1.0000 -0.5599786008
O   O3        1.0  0.77360  0.98760  0.10020  1.0000 -0.599736615
O   O4        1.0  0.44180  0.89660  0.43553  1.0000 -0.5599786008
O   O5        1.0  0.60097  0.44043  0.40337  1.0000 -0.7244677906
O   O6        1.0  0.45410  0.09150  0.41612  1.0000 -0.5852754478
O   O7        1.0  0.56742  0.04778  0.38247  1.0000 -0.7699231569
O   O8        1.0  0.99709  0.64791  0.29307  1.0000 -0.629825509
O   O9        1.0  0.82885  0.65015  0.28750  1.0000 -0.669541261
O   O10       1.0  0.41603  0.99577  0.21911  1.0000 -0.629825509
O   O11       1.0  0.23717  0.85723  0.20031  1.0000 -0.6814069514
O   O12       1.0  0.46230  0.31810  0.08219  1.0000 -0.6179593866
O   O13       1.0  0.25353  0.20267  0.06467  1.0000 -0.5824808363
O   O14       1.0  0.37462  0.11418  0.11652  1.0000 -0.7110000913
O   O15       1.0  0.54683  0.22437  0.29101  1.0000 -0.6519361799
O   O16       1.0  0.56644  0.40376  0.28261  1.0000 -0.6814069514
O   O17       1.0  0.15397  0.61783  0.39523  1.0000 -0.599736615
O   O18       1.0  0.20641  0.62199  0.33159  1.0000 -0.5824808363
O   O19       1.0  0.19658  0.53042  0.52320  1.0000 -0.629825509
O   O20       1.0  0.03688  0.41592  0.47861  1.0000 -0.629825509
O   O21       1.0  0.89477  0.50583  0.39240  1.0000 -1.0119702582
O   O22       1.0  0.88744  0.29836  0.39329  1.0000 -1.180490828
O   O23       1.0  0.68478  0.30522  0.38675  1.0000 -1.1911666415
O   O24       1.0  0.79891  0.40989  0.31104  1.0000 -1.1958721046
O   O25       1.0  0.78264  0.66236  0.37705  1.0000 -0.7441355948
O   O26       1.0  0.85330  0.79270  0.43094  1.0000 -0.5599786008
O   O27       1.0  0.98760  0.77360  0.39980  1.0000 -0.599736615
O   O28       1.0  0.89660  0.44180  0.06447  1.0000 -0.5599786008
O   O29       1.0  0.44043  0.60097  0.09663  1.0000 -0.7255854969
O   O30       1.0  0.09150  0.45410  0.08388  1.0000 -0.5824808363
O   O31       1.0  0.04778  0.56742  0.11753  1.0000 -0.7699231569
O   O32       1.0  0.64791  0.99709  0.20693  1.0000 -0.629825509
O   O33       1.0  0.65015  0.82885  0.21250  1.0000 -0.669541261
O   O34       1.0  0.99577  0.41603  0.28089  1.0000 -0.629825509
O   O35       1.0  0.85723  0.23717  0.29969  1.0000 -0.6814069514
O   O36       1.0  0.31810  0.46230  0.41781  1.0000 -0.6179593866
O   O37       1.0  0.20267  0.25353  0.43533  1.0000 -0.5824808363
O   O38       1.0  0.11418  0.37462  0.38348  1.0000 -0.7110000913
O   O39       1.0  0.22437  0.54683  0.20899  1.0000 -0.6519361799
O   O40       1.0  0.40376  0.56644  0.21739  1.0000 -0.6814069514
O   O41       1.0  0.61783  0.15397  0.10477  1.0000 -0.599736615
O   O42       1.0  0.62199  0.20641  0.16841  1.0000 -0.5824808363
O   O43       1.0  0.53042  0.19658  0.97680  1.0000 -0.629825509
O   O44       1.0  0.41592  0.03688  0.02139  1.0000 -0.6352205042
O   O45       1.0  0.50583  0.89477  0.10760  1.0000 -1.0119702582
O   O46       1.0  0.29836  0.88744  0.10671  1.0000 -1.180490828
O   O47       1.0  0.30522  0.68478  0.11325  1.0000 -1.1911666415
O   O48       1.0  0.40989  0.79891  0.18896  1.0000 -1.1911666415
O   O49       1.0  0.33764  0.21736  0.87705  1.0000 -0.7451939945
O   O50       1.0  0.20730  0.14670  0.93094  1.0000 -0.5599786008
O   O51       1.0  0.22640  0.01240  0.89980  1.0000 -0.599736615
O   O52       1.0  0.55820  0.10340  0.56447  1.0000 -0.5653852586
O   O53       1.0  0.39903  0.55957  0.59663  1.0000 -0.7244677906
O   O54       1.0  0.54590  0.90850  0.58388  1.0000 -0.5824808363
O   O55       1.0  0.43258  0.95222  0.61753  1.0000 -0.7699231569
O   O56       1.0  0.00291  0.35209  0.70693  1.0000 -0.629825509
O   O57       1.0  0.17115  0.34985  0.71250  1.0000 -0.669541261
O   O58       1.0  0.58397  0.00423  0.78089  1.0000 -0.629825509
O   O59       1.0  0.76283  0.14277  0.79969  1.0000 -0.6814069514
O   O60       1.0  0.53770  0.68190  0.91781  1.0000 -0.6179593866
O   O61       1.0  0.74647  0.79733  0.93533  1.0000 -0.5824808363
O   O62       1.0  0.62538  0.88582  0.88348  1.0000 -0.7110000913
O   O63       1.0  0.45317  0.77563  0.70899  1.0000 -0.6519361799
O   O64       1.0  0.43356  0.59624  0.71739  1.0000 -0.6814069514
O   O65       1.0  0.84603  0.38217  0.60477  1.0000 -0.599736615
O   O66       1.0  0.79359  0.37801  0.66841  1.0000 -0.5824808363
O   O67       1.0  0.80342  0.46958  0.47680  1.0000 -0.629825509
O   O68       1.0  0.96312  0.58408  0.52139  1.0000 -0.6352205042
O   O69       1.0  0.10523  0.49417  0.60760  1.0000 -1.0119702582
O   O70       1.0  0.11256  0.70164  0.60671  1.0000 -1.180490828
O   O71       1.0  0.31522  0.69478  0.61325  1.0000 -1.1911666415
O   O72       1.0  0.20109  0.59011  0.68896  1.0000 -1.1911666415
O   O73       1.0  0.21736  0.33764  0.62295  1.0000 -0.7441355948
O   O74       1.0  0.14670  0.20730  0.56906  1.0000 -0.5599786008
O   O75       1.0  0.01240  0.22640  0.60020  1.0000 -0.599736615
O   O76       1.0  0.10340  0.55820  0.93553  1.0000 -0.5653852586
O   O77       1.0  0.55957  0.39903  0.90337  1.0000 -0.7244677906
O   O78       1.0  0.90850  0.54590  0.91612  1.0000 -0.5824808363
O   O79       1.0  0.95222  0.43258  0.88247  1.0000 -0.7699231569
O   O80       1.0  0.35209  0.00291  0.79307  1.0000 -0.629825509
O   O81       1.0  0.34985  0.17115  0.78750  1.0000 -0.669541261
O   O82       1.0  0.00423  0.58397  0.71911  1.0000 -0.629825509
O   O83       1.0  0.14277  0.76283  0.70031  1.0000 -0.6814069514
O   O84       1.0  0.68190  0.53770  0.58219  1.0000 -0.6179593866
O   O85       1.0  0.79733  0.74647  0.56467  1.0000 -0.5852754478
O   O86       1.0  0.88582  0.62538  0.61652  1.0000 -0.7110000913
O   O87       1.0  0.77563  0.45317  0.79101  1.0000 -0.6519361799
O   O88       1.0  0.59624  0.43356  0.78261  1.0000 -0.6814069514
O   O89       1.0  0.38217  0.84603  0.89523  1.0000 -0.599736615
O   O90       1.0  0.37801  0.79359  0.83159  1.0000 -0.5824808363
O   O91       1.0  0.46958  0.80342  0.02320  1.0000 -0.629825509
O   O92       1.0  0.58408  0.96312  0.97861  1.0000 -0.629825509
O   O93       1.0  0.49417  0.10523  0.89240  1.0000 -1.0119702582
O   O94       1.0  0.70164  0.11256  0.89329  1.0000 -1.180490828
O   O95       1.0  0.69478  0.31522  0.88675  1.0000 -1.1911666415
O   O96       1.0  0.59011  0.20109  0.81104  1.0000 -1.1911666415
