# DDEC6 charges by PACMAN v1.1 (https://github.com/mtap-research/PACMAN-charge/)
data_2019[Ho][sra]3[ASR]1
_chemical_formula_sum              "Ho4 H36 C68 O32"
_cell_length_a       11.172
_cell_length_b       8.4729
_cell_length_c       21.1375
_cell_angle_alpha    90
_cell_angle_beta     101.107
_cell_angle_gamma    90

_symmetry_space_group_name_H-M    "P 1"
_symmetry_Int_Tables_number       1

loop_
  _symmetry_equiv_pos_as_xyz
  'x, y, z'

loop_
  _atom_site_type_symbol
  _atom_site_label
  _atom_site_symmetry_multiplicity
  _atom_site_fract_x
  _atom_site_fract_y
  _atom_site_fract_z
  _atom_site_occupancy
  _atom_site_charge
Ho  Ho1       1.0  0.61216  0.89352  0.41630  1.0000 2.0564866246
Ho  Ho2       1.0  0.38784  0.39352  0.08370  1.0000 2.0564866246
Ho  Ho3       1.0  0.38784  0.10648  0.58370  1.0000 2.0564866246
Ho  Ho4       1.0  0.61216  0.60648  0.91630  1.0000 2.0564866246
H   H1        1.0  0.61803  0.06884  0.05260  1.0000 0.3663378836
H   H2        1.0  0.11833  0.09107  0.45323  1.0000 0.1371380867
H   H3        1.0  0.99246  0.16752  0.03846  1.0000 0.128995847
H   H4        1.0  0.22898  0.82951  0.31694  1.0000 0.1218629391
H   H5        1.0  0.94302  0.72490  0.23007  1.0000 0.128995847
H   H6        1.0  0.08327  0.70569  0.23214  1.0000 0.128995847
H   H7        1.0  0.87311  0.91157  0.30639  1.0000 0.1218629391
H   H8        1.0  0.82994  0.87758  0.14587  1.0000 0.1218629391
H   H9        1.0  0.18969  0.95902  0.19535  1.0000 0.128995847
H   H10       1.0  0.38197  0.56884  0.44740  1.0000 0.3663378836
H   H11       1.0  0.88167  0.59107  0.04677  1.0000 0.1371380867
H   H12       1.0  0.00754  0.66752  0.46154  1.0000 0.128995847
H   H13       1.0  0.77102  0.32951  0.18306  1.0000 0.1218629391
H   H14       1.0  0.05698  0.22490  0.26993  1.0000 0.128995847
H   H15       1.0  0.91673  0.20569  0.26786  1.0000 0.128995847
H   H16       1.0  0.12689  0.41157  0.19361  1.0000 0.128995847
H   H17       1.0  0.17006  0.37758  0.35413  1.0000 0.1218629391
H   H18       1.0  0.81031  0.45902  0.30465  1.0000 0.128995847
H   H19       1.0  0.38197  0.93116  0.94740  1.0000 0.3663378836
H   H20       1.0  0.88167  0.90893  0.54677  1.0000 0.1371380867
H   H21       1.0  0.00754  0.83248  0.96154  1.0000 0.128995847
H   H22       1.0  0.77102  0.17049  0.68306  1.0000 0.1218629391
H   H23       1.0  0.05698  0.27510  0.76993  1.0000 0.128995847
H   H24       1.0  0.91673  0.29431  0.76786  1.0000 0.128995847
H   H25       1.0  0.12689  0.08843  0.69361  1.0000 0.128995847
H   H26       1.0  0.17006  0.12242  0.85413  1.0000 0.1218629391
H   H27       1.0  0.81031  0.04098  0.80465  1.0000 0.128995847
H   H28       1.0  0.61803  0.43116  0.55260  1.0000 0.3663378836
H   H29       1.0  0.11833  0.40893  0.95323  1.0000 0.1371380867
H   H30       1.0  0.99246  0.33248  0.53846  1.0000 0.128995847
H   H31       1.0  0.22898  0.67049  0.81694  1.0000 0.1218629391
H   H32       1.0  0.94302  0.77510  0.73007  1.0000 0.128995847
H   H33       1.0  0.08327  0.79431  0.73214  1.0000 0.128995847
H   H34       1.0  0.87311  0.58843  0.80639  1.0000 0.1218629391
H   H35       1.0  0.82994  0.62242  0.64587  1.0000 0.1218629391
H   H36       1.0  0.18969  0.54098  0.69535  1.0000 0.128995847
C   C1        1.0  0.01120  0.89710  0.17887  1.0000 0.1371380867
C   C2        1.0  0.10040  0.03050  0.41591  1.0000 -0.0994382116
C   C3        1.0  0.89160  0.03120  0.08604  1.0000 -0.0309874844
C   C4        1.0  0.04630  0.86260  0.29975  1.0000 0.128995847
C   C5        1.0  0.10870  0.07630  0.11536  1.0000 -0.0137732035
C   C6        1.0  0.99650  0.10210  0.07414  1.0000 -0.0994382116
C   C7        1.0  0.16620  0.87640  0.33333  1.0000 -0.1745900499
C   C8        1.0  0.88000  0.08380  0.41092  1.0000 0.6099213542
C   C9        1.0  0.97990  0.01030  0.38410  1.0000 -0.0361859313
C   C10       1.0  0.01950  0.78190  0.23440  1.0000 -0.3393373309
C   C11       1.0  0.95390  0.92580  0.32682  1.0000 -0.1745900499
C   C12       1.0  0.19320  0.95920  0.39123  1.0000 -0.0361859313
C   C13       1.0  0.76820  0.06780  0.04586  1.0000 0.5553807797
C   C14       1.0  0.90000  0.92730  0.13823  1.0000 -0.1814845248
C   C15       1.0  0.11530  0.97510  0.16761  1.0000 -0.1512954203
C   C16       1.0  0.32220  0.97230  0.42646  1.0000 0.6718393149
C   C17       1.0  0.21470  0.16930  0.10303  1.0000 0.5775149049
C   C18       1.0  0.98880  0.39710  0.32113  1.0000 0.1371380867
C   C19       1.0  0.89960  0.53050  0.08409  1.0000 -0.0994382116
C   C20       1.0  0.10840  0.53120  0.41396  1.0000 -0.0309874844
C   C21       1.0  0.95370  0.36260  0.20025  1.0000 0.128995847
C   C22       1.0  0.89130  0.57630  0.38464  1.0000 -0.0137732035
C   C23       1.0  0.00350  0.60210  0.42586  1.0000 -0.0994382116
C   C24       1.0  0.83380  0.37640  0.16667  1.0000 -0.1745900499
C   C25       1.0  0.12000  0.58380  0.08908  1.0000 0.6099213542
C   C26       1.0  0.02010  0.51030  0.11590  1.0000 -0.0309874844
C   C27       1.0  0.98050  0.28190  0.26560  1.0000 -0.3393373309
C   C28       1.0  0.04610  0.42580  0.17318  1.0000 -0.1745900499
C   C29       1.0  0.80680  0.45920  0.10877  1.0000 -0.0361859313
C   C30       1.0  0.23180  0.56780  0.45414  1.0000 0.5553807797
C   C31       1.0  0.10000  0.42730  0.36177  1.0000 -0.1814845248
C   C32       1.0  0.88470  0.47510  0.33239  1.0000 -0.1512954203
C   C33       1.0  0.67780  0.47230  0.07354  1.0000 0.6718393149
C   C34       1.0  0.78530  0.66930  0.39697  1.0000 0.5775149049
C   C35       1.0  0.98880  0.10290  0.82113  1.0000 0.1371380867
C   C36       1.0  0.89960  0.96950  0.58409  1.0000 -0.0994382116
C   C37       1.0  0.10840  0.96880  0.91396  1.0000 -0.0309874844
C   C38       1.0  0.95370  0.13740  0.70025  1.0000 0.128995847
C   C39       1.0  0.89130  0.92370  0.88464  1.0000 -0.0137732035
C   C40       1.0  0.00350  0.89790  0.92586  1.0000 -0.0994382116
C   C41       1.0  0.83380  0.12360  0.66667  1.0000 -0.1745900499
C   C42       1.0  0.12000  0.91620  0.58908  1.0000 0.6099213542
C   C43       1.0  0.02010  0.98970  0.61590  1.0000 -0.0309874844
C   C44       1.0  0.98050  0.21810  0.76560  1.0000 -0.3393373309
C   C45       1.0  0.04610  0.07420  0.67318  1.0000 -0.1745900499
C   C46       1.0  0.80680  0.04080  0.60877  1.0000 -0.0361859313
C   C47       1.0  0.23180  0.93220  0.95414  1.0000 0.5553807797
C   C48       1.0  0.10000  0.07270  0.86177  1.0000 -0.1814845248
C   C49       1.0  0.88470  0.02490  0.83239  1.0000 -0.1512954203
C   C50       1.0  0.67780  0.02770  0.57354  1.0000 0.6718393149
C   C51       1.0  0.78530  0.83070  0.89697  1.0000 0.5775149049
C   C52       1.0  0.01120  0.60290  0.67887  1.0000 0.1371380867
C   C53       1.0  0.10040  0.46950  0.91591  1.0000 -0.0994382116
C   C54       1.0  0.89160  0.46880  0.58604  1.0000 -0.0309874844
C   C55       1.0  0.04630  0.63740  0.79975  1.0000 0.128995847
C   C56       1.0  0.10870  0.42370  0.61536  1.0000 -0.0137732035
C   C57       1.0  0.99650  0.39790  0.57414  1.0000 -0.0994382116
C   C58       1.0  0.16620  0.62360  0.83333  1.0000 -0.1745900499
C   C59       1.0  0.88000  0.41620  0.91092  1.0000 0.6099213542
C   C60       1.0  0.97990  0.48970  0.88410  1.0000 -0.0309874844
C   C61       1.0  0.01950  0.71810  0.73440  1.0000 -0.3393373309
C   C62       1.0  0.95390  0.57420  0.82682  1.0000 -0.1745900499
C   C63       1.0  0.19320  0.54080  0.89123  1.0000 -0.0361859313
C   C64       1.0  0.76820  0.43220  0.54586  1.0000 0.5553807797
C   C65       1.0  0.90000  0.57270  0.63823  1.0000 -0.1814845248
C   C66       1.0  0.11530  0.52490  0.66761  1.0000 -0.1512954203
C   C67       1.0  0.32220  0.52770  0.92646  1.0000 0.6718393149
C   C68       1.0  0.21470  0.33070  0.60303  1.0000 0.5775149049
O   O1        1.0  0.77240  0.04430  0.39331  1.0000 -0.6444130658
O   O2        1.0  0.21080  0.23460  0.04930  1.0000 -0.6173224865
O   O3        1.0  0.40360  0.90040  0.40444  1.0000 -0.7284058152
O   O4        1.0  0.30930  0.19030  0.14779  1.0000 -0.669559878
O   O5        1.0  0.75840  0.15850  0.99718  1.0000 -0.5155816494
O   O6        1.0  0.67630  0.00900  0.06270  1.0000 -0.42529418
O   O7        1.0  0.34520  0.05790  0.47654  1.0000 -0.7082475243
O   O8        1.0  0.91450  0.19230  0.45291  1.0000 -0.4836594282
O   O9        1.0  0.22760  0.54430  0.10669  1.0000 -0.6444130658
O   O10       1.0  0.78920  0.73460  0.45070  1.0000 -0.6173224865
O   O11       1.0  0.59640  0.40040  0.09556  1.0000 -0.7284058152
O   O12       1.0  0.69070  0.69030  0.35221  1.0000 -0.669559878
O   O13       1.0  0.24160  0.65850  0.50282  1.0000 -0.5155816494
O   O14       1.0  0.32370  0.50900  0.43730  1.0000 -0.42529418
O   O15       1.0  0.65480  0.55790  0.02346  1.0000 -0.7082475243
O   O16       1.0  0.08550  0.69230  0.04709  1.0000 -0.4836594282
O   O17       1.0  0.22760  0.95570  0.60669  1.0000 -0.6444130658
O   O18       1.0  0.78920  0.76540  0.95070  1.0000 -0.6173224865
O   O19       1.0  0.59640  0.09960  0.59556  1.0000 -0.7284058152
O   O20       1.0  0.69070  0.80970  0.85221  1.0000 -0.669559878
O   O21       1.0  0.24160  0.84150  0.00282  1.0000 -0.5155816494
O   O22       1.0  0.32370  0.99100  0.93730  1.0000 -0.42529418
O   O23       1.0  0.65480  0.94210  0.52346  1.0000 -0.7082475243
O   O24       1.0  0.08550  0.80770  0.54709  1.0000 -0.4836594282
O   O25       1.0  0.77240  0.45570  0.89331  1.0000 -0.6444130658
O   O26       1.0  0.21080  0.26540  0.54930  1.0000 -0.6173224865
O   O27       1.0  0.40360  0.59960  0.90444  1.0000 -0.7284058152
O   O28       1.0  0.30930  0.30970  0.64779  1.0000 -0.669559878
O   O29       1.0  0.75840  0.34150  0.49718  1.0000 -0.5155816494
O   O30       1.0  0.67630  0.49100  0.56270  1.0000 -0.42529418
O   O31       1.0  0.34520  0.44210  0.97654  1.0000 -0.7082475243
O   O32       1.0  0.91450  0.30770  0.95291  1.0000 -0.4836594282
