# DDEC6 charges by PACMAN v1.1 (https://github.com/mtap-research/PACMAN-charge/)
data_2019[CdSi][sql]2[ASR]1
_chemical_formula_sum              "Cd4 Si4 H112 C116 N8 O16"
_cell_length_a       6.2527
_cell_length_b       21.4402
_cell_length_c       24.0515
_cell_angle_alpha    90
_cell_angle_beta     90
_cell_angle_gamma    90

_symmetry_space_group_name_H-M    "P 1"
_symmetry_Int_Tables_number       1

loop_
  _symmetry_equiv_pos_as_xyz
  'x, y, z'

loop_
  _atom_site_type_symbol
  _atom_site_label
  _atom_site_symmetry_multiplicity
  _atom_site_fract_x
  _atom_site_fract_y
  _atom_site_fract_z
  _atom_site_occupancy
  _atom_site_charge
Cd  Cd1       1.0  0.03648  0.70671  0.40044  1.0000 0.8188513927
Cd  Cd2       1.0  0.96352  0.79329  0.90044  1.0000 0.8188513927
Cd  Cd3       1.0  0.03648  0.29329  0.59956  1.0000 0.8188513927
Cd  Cd4       1.0  0.96352  0.20671  0.09956  1.0000 0.8188513927
Si  Si1       1.0  0.52467  0.00816  0.61979  1.0000 0.8719895891
Si  Si2       1.0  0.47533  0.49184  0.11979  1.0000 0.8719895891
Si  Si3       1.0  0.52467  0.99184  0.38021  1.0000 0.8719895891
Si  Si4       1.0  0.47533  0.50816  0.88021  1.0000 0.8719895891
H   H1        1.0  0.48840  0.80560  0.52440  1.0000 0.1223570397
H   H2        1.0  0.36920  0.88390  0.58410  1.0000 0.1098950861
H   H3        1.0  0.91820  0.97930  0.55790  1.0000 0.1098950861
H   H4        1.0  0.04580  0.89810  0.50340  1.0000 0.1223570397
H   H5        1.0  0.84600  0.04210  0.66380  1.0000 0.1541860066
H   H6        1.0  0.68120  0.09910  0.65980  1.0000 0.1592859588
H   H7        1.0  0.81530  0.07850  0.60620  1.0000 0.1770256906
H   H8        1.0  0.40110  0.07380  0.54730  1.0000 0.1770256906
H   H9        1.0  0.24230  0.07820  0.59930  1.0000 0.1675984822
H   H10       1.0  0.23080  0.01950  0.55840  1.0000 0.1592859588
H   H11       1.0  0.65590  0.97930  0.73410  1.0000 0.101447802
H   H12       1.0  0.51670  0.92490  0.80890  1.0000 0.1223570397
H   H13       1.0  0.95730  0.90610  0.72710  1.0000 0.1098950861
H   H14       1.0  0.10250  0.95670  0.65050  1.0000 0.1098950861
H   H15       1.0  0.35530  0.65530  0.49710  1.0000 0.1098950861
H   H16       1.0  0.36480  0.59010  0.57490  1.0000 0.132105908
H   H17       1.0  0.75730  0.54390  0.54510  1.0000 0.132105908
H   H18       1.0  0.76010  0.60830  0.46830  1.0000 0.1098950861
H   H19       1.0  0.17300  0.48480  0.61480  1.0000 0.1223570397
H   H20       1.0  0.92200  0.49700  0.62210  1.0000 0.1098950861
H   H21       1.0  0.12410  0.52630  0.70430  1.0000 0.101447802
H   H22       1.0  0.24320  0.57880  0.66840  1.0000 0.0912269679
H   H23       1.0  0.80180  0.57410  0.68830  1.0000 0.1098950861
H   H24       1.0  0.91760  0.62590  0.65120  1.0000 0.1098950861
H   H25       1.0  0.71220  0.67980  0.84530  1.0000 0.1098950861
H   H26       1.0  0.69660  0.61160  0.77180  1.0000 0.1363657079
H   H27       1.0  0.25170  0.67970  0.71730  1.0000 0.132105908
H   H28       1.0  0.26560  0.74400  0.79520  1.0000 0.1098950861
H   H29       1.0  0.51160  0.69440  0.02440  1.0000 0.1223570397
H   H30       1.0  0.63080  0.61610  0.08410  1.0000 0.1098950861
H   H31       1.0  0.08180  0.52070  0.05790  1.0000 0.1098950861
H   H32       1.0  0.95420  0.60190  0.00340  1.0000 0.1223570397
H   H33       1.0  0.15400  0.45790  0.16380  1.0000 0.1541860066
H   H34       1.0  0.31880  0.40090  0.15980  1.0000 0.1592859588
H   H35       1.0  0.18470  0.42150  0.10620  1.0000 0.1770256906
H   H36       1.0  0.59890  0.42620  0.04730  1.0000 0.1770256906
H   H37       1.0  0.75770  0.42180  0.09930  1.0000 0.1675984822
H   H38       1.0  0.76920  0.48050  0.05840  1.0000 0.1592859588
H   H39       1.0  0.34410  0.52070  0.23410  1.0000 0.101447802
H   H40       1.0  0.48330  0.57510  0.30890  1.0000 0.1223570397
H   H41       1.0  0.04270  0.59390  0.22710  1.0000 0.1098950861
H   H42       1.0  0.89750  0.54330  0.15050  1.0000 0.1098950861
H   H43       1.0  0.64470  0.84470  0.99710  1.0000 0.1098950861
H   H44       1.0  0.63520  0.90990  0.07490  1.0000 0.132105908
H   H45       1.0  0.24270  0.95610  0.04510  1.0000 0.132105908
H   H46       1.0  0.23990  0.89170  0.96830  1.0000 0.1098950861
H   H47       1.0  0.82700  0.01520  0.11480  1.0000 0.1223570397
H   H48       1.0  0.07800  0.00300  0.12210  1.0000 0.1098950861
H   H49       1.0  0.87590  0.97370  0.20430  1.0000 0.101447802
H   H50       1.0  0.75680  0.92120  0.16840  1.0000 0.0912269679
H   H51       1.0  0.19820  0.92590  0.18830  1.0000 0.1098950861
H   H52       1.0  0.08240  0.87410  0.15120  1.0000 0.1098950861
H   H53       1.0  0.28780  0.82020  0.34530  1.0000 0.1098950861
H   H54       1.0  0.30340  0.88840  0.27180  1.0000 0.1363657079
H   H55       1.0  0.74830  0.82030  0.21730  1.0000 0.132105908
H   H56       1.0  0.73440  0.75600  0.29520  1.0000 0.1098950861
H   H57       1.0  0.48840  0.19440  0.47560  1.0000 0.1223570397
H   H58       1.0  0.36920  0.11610  0.41590  1.0000 0.1098950861
H   H59       1.0  0.91820  0.02070  0.44210  1.0000 0.1098950861
H   H60       1.0  0.04580  0.10190  0.49660  1.0000 0.1223570397
H   H61       1.0  0.84600  0.95790  0.33620  1.0000 0.1541860066
H   H62       1.0  0.68120  0.90090  0.34020  1.0000 0.1592859588
H   H63       1.0  0.81530  0.92150  0.39380  1.0000 0.1770256906
H   H64       1.0  0.40110  0.92620  0.45270  1.0000 0.1770256906
H   H65       1.0  0.24230  0.92180  0.40070  1.0000 0.1675984822
H   H66       1.0  0.23080  0.98050  0.44160  1.0000 0.1592859588
H   H67       1.0  0.65590  0.02070  0.26590  1.0000 0.101447802
H   H68       1.0  0.51670  0.07510  0.19110  1.0000 0.1223570397
H   H69       1.0  0.95730  0.09390  0.27290  1.0000 0.1098950861
H   H70       1.0  0.10250  0.04330  0.34950  1.0000 0.1098950861
H   H71       1.0  0.35530  0.34470  0.50290  1.0000 0.1098950861
H   H72       1.0  0.36480  0.40990  0.42510  1.0000 0.132105908
H   H73       1.0  0.75730  0.45610  0.45490  1.0000 0.132105908
H   H74       1.0  0.76010  0.39170  0.53170  1.0000 0.1098950861
H   H75       1.0  0.17300  0.51520  0.38520  1.0000 0.1223570397
H   H76       1.0  0.92200  0.50300  0.37790  1.0000 0.1098950861
H   H77       1.0  0.12410  0.47370  0.29570  1.0000 0.101447802
H   H78       1.0  0.24320  0.42120  0.33160  1.0000 0.0912269679
H   H79       1.0  0.80180  0.42590  0.31170  1.0000 0.1098950861
H   H80       1.0  0.91760  0.37410  0.34880  1.0000 0.1098950861
H   H81       1.0  0.71220  0.32020  0.15470  1.0000 0.1098950861
H   H82       1.0  0.69660  0.38840  0.22820  1.0000 0.1363657079
H   H83       1.0  0.25170  0.32030  0.28270  1.0000 0.132105908
H   H84       1.0  0.26560  0.25600  0.20480  1.0000 0.1098950861
H   H85       1.0  0.51160  0.30560  0.97560  1.0000 0.1223570397
H   H86       1.0  0.63080  0.38390  0.91590  1.0000 0.1098950861
H   H87       1.0  0.08180  0.47930  0.94210  1.0000 0.1098950861
H   H88       1.0  0.95420  0.39810  0.99660  1.0000 0.1223570397
H   H89       1.0  0.15400  0.54210  0.83620  1.0000 0.1541860066
H   H90       1.0  0.31880  0.59910  0.84020  1.0000 0.1592859588
H   H91       1.0  0.18470  0.57850  0.89380  1.0000 0.1770256906
H   H92       1.0  0.59890  0.57380  0.95270  1.0000 0.1770256906
H   H93       1.0  0.75770  0.57820  0.90070  1.0000 0.1675984822
H   H94       1.0  0.76920  0.51950  0.94160  1.0000 0.1592859588
H   H95       1.0  0.34410  0.47930  0.76590  1.0000 0.101447802
H   H96       1.0  0.48330  0.42490  0.69110  1.0000 0.1223570397
H   H97       1.0  0.04270  0.40610  0.77290  1.0000 0.1098950861
H   H98       1.0  0.89750  0.45670  0.84950  1.0000 0.1098950861
H   H99       1.0  0.64470  0.15530  0.00290  1.0000 0.1098950861
H   H100      1.0  0.63520  0.09010  0.92510  1.0000 0.132105908
H   H101      1.0  0.24270  0.04390  0.95490  1.0000 0.132105908
H   H102      1.0  0.23990  0.10830  0.03170  1.0000 0.1098950861
H   H103      1.0  0.82700  0.98480  0.88520  1.0000 0.1223570397
H   H104      1.0  0.07800  0.99700  0.87790  1.0000 0.1098950861
H   H105      1.0  0.87590  0.02630  0.79570  1.0000 0.101447802
H   H106      1.0  0.75680  0.07880  0.83160  1.0000 0.0912269679
H   H107      1.0  0.19820  0.07410  0.81170  1.0000 0.1098950861
H   H108      1.0  0.08240  0.12590  0.84880  1.0000 0.1098950861
H   H109      1.0  0.28780  0.17980  0.65470  1.0000 0.1098950861
H   H110      1.0  0.30340  0.11160  0.72820  1.0000 0.1363657079
H   H111      1.0  0.74830  0.17970  0.78270  1.0000 0.132105908
H   H112      1.0  0.73440  0.24400  0.70480  1.0000 0.1098950861
C   C1        1.0  0.86590  0.79270  0.47216  1.0000 0.539863389
C   C2        1.0  0.78090  0.84411  0.50883  1.0000 -0.0038395592
C   C3        1.0  0.57760  0.84034  0.53221  1.0000 -0.1025853865
C   C4        1.0  0.50550  0.88766  0.56700  1.0000 -0.0804228373
C   C5        1.0  0.63020  0.94100  0.57744  1.0000 -0.2145898082
C   C6        1.0  0.83100  0.94360  0.55220  1.0000 -0.0881985687
C   C7        1.0  0.90660  0.89557  0.51910  1.0000 -0.1108152495
C   C8        1.0  0.74280  0.06360  0.63978  1.0000 -0.7627618425
C   C9        1.0  0.32630  0.04980  0.57606  1.0000 -0.7627618425
C   C10       1.0  0.39690  0.97369  0.68335  1.0000 -0.2145898082
C   C11       1.0  0.51390  0.96372  0.73198  1.0000 -0.0881985687
C   C12       1.0  0.43060  0.93210  0.77700  1.0000 -0.1108152495
C   C13       1.0  0.22160  0.91090  0.77572  1.0000 -0.0038395592
C   C14       1.0  0.10080  0.92050  0.72841  1.0000 -0.1221476141
C   C15       1.0  0.18760  0.95110  0.68282  1.0000 -0.0881985687
C   C16       1.0  0.12290  0.87550  0.82370  1.0000 0.5272105746
C   C17       1.0  0.23140  0.63170  0.50610  1.0000 0.0912269679
C   C18       1.0  0.23790  0.59270  0.55330  1.0000 -0.2185160555
C   C19       1.0  0.06480  0.55920  0.56770  1.0000 0.1592859588
C   C20       1.0  0.88410  0.56590  0.53560  1.0000 -0.2185160555
C   C21       1.0  0.88670  0.60440  0.48980  1.0000 0.0594297386
C   C22       1.0  0.06300  0.51760  0.61890  1.0000 -0.2485062219
C   C23       1.0  0.10770  0.55530  0.67260  1.0000 -0.1418160238
C   C24       1.0  0.93560  0.59830  0.68400  1.0000 -0.2485062219
C   C25       1.0  0.82630  0.68020  0.81920  1.0000 0.0794747826
C   C26       1.0  0.81370  0.63960  0.77470  1.0000 -0.2041880079
C   C27       1.0  0.96450  0.63970  0.73590  1.0000 0.1592859588
C   C28       1.0  0.13820  0.67910  0.74350  1.0000 -0.2041880079
C   C29       1.0  0.14460  0.71780  0.79010  1.0000 0.0794747826
C   C30       1.0  0.13410  0.70730  0.97216  1.0000 0.539863389
C   C31       1.0  0.21910  0.65589  0.00883  1.0000 -0.0038395592
C   C32       1.0  0.42240  0.65966  0.03221  1.0000 -0.1025853865
C   C33       1.0  0.49450  0.61234  0.06700  1.0000 -0.0804228373
C   C34       1.0  0.36980  0.55900  0.07744  1.0000 -0.2145898082
C   C35       1.0  0.16900  0.55640  0.05220  1.0000 -0.0881985687
C   C36       1.0  0.09340  0.60443  0.01910  1.0000 -0.1108152495
C   C37       1.0  0.25720  0.43640  0.13978  1.0000 -0.7627618425
C   C38       1.0  0.67370  0.45020  0.07606  1.0000 -0.7627618425
C   C39       1.0  0.60310  0.52631  0.18335  1.0000 -0.2145898082
C   C40       1.0  0.48610  0.53628  0.23198  1.0000 -0.0881985687
C   C41       1.0  0.56940  0.56790  0.27700  1.0000 -0.1108152495
C   C42       1.0  0.77840  0.58910  0.27572  1.0000 -0.0038395592
C   C43       1.0  0.89920  0.57950  0.22841  1.0000 -0.1221476141
C   C44       1.0  0.81240  0.54890  0.18282  1.0000 -0.0881985687
C   C45       1.0  0.87710  0.62450  0.32370  1.0000 0.5272105746
C   C46       1.0  0.76860  0.86830  0.00610  1.0000 0.0912269679
C   C47       1.0  0.76210  0.90730  0.05330  1.0000 -0.2185160555
C   C48       1.0  0.93520  0.94080  0.06770  1.0000 0.1592859588
C   C49       1.0  0.11590  0.93410  0.03560  1.0000 -0.2185160555
C   C50       1.0  0.11330  0.89560  0.98980  1.0000 0.0594297386
C   C51       1.0  0.93700  0.98240  0.11890  1.0000 -0.2485062219
C   C52       1.0  0.89230  0.94470  0.17260  1.0000 -0.1418160238
C   C53       1.0  0.06440  0.90170  0.18400  1.0000 -0.2485062219
C   C54       1.0  0.17370  0.81980  0.31920  1.0000 0.0794747826
C   C55       1.0  0.18630  0.86040  0.27470  1.0000 -0.2041880079
C   C56       1.0  0.03550  0.86030  0.23590  1.0000 0.1592859588
C   C57       1.0  0.86180  0.82090  0.24350  1.0000 -0.2041880079
C   C58       1.0  0.85540  0.78220  0.29010  1.0000 0.0794747826
C   C59       1.0  0.86590  0.20730  0.52784  1.0000 0.539863389
C   C60       1.0  0.78090  0.15589  0.49117  1.0000 -0.0038395592
C   C61       1.0  0.57760  0.15966  0.46779  1.0000 -0.1025853865
C   C62       1.0  0.50550  0.11234  0.43300  1.0000 -0.0804228373
C   C63       1.0  0.63020  0.05900  0.42256  1.0000 -0.2145898082
C   C64       1.0  0.83100  0.05640  0.44780  1.0000 -0.0881985687
C   C65       1.0  0.90660  0.10443  0.48090  1.0000 -0.1108152495
C   C66       1.0  0.74280  0.93640  0.36022  1.0000 -0.7627618425
C   C67       1.0  0.32630  0.95020  0.42394  1.0000 -0.7627618425
C   C68       1.0  0.39690  0.02631  0.31665  1.0000 -0.2145898082
C   C69       1.0  0.51390  0.03628  0.26802  1.0000 -0.0881985687
C   C70       1.0  0.43060  0.06790  0.22300  1.0000 -0.1108152495
C   C71       1.0  0.22160  0.08910  0.22428  1.0000 -0.0038395592
C   C72       1.0  0.10080  0.07950  0.27159  1.0000 -0.1221476141
C   C73       1.0  0.18760  0.04890  0.31718  1.0000 -0.0881985687
C   C74       1.0  0.12290  0.12450  0.17630  1.0000 0.5272105746
C   C75       1.0  0.23140  0.36830  0.49390  1.0000 0.0912269679
C   C76       1.0  0.23790  0.40730  0.44670  1.0000 -0.2185160555
C   C77       1.0  0.06480  0.44080  0.43230  1.0000 0.1592859588
C   C78       1.0  0.88410  0.43410  0.46440  1.0000 -0.2185160555
C   C79       1.0  0.88670  0.39560  0.51020  1.0000 0.0594297386
C   C80       1.0  0.06300  0.48240  0.38110  1.0000 -0.2485062219
C   C81       1.0  0.10770  0.44470  0.32740  1.0000 -0.1418160238
C   C82       1.0  0.93560  0.40170  0.31600  1.0000 -0.2485062219
C   C83       1.0  0.82630  0.31980  0.18080  1.0000 0.0794747826
C   C84       1.0  0.81370  0.36040  0.22530  1.0000 -0.2041880079
C   C85       1.0  0.96450  0.36030  0.26410  1.0000 0.1592859588
C   C86       1.0  0.13820  0.32090  0.25650  1.0000 -0.2041880079
C   C87       1.0  0.14460  0.28220  0.20990  1.0000 0.0794747826
C   C88       1.0  0.13410  0.29270  0.02784  1.0000 0.539863389
C   C89       1.0  0.21910  0.34411  0.99117  1.0000 -0.0038395592
C   C90       1.0  0.42240  0.34034  0.96779  1.0000 -0.1025853865
C   C91       1.0  0.49450  0.38766  0.93300  1.0000 -0.0804228373
C   C92       1.0  0.36980  0.44100  0.92256  1.0000 -0.2145898082
C   C93       1.0  0.16900  0.44360  0.94780  1.0000 -0.0881985687
C   C94       1.0  0.09340  0.39557  0.98090  1.0000 -0.1108152495
C   C95       1.0  0.25720  0.56360  0.86022  1.0000 -0.7627618425
C   C96       1.0  0.67370  0.54980  0.92394  1.0000 -0.7627618425
C   C97       1.0  0.60310  0.47369  0.81665  1.0000 -0.2145898082
C   C98       1.0  0.48610  0.46372  0.76802  1.0000 -0.0881985687
C   C99       1.0  0.56940  0.43210  0.72300  1.0000 -0.1108152495
C   C100      1.0  0.77840  0.41090  0.72428  1.0000 -0.0038395592
C   C101      1.0  0.89920  0.42050  0.77159  1.0000 -0.1221476141
C   C102      1.0  0.81240  0.45110  0.81718  1.0000 -0.0881985687
C   C103      1.0  0.87710  0.37550  0.67630  1.0000 0.5272105746
C   C104      1.0  0.76860  0.13170  0.99390  1.0000 0.0912269679
C   C105      1.0  0.76210  0.09270  0.94670  1.0000 -0.2185160555
C   C106      1.0  0.93520  0.05920  0.93230  1.0000 0.1592859588
C   C107      1.0  0.11590  0.06590  0.96440  1.0000 -0.2185160555
C   C108      1.0  0.11330  0.10440  0.01020  1.0000 0.0594297386
C   C109      1.0  0.93700  0.01760  0.88110  1.0000 -0.2485062219
C   C110      1.0  0.89230  0.05530  0.82740  1.0000 -0.1418160238
C   C111      1.0  0.06440  0.09830  0.81600  1.0000 -0.2485062219
C   C112      1.0  0.17370  0.18020  0.68080  1.0000 0.0794747826
C   C113      1.0  0.18630  0.13960  0.72530  1.0000 -0.2041880079
C   C114      1.0  0.03550  0.13970  0.76410  1.0000 0.1592859588
C   C115      1.0  0.86180  0.17910  0.75650  1.0000 -0.2041880079
C   C116      1.0  0.85540  0.21780  0.70990  1.0000 0.0794747826
N   N1        1.0  0.06320  0.63710  0.47418  1.0000 -0.232454462
N   N2        1.0  0.98580  0.71957  0.82813  1.0000 -0.232454462
N   N3        1.0  0.93680  0.86290  0.97418  1.0000 -0.232454462
N   N4        1.0  0.01420  0.78043  0.32813  1.0000 -0.232454462
N   N5        1.0  0.06320  0.36290  0.52582  1.0000 -0.232454462
N   N6        1.0  0.98580  0.28043  0.17187  1.0000 -0.232454462
N   N7        1.0  0.93680  0.13710  0.02582  1.0000 -0.232454462
N   N8        1.0  0.01420  0.21957  0.67187  1.0000 -0.232454462
O   O1        1.0  0.74110  0.75231  0.45410  1.0000 -0.5427355729
O   O2        1.0  0.06070  0.79259  0.46080  1.0000 -0.5482509621
O   O3        1.0  0.24910  0.85442  0.86092  1.0000 -0.5689489432
O   O4        1.0  0.92930  0.86640  0.82457  1.0000 -0.5427355729
O   O5        1.0  0.25890  0.74769  0.95410  1.0000 -0.5427355729
O   O6        1.0  0.93930  0.70741  0.96080  1.0000 -0.5482509621
O   O7        1.0  0.75090  0.64558  0.36092  1.0000 -0.5689489432
O   O8        1.0  0.07070  0.63360  0.32457  1.0000 -0.5427355729
O   O9        1.0  0.74110  0.24769  0.54590  1.0000 -0.5427355729
O   O10       1.0  0.06070  0.20741  0.53920  1.0000 -0.5482509621
O   O11       1.0  0.24910  0.14558  0.13908  1.0000 -0.5689489432
O   O12       1.0  0.92930  0.13360  0.17543  1.0000 -0.5427355729
O   O13       1.0  0.25890  0.25231  0.04590  1.0000 -0.5427355729
O   O14       1.0  0.93930  0.29259  0.03920  1.0000 -0.5482509621
O   O15       1.0  0.75090  0.35442  0.63908  1.0000 -0.5689489432
O   O16       1.0  0.07070  0.36640  0.67543  1.0000 -0.5427355729
