# DDEC6 charges by PACMAN v1.1 (https://github.com/mtap-research/PACMAN-charge/)
data_2019[Cu][mot]3[ASR]1
_chemical_formula_sum              "Cu12 H36 C96 Br12 O48"
_cell_length_a       18.5007
_cell_length_b       18.5007
_cell_length_c       18.1901
_cell_angle_alpha    75.0385
_cell_angle_beta     104.961
_cell_angle_gamma    108.398

_symmetry_space_group_name_H-M    "P 1"
_symmetry_Int_Tables_number       1

loop_
  _symmetry_equiv_pos_as_xyz
  'x, y, z'

loop_
  _atom_site_type_symbol
  _atom_site_label
  _atom_site_symmetry_multiplicity
  _atom_site_fract_x
  _atom_site_fract_y
  _atom_site_fract_z
  _atom_site_occupancy
  _atom_site_charge
Cu  Cu1       1.0  0.00873  0.94919  0.06523  1.0000 0.8446898438
Cu  Cu2       1.0  0.06540  0.52722  0.04683  1.0000 0.8567404203
Cu  Cu3       1.0  0.05298  0.56080  0.47294  1.0000 0.8567404203
Cu  Cu4       1.0  0.94919  0.00873  0.43477  1.0000 0.8446898438
Cu  Cu5       1.0  0.52722  0.06540  0.45317  1.0000 0.8567404203
Cu  Cu6       1.0  0.56080  0.05298  0.02706  1.0000 0.8567404203
Cu  Cu7       1.0  0.99127  0.05081  0.93477  1.0000 0.8446898438
Cu  Cu8       1.0  0.93460  0.47278  0.95317  1.0000 0.8567404203
Cu  Cu9       1.0  0.94702  0.43920  0.52706  1.0000 0.8567404203
Cu  Cu10      1.0  0.05081  0.99127  0.56523  1.0000 0.8446898438
Cu  Cu11      1.0  0.47278  0.93460  0.54683  1.0000 0.8567404203
Cu  Cu12      1.0  0.43920  0.94702  0.97294  1.0000 0.8567404203
H   H1        1.0  0.01290  0.76110  0.97400  1.0000 0.1385935312
H   H2        1.0  0.00670  0.91810  0.77380  1.0000 0.1289980911
H   H3        1.0  0.02670  0.26170  0.49430  1.0000 0.1385935312
H   H4        1.0  0.96820  0.51280  0.23930  1.0000 0.1385935312
H   H5        1.0  0.00580  0.82460  0.71010  1.0000 0.1385935312
H   H6        1.0  0.77140  0.49740  0.07970  1.0000 0.1385935312
H   H7        1.0  0.70670  0.49490  0.17240  1.0000 0.1228159346
H   H8        1.0  0.19430  0.44130  0.41680  1.0000 0.1385935312
H   H9        1.0  0.23190  0.35670  0.36810  1.0000 0.1289980911
H   H10       1.0  0.76110  0.01290  0.52600  1.0000 0.1385935312
H   H11       1.0  0.91810  0.00670  0.72620  1.0000 0.1289980911
H   H12       1.0  0.26170  0.02670  0.00570  1.0000 0.1385935312
H   H13       1.0  0.51280  0.96820  0.26070  1.0000 0.1385935312
H   H14       1.0  0.82460  0.00580  0.78990  1.0000 0.1385935312
H   H15       1.0  0.49740  0.77140  0.42030  1.0000 0.1385935312
H   H16       1.0  0.49490  0.70670  0.32760  1.0000 0.1228159346
H   H17       1.0  0.44130  0.19430  0.08320  1.0000 0.1385935312
H   H18       1.0  0.35670  0.23190  0.13190  1.0000 0.1289980911
H   H19       1.0  0.98710  0.23890  0.02600  1.0000 0.1385935312
H   H20       1.0  0.99330  0.08190  0.22620  1.0000 0.1289980911
H   H21       1.0  0.97330  0.73830  0.50570  1.0000 0.1385935312
H   H22       1.0  0.03180  0.48720  0.76070  1.0000 0.1385935312
H   H23       1.0  0.99420  0.17540  0.28990  1.0000 0.1385935312
H   H24       1.0  0.22860  0.50260  0.92030  1.0000 0.1385935312
H   H25       1.0  0.29330  0.50510  0.82760  1.0000 0.1228159346
H   H26       1.0  0.80570  0.55870  0.58320  1.0000 0.1385935312
H   H27       1.0  0.76810  0.64330  0.63190  1.0000 0.1289980911
H   H28       1.0  0.23890  0.98710  0.47400  1.0000 0.1385935312
H   H29       1.0  0.08190  0.99330  0.27380  1.0000 0.1289980911
H   H30       1.0  0.73830  0.97330  0.99430  1.0000 0.1385935312
H   H31       1.0  0.48720  0.03180  0.73930  1.0000 0.1385935312
H   H32       1.0  0.17540  0.99420  0.21010  1.0000 0.1385935312
H   H33       1.0  0.50260  0.22860  0.57970  1.0000 0.1385935312
H   H34       1.0  0.50510  0.29330  0.67240  1.0000 0.1228159346
H   H35       1.0  0.55870  0.80570  0.91680  1.0000 0.1385935312
H   H36       1.0  0.64330  0.76810  0.86810  1.0000 0.1289980911
C   C1        1.0  0.01111  0.90789  0.92400  1.0000 0.5708324887
C   C2        1.0  0.01018  0.77362  0.92060  1.0000 -0.0862155057
C   C3        1.0  0.01039  0.84961  0.88130  1.0000 -0.0324759123
C   C4        1.0  0.00540  0.73880  0.80290  1.0000 0.0789426283
C   C5        1.0  0.92210  0.50730  0.09220  1.0000 0.5839178242
C   C6        1.0  0.87710  0.50530  0.14990  1.0000 -0.0324759123
C   C7        1.0  0.00750  0.86830  0.80110  1.0000 -0.0824496445
C   C8        1.0  0.07130  0.28010  0.47330  1.0000 -0.0824496445
C   C9        1.0  0.00400  0.63580  0.92850  1.0000 0.5881393331
C   C10       1.0  0.00620  0.71760  0.88210  1.0000 -0.052786219
C   C11       1.0  0.91510  0.50790  0.22580  1.0000 -0.0862155057
C   C12       1.0  0.00610  0.81230  0.76310  1.0000 -0.1411082356
C   C13       1.0  0.06860  0.41260  0.47660  1.0000 0.5839178242
C   C14       1.0  0.79490  0.49610  0.26100  1.0000 0.0638650559
C   C15       1.0  0.87380  0.50300  0.28270  1.0000 -0.052786219
C   C16       1.0  0.10510  0.35890  0.45970  1.0000 -0.0324759123
C   C17       1.0  0.06290  0.14350  0.47430  1.0000 0.5881393331
C   C18       1.0  0.79790  0.49930  0.13040  1.0000 -0.052786219
C   C19       1.0  0.92150  0.50310  0.36500  1.0000 0.5881393331
C   C20       1.0  0.10050  0.22750  0.45720  1.0000 -0.0824496445
C   C21       1.0  0.75910  0.49650  0.18640  1.0000 -0.120041909
C   C22       1.0  0.16920  0.38860  0.42400  1.0000 -0.0621387074
C   C23       1.0  0.16560  0.25940  0.42050  1.0000 0.0789426283
C   C24       1.0  0.19470  0.33750  0.39930  1.0000 -0.1479669384
C   C25       1.0  0.90789  0.01111  0.57600  1.0000 0.5708324887
C   C26       1.0  0.77362  0.01018  0.57940  1.0000 -0.0862155057
C   C27       1.0  0.84961  0.01039  0.61870  1.0000 -0.0324759123
C   C28       1.0  0.73880  0.00540  0.69710  1.0000 0.0789426283
C   C29       1.0  0.50730  0.92210  0.40780  1.0000 0.5839178242
C   C30       1.0  0.50530  0.87710  0.35010  1.0000 -0.0324759123
C   C31       1.0  0.86830  0.00750  0.69890  1.0000 -0.0824496445
C   C32       1.0  0.28010  0.07130  0.02670  1.0000 -0.0824496445
C   C33       1.0  0.63580  0.00400  0.57150  1.0000 0.5881393331
C   C34       1.0  0.71760  0.00620  0.61790  1.0000 -0.052786219
C   C35       1.0  0.50790  0.91510  0.27420  1.0000 -0.0862155057
C   C36       1.0  0.81230  0.00610  0.73690  1.0000 -0.1411082356
C   C37       1.0  0.41260  0.06860  0.02340  1.0000 0.5839178242
C   C38       1.0  0.49610  0.79490  0.23900  1.0000 0.0638650559
C   C39       1.0  0.50300  0.87380  0.21730  1.0000 -0.052786219
C   C40       1.0  0.35890  0.10510  0.04030  1.0000 -0.0324759123
C   C41       1.0  0.14350  0.06290  0.02570  1.0000 0.5881393331
C   C42       1.0  0.49930  0.79790  0.36960  1.0000 -0.052786219
C   C43       1.0  0.50310  0.92150  0.13500  1.0000 0.5881393331
C   C44       1.0  0.22750  0.10050  0.04280  1.0000 -0.0824496445
C   C45       1.0  0.49650  0.75910  0.31360  1.0000 -0.120041909
C   C46       1.0  0.38860  0.16920  0.07600  1.0000 -0.0621387074
C   C47       1.0  0.25940  0.16560  0.07950  1.0000 0.0789426283
C   C48       1.0  0.33750  0.19470  0.10070  1.0000 -0.1479669384
C   C49       1.0  0.98889  0.09211  0.07600  1.0000 0.5708324887
C   C50       1.0  0.98982  0.22638  0.07940  1.0000 -0.0862155057
C   C51       1.0  0.98961  0.15039  0.11870  1.0000 -0.0324759123
C   C52       1.0  0.99460  0.26120  0.19710  1.0000 0.0789426283
C   C53       1.0  0.07790  0.49270  0.90780  1.0000 0.5839178242
C   C54       1.0  0.12290  0.49470  0.85010  1.0000 -0.0324759123
C   C55       1.0  0.99250  0.13170  0.19890  1.0000 -0.0824496445
C   C56       1.0  0.92870  0.71990  0.52670  1.0000 -0.0824496445
C   C57       1.0  0.99600  0.36420  0.07150  1.0000 0.5881393331
C   C58       1.0  0.99380  0.28240  0.11790  1.0000 -0.052786219
C   C59       1.0  0.08490  0.49210  0.77420  1.0000 -0.0862155057
C   C60       1.0  0.99390  0.18770  0.23690  1.0000 -0.1411082356
C   C61       1.0  0.93140  0.58740  0.52340  1.0000 0.5839178242
C   C62       1.0  0.20510  0.50390  0.73900  1.0000 0.0638650559
C   C63       1.0  0.12620  0.49700  0.71730  1.0000 -0.052786219
C   C64       1.0  0.89490  0.64110  0.54030  1.0000 -0.0324759123
C   C65       1.0  0.93710  0.85650  0.52570  1.0000 0.5881393331
C   C66       1.0  0.20210  0.50070  0.86960  1.0000 -0.052786219
C   C67       1.0  0.07850  0.49690  0.63500  1.0000 0.5881393331
C   C68       1.0  0.89950  0.77250  0.54280  1.0000 -0.0824496445
C   C69       1.0  0.24090  0.50350  0.81360  1.0000 -0.120041909
C   C70       1.0  0.83080  0.61140  0.57600  1.0000 -0.0621387074
C   C71       1.0  0.83440  0.74060  0.57950  1.0000 0.0789426283
C   C72       1.0  0.80530  0.66250  0.60070  1.0000 -0.1479669384
C   C73       1.0  0.09211  0.98889  0.42400  1.0000 0.5708324887
C   C74       1.0  0.22638  0.98982  0.42060  1.0000 -0.0862155057
C   C75       1.0  0.15039  0.98961  0.38130  1.0000 -0.0324759123
C   C76       1.0  0.26120  0.99460  0.30290  1.0000 0.0789426283
C   C77       1.0  0.49270  0.07790  0.59220  1.0000 0.5839178242
C   C78       1.0  0.49470  0.12290  0.64990  1.0000 -0.0324759123
C   C79       1.0  0.13170  0.99250  0.30110  1.0000 -0.0824496445
C   C80       1.0  0.71990  0.92870  0.97330  1.0000 -0.0824496445
C   C81       1.0  0.36420  0.99600  0.42850  1.0000 0.5881393331
C   C82       1.0  0.28240  0.99380  0.38210  1.0000 -0.052786219
C   C83       1.0  0.49210  0.08490  0.72580  1.0000 -0.0862155057
C   C84       1.0  0.18770  0.99390  0.26310  1.0000 -0.1411082356
C   C85       1.0  0.58740  0.93140  0.97660  1.0000 0.5839178242
C   C86       1.0  0.50390  0.20510  0.76100  1.0000 0.0638650559
C   C87       1.0  0.49700  0.12620  0.78270  1.0000 -0.052786219
C   C88       1.0  0.64110  0.89490  0.95970  1.0000 -0.0324759123
C   C89       1.0  0.85650  0.93710  0.97430  1.0000 0.5881393331
C   C90       1.0  0.50070  0.20210  0.63040  1.0000 -0.052786219
C   C91       1.0  0.49690  0.07850  0.86500  1.0000 0.5881393331
C   C92       1.0  0.77250  0.89950  0.95720  1.0000 -0.0824496445
C   C93       1.0  0.50350  0.24090  0.68640  1.0000 -0.120041909
C   C94       1.0  0.61140  0.83080  0.92400  1.0000 -0.0621387074
C   C95       1.0  0.74060  0.83440  0.92050  1.0000 0.0789426283
C   C96       1.0  0.66250  0.80530  0.89930  1.0000 -0.1479669384
Br  Br1       1.0  0.00604  0.66604  0.74816  1.0000 -0.0621387074
Br  Br2       1.0  0.73918  0.49690  0.33254  1.0000 -0.0621387074
Br  Br3       1.0  0.19927  0.19133  0.38600  1.0000 -0.052786219
Br  Br4       1.0  0.66604  0.00604  0.75184  1.0000 -0.0621387074
Br  Br5       1.0  0.49690  0.73918  0.16746  1.0000 -0.0621387074
Br  Br6       1.0  0.19133  0.19927  0.11400  1.0000 -0.052786219
Br  Br7       1.0  0.99396  0.33396  0.25184  1.0000 -0.0621387074
Br  Br8       1.0  0.26082  0.50310  0.66746  1.0000 -0.0621387074
Br  Br9       1.0  0.80073  0.80867  0.61400  1.0000 -0.052786219
Br  Br10      1.0  0.33396  0.99396  0.24816  1.0000 -0.0621387074
Br  Br11      1.0  0.50310  0.26082  0.83254  1.0000 -0.0621387074
Br  Br12      1.0  0.80867  0.80073  0.88600  1.0000 -0.052786219
O   O1        1.0  0.00404  0.97342  0.88530  1.0000 -0.5197728861
O   O2        1.0  0.05748  0.62992  0.98400  1.0000 -0.4901720903
O   O3        1.0  0.94690  0.58350  0.90530  1.0000 -0.5145460389
O   O4        1.0  0.88280  0.48400  0.02950  1.0000 -0.5370297454
O   O5        1.0  0.01881  0.88781  0.99750  1.0000 -0.5268706478
O   O6        1.0  0.09932  0.48428  0.45910  1.0000 -0.5197728861
O   O7        1.0  0.99475  0.52969  0.10930  1.0000 -0.5268706478
O   O8        1.0  0.00832  0.38168  0.50450  1.0000 -0.5197728861
O   O9        1.0  0.00481  0.11879  0.42710  1.0000 -0.4901720903
O   O10       1.0  0.89249  0.45151  0.41780  1.0000 -0.5197728861
O   O11       1.0  0.09224  0.10496  0.53710  1.0000 -0.5020642228
O   O12       1.0  0.98377  0.55403  0.37230  1.0000 -0.5020642228
O   O13       1.0  0.97342  0.00404  0.61470  1.0000 -0.5197728861
O   O14       1.0  0.62992  0.05748  0.51600  1.0000 -0.4901720903
O   O15       1.0  0.58350  0.94690  0.59470  1.0000 -0.5197728861
O   O16       1.0  0.48400  0.88280  0.47050  1.0000 -0.5370297454
O   O17       1.0  0.88781  0.01881  0.50250  1.0000 -0.5268706478
O   O18       1.0  0.48428  0.09932  0.04090  1.0000 -0.5197728861
O   O19       1.0  0.52969  0.99475  0.39070  1.0000 -0.5268706478
O   O20       1.0  0.38168  0.00832  0.99550  1.0000 -0.5197728861
O   O21       1.0  0.11879  0.00481  0.07290  1.0000 -0.4901720903
O   O22       1.0  0.45151  0.89249  0.08220  1.0000 -0.5197728861
O   O23       1.0  0.10496  0.09224  0.96290  1.0000 -0.5020642228
O   O24       1.0  0.55403  0.98377  0.12770  1.0000 -0.5020642228
O   O25       1.0  0.99596  0.02658  0.11470  1.0000 -0.5197728861
O   O26       1.0  0.94252  0.37008  0.01600  1.0000 -0.4901720903
O   O27       1.0  0.05310  0.41650  0.09470  1.0000 -0.5197728861
O   O28       1.0  0.11720  0.51600  0.97050  1.0000 -0.5370297454
O   O29       1.0  0.98119  0.11219  0.00250  1.0000 -0.5268706478
O   O30       1.0  0.90068  0.51572  0.54090  1.0000 -0.5197728861
O   O31       1.0  0.00525  0.47031  0.89070  1.0000 -0.5268706478
O   O32       1.0  0.99168  0.61832  0.49550  1.0000 -0.5197728861
O   O33       1.0  0.99519  0.88121  0.57290  1.0000 -0.4901720903
O   O34       1.0  0.10751  0.54849  0.58220  1.0000 -0.5197728861
O   O35       1.0  0.90776  0.89504  0.46290  1.0000 -0.5020642228
O   O36       1.0  0.01623  0.44597  0.62770  1.0000 -0.5020642228
O   O37       1.0  0.02658  0.99596  0.38530  1.0000 -0.5197728861
O   O38       1.0  0.37008  0.94252  0.48400  1.0000 -0.4901720903
O   O39       1.0  0.41650  0.05310  0.40530  1.0000 -0.5145460389
O   O40       1.0  0.51600  0.11720  0.52950  1.0000 -0.5370297454
O   O41       1.0  0.11219  0.98119  0.49750  1.0000 -0.5268706478
O   O42       1.0  0.51572  0.90068  0.95910  1.0000 -0.5197728861
O   O43       1.0  0.47031  0.00525  0.60930  1.0000 -0.5268706478
O   O44       1.0  0.61832  0.99168  0.00450  1.0000 -0.5197728861
O   O45       1.0  0.88121  0.99519  0.92710  1.0000 -0.4901720903
O   O46       1.0  0.54849  0.10751  0.91780  1.0000 -0.5197728861
O   O47       1.0  0.89504  0.90776  0.03710  1.0000 -0.5020642228
O   O48       1.0  0.44597  0.01623  0.87230  1.0000 -0.5020642228
