# DDEC6 charges by PACMAN v1.1 (https://github.com/mtap-research/PACMAN-charge/)
data_2019[Mn][kgd]2[ASR]1
_chemical_formula_sum              "Mn2 H28 C40 N4 O12"
_cell_length_a       10.0547
_cell_length_b       14.652
_cell_length_c       17.492
_cell_angle_alpha    81.218
_cell_angle_beta     75.193
_cell_angle_gamma    70.804

_symmetry_space_group_name_H-M    "P 1"
_symmetry_Int_Tables_number       1

loop_
  _symmetry_equiv_pos_as_xyz
  'x, y, z'

loop_
  _atom_site_type_symbol
  _atom_site_label
  _atom_site_symmetry_multiplicity
  _atom_site_fract_x
  _atom_site_fract_y
  _atom_site_fract_z
  _atom_site_occupancy
  _atom_site_charge
Mn  Mn1       1.0  0.60387  0.60528  0.48244  1.0000 0.932409996
Mn  Mn2       1.0  0.39613  0.39472  0.51756  1.0000 0.932409996
H   H1        1.0  0.57730  0.69130  0.87370  1.0000 0.1186010277
H   H2        1.0  0.28850  0.55170  0.89890  1.0000 0.1294743604
H   H3        1.0  0.71740  0.62300  0.62800  1.0000 0.112184335
H   H4        1.0  0.33450  0.61410  0.63200  1.0000 0.1186010277
H   H5        1.0  0.66150  0.63460  0.76010  1.0000 0.1294743604
H   H6        1.0  0.27240  0.61660  0.76680  1.0000 0.1398558485
H   H7        1.0  0.09270  0.59480  0.47300  1.0000 0.1398558485
H   H8        1.0  0.18890  0.59610  0.14610  1.0000 0.2771554532
H   H9        1.0  0.46490  0.76320  0.51150  1.0000 0.2656730952
H   H10       1.0  0.57010  0.79600  0.50110  1.0000 0.2937134745
H   H11       1.0  0.38640  0.62140  0.27500  1.0000 0.1398558485
H   H12       1.0  0.99640  0.61500  0.26120  1.0000 0.1294743604
H   H13       1.0  0.23630  0.56360  0.03840  1.0000 0.112184335
H   H14       1.0  0.51060  0.71440  0.00520  1.0000 0.1294743604
H   H15       1.0  0.42270  0.30870  0.12630  1.0000 0.1186010277
H   H16       1.0  0.71150  0.44830  0.10110  1.0000 0.1294743604
H   H17       1.0  0.28260  0.37700  0.37200  1.0000 0.112184335
H   H18       1.0  0.66550  0.38590  0.36800  1.0000 0.1186010277
H   H19       1.0  0.33850  0.36540  0.23990  1.0000 0.1294743604
H   H20       1.0  0.72760  0.38340  0.23320  1.0000 0.1398558485
H   H21       1.0  0.90730  0.40520  0.52700  1.0000 0.1398558485
H   H22       1.0  0.81110  0.40390  0.85390  1.0000 0.2771554532
H   H23       1.0  0.53510  0.23680  0.48850  1.0000 0.2626320961
H   H24       1.0  0.42990  0.20400  0.49890  1.0000 0.2957937958
H   H25       1.0  0.61360  0.37860  0.72500  1.0000 0.1398558485
H   H26       1.0  0.00360  0.38500  0.73880  1.0000 0.1294743604
H   H27       1.0  0.76370  0.43640  0.96160  1.0000 0.112184335
H   H28       1.0  0.48940  0.28560  0.99480  1.0000 0.1294743604
C   C1        1.0  0.50130  0.67040  0.90483  1.0000 -0.1495245827
C   C2        1.0  0.42670  0.63070  0.86806  1.0000 0.0667122695
C   C3        1.0  0.33280  0.58610  0.91941  1.0000 -0.1495245827
C   C4        1.0  0.37070  0.63970  0.03427  1.0000 -0.0287753652
C   C5        1.0  0.62550  0.62280  0.65610  1.0000 0.0565316881
C   C6        1.0  0.40300  0.61640  0.65810  1.0000 0.1027109193
C   C7        1.0  0.59330  0.62780  0.73590  1.0000 -0.1782651303
C   C8        1.0  0.36410  0.61830  0.73960  1.0000 -0.1879973096
C   C9        1.0  0.46430  0.62300  0.78120  1.0000 0.112184335
C   C10       1.0  0.36300  0.59610  0.43000  1.0000 0.5623030009
C   C11       1.0  0.11890  0.60130  0.41790  1.0000 -0.1188981665
C   C12       1.0  0.02140  0.60680  0.37290  1.0000 0.0061343944
C   C13       1.0  0.25540  0.60550  0.38020  1.0000 -0.010580809
C   C14       1.0  0.29600  0.61480  0.29930  1.0000 -0.1782651303
C   C15       1.0  0.20090  0.61450  0.25330  1.0000 0.2195533606
C   C16       1.0  0.06210  0.61250  0.29110  1.0000 -0.20441225
C   C17       1.0  0.30200  0.59200  0.00470  1.0000 -0.1188981665
C   C18       1.0  0.46690  0.67970  0.98460  1.0000 -0.0923089181
C   C19       1.0  0.34960  0.64510  0.12170  1.0000 0.4588288012
C   C20       1.0  0.87030  0.60520  0.41260  1.0000 0.5438584628
C   C21       1.0  0.49870  0.32960  0.09517  1.0000 -0.1495245827
C   C22       1.0  0.57330  0.36930  0.13194  1.0000 0.0667122695
C   C23       1.0  0.66720  0.41390  0.08059  1.0000 -0.1495245827
C   C24       1.0  0.62930  0.36030  0.96573  1.0000 -0.0287753652
C   C25       1.0  0.37450  0.37720  0.34390  1.0000 0.0565316881
C   C26       1.0  0.59700  0.38360  0.34190  1.0000 0.1027109193
C   C27       1.0  0.40670  0.37220  0.26410  1.0000 -0.1782651303
C   C28       1.0  0.63590  0.38170  0.26040  1.0000 -0.1879973096
C   C29       1.0  0.53570  0.37700  0.21880  1.0000 0.112184335
C   C30       1.0  0.63700  0.40390  0.57000  1.0000 0.5623030009
C   C31       1.0  0.88110  0.39870  0.58210  1.0000 -0.1188981665
C   C32       1.0  0.97860  0.39320  0.62710  1.0000 0.0061343944
C   C33       1.0  0.74460  0.39450  0.61980  1.0000 -0.010580809
C   C34       1.0  0.70400  0.38520  0.70070  1.0000 -0.1782651303
C   C35       1.0  0.79910  0.38550  0.74670  1.0000 0.2195533606
C   C36       1.0  0.93790  0.38750  0.70890  1.0000 -0.20441225
C   C37       1.0  0.69800  0.40800  0.99530  1.0000 -0.1188981665
C   C38       1.0  0.53310  0.32030  0.01540  1.0000 -0.0923089181
C   C39       1.0  0.65040  0.35490  0.87830  1.0000 0.4588288012
C   C40       1.0  0.12970  0.39480  0.58740  1.0000 0.5438584628
N   N1        1.0  0.53040  0.61760  0.61510  1.0000 -0.2745461521
N   N2        1.0  0.23980  0.61570  0.16890  1.0000 -0.3688575683
N   N3        1.0  0.46960  0.38240  0.38490  1.0000 -0.2745461521
N   N4        1.0  0.76020  0.38430  0.83110  1.0000 -0.3688575683
O   O1        1.0  0.46590  0.62880  0.40090  1.0000 -0.4973820803
O   O2        1.0  0.34560  0.55050  0.49770  1.0000 -0.5885915813
O   O3        1.0  0.79160  0.58970  0.37440  1.0000 -0.5235204754
O   O4        1.0  0.53560  0.76340  0.47260  1.0000 -0.5976977406
O   O5        1.0  0.82550  0.61910  0.48520  1.0000 -0.5621706305
O   O6        1.0  0.43280  0.67870  0.14620  1.0000 -0.4661079851
O   O7        1.0  0.53410  0.37120  0.59910  1.0000 -0.4973820803
O   O8        1.0  0.65440  0.44950  0.50230  1.0000 -0.5885915813
O   O9        1.0  0.20840  0.41030  0.62560  1.0000 -0.5235204754
O   O10       1.0  0.46440  0.23660  0.52740  1.0000 -0.5976977406
O   O11       1.0  0.17450  0.38090  0.51480  1.0000 -0.5621706305
O   O12       1.0  0.56720  0.32130  0.85380  1.0000 -0.4661079851
