# DDEC6 charges by PACMAN v1.1 (https://github.com/mtap-research/PACMAN-charge/)
data_2019[Co][flu]3[ASR]1
_chemical_formula_sum              "Co10 H36 C64 O44"
_cell_length_a       12.0571
_cell_length_b       12.0571
_cell_length_c       22.045
_cell_angle_alpha    85.3266
_cell_angle_beta     94.6734
_cell_angle_gamma    111.759

_symmetry_space_group_name_H-M    "P 1"
_symmetry_Int_Tables_number       1

loop_
  _symmetry_equiv_pos_as_xyz
  'x, y, z'

loop_
  _atom_site_type_symbol
  _atom_site_label
  _atom_site_symmetry_multiplicity
  _atom_site_fract_x
  _atom_site_fract_y
  _atom_site_fract_z
  _atom_site_occupancy
  _atom_site_charge
Co  Co1       1.0  0.90434  0.55174  0.37304  1.0000 1.0499735453
Co  Co2       1.0  0.21284  0.60576  0.41072  1.0000 1.0148713568
Co  Co3       1.0  0.55174  0.90434  0.12696  1.0000 1.0499735453
Co  Co4       1.0  0.60576  0.21284  0.08928  1.0000 1.0148713568
Co  Co5       1.0  0.09566  0.44826  0.62696  1.0000 1.0499735453
Co  Co6       1.0  0.78716  0.39424  0.58928  1.0000 1.0156526544
Co  Co7       1.0  0.44826  0.09566  0.87304  1.0000 1.0499735453
Co  Co8       1.0  0.39424  0.78716  0.91072  1.0000 1.0156526544
Co  Co9       1.0  0.00000  0.50000  0.50000  1.0000 0.9938928464
Co  Co10      1.0  0.50000  0.00000  0.00000  1.0000 0.9938928464
H   H1        1.0  0.88950  0.33770  0.42130  1.0000 0.397306604
H   H2        1.0  0.79970  0.36310  0.44700  1.0000 0.397306604
H   H3        1.0  0.06720  0.68440  0.43760  1.0000 0.3928234854
H   H4        1.0  0.60840  0.62620  0.43780  1.0000 0.1315098036
H   H5        1.0  0.47610  0.69470  0.58770  1.0000 0.1396067978
H   H6        1.0  0.80380  0.67140  0.59900  1.0000 0.1462995389
H   H7        1.0  0.74100  0.91980  0.60740  1.0000 0.1315098036
H   H8        1.0  0.63640  0.10040  0.72400  1.0000 0.1315098036
H   H9        1.0  0.56570  0.74550  0.75660  1.0000 0.1396067978
H   H10       1.0  0.33770  0.88950  0.07870  1.0000 0.397306604
H   H11       1.0  0.36310  0.79970  0.05300  1.0000 0.397306604
H   H12       1.0  0.68440  0.06720  0.06240  1.0000 0.3928234854
H   H13       1.0  0.62620  0.60840  0.06220  1.0000 0.1315098036
H   H14       1.0  0.69470  0.47610  0.91230  1.0000 0.1396067978
H   H15       1.0  0.67140  0.80380  0.90100  1.0000 0.1462995389
H   H16       1.0  0.91980  0.74100  0.89260  1.0000 0.1315098036
H   H17       1.0  0.10040  0.63640  0.77600  1.0000 0.1315098036
H   H18       1.0  0.74550  0.56570  0.74340  1.0000 0.1396067978
H   H19       1.0  0.11050  0.66230  0.57870  1.0000 0.397306604
H   H20       1.0  0.20030  0.63690  0.55300  1.0000 0.397306604
H   H21       1.0  0.93280  0.31560  0.56240  1.0000 0.3928234854
H   H22       1.0  0.39160  0.37380  0.56220  1.0000 0.1315098036
H   H23       1.0  0.52390  0.30530  0.41230  1.0000 0.1396067978
H   H24       1.0  0.19620  0.32860  0.40100  1.0000 0.1462995389
H   H25       1.0  0.25900  0.08020  0.39260  1.0000 0.1315098036
H   H26       1.0  0.36360  0.89960  0.27600  1.0000 0.1315098036
H   H27       1.0  0.43430  0.25450  0.24340  1.0000 0.1396067978
H   H28       1.0  0.66230  0.11050  0.92130  1.0000 0.397306604
H   H29       1.0  0.63690  0.20030  0.94700  1.0000 0.397306604
H   H30       1.0  0.31560  0.93280  0.93760  1.0000 0.3928234854
H   H31       1.0  0.37380  0.39160  0.93780  1.0000 0.1315098036
H   H32       1.0  0.30530  0.52390  0.08770  1.0000 0.1396067978
H   H33       1.0  0.32860  0.19620  0.09900  1.0000 0.1462995389
H   H34       1.0  0.08020  0.25900  0.10740  1.0000 0.1315098036
H   H35       1.0  0.89960  0.36360  0.22400  1.0000 0.1315098036
H   H36       1.0  0.25450  0.43430  0.25660  1.0000 0.1396067978
C   C1        1.0  0.40947  0.64511  0.47146  1.0000 0.5386884191
C   C2        1.0  0.80911  0.60663  0.48646  1.0000 0.6068590709
C   C3        1.0  0.71906  0.64302  0.51379  1.0000 -0.0092558078
C   C4        1.0  0.61641  0.64061  0.47996  1.0000 -0.1310666746
C   C5        1.0  0.52497  0.65901  0.50710  1.0000 0.0079296763
C   C6        1.0  0.53838  0.68306  0.56845  1.0000 -0.2003311927
C   C7        1.0  0.64340  0.68982  0.60103  1.0000 0.2372307011
C   C8        1.0  0.73338  0.66870  0.57541  1.0000 -0.1886213145
C   C9        1.0  0.65171  0.81709  0.67865  1.0000 0.2473953196
C   C10       1.0  0.70239  0.92101  0.64315  1.0000 -0.2196678481
C   C11       1.0  0.69669  0.02771  0.65998  1.0000 0.0079296763
C   C12       1.0  0.64132  0.02808  0.71266  1.0000 -0.1217100158
C   C13       1.0  0.59326  0.92414  0.74882  1.0000 -0.0092558078
C   C14       1.0  0.59827  0.81713  0.73196  1.0000 -0.2003311927
C   C15       1.0  0.75240  0.14160  0.62115  1.0000 0.5707166919
C   C16       1.0  0.53053  0.92667  0.80486  1.0000 0.5972111949
C   C17       1.0  0.64511  0.40947  0.02854  1.0000 0.5386884191
C   C18       1.0  0.60663  0.80911  0.01354  1.0000 0.6068590709
C   C19       1.0  0.64302  0.71906  0.98621  1.0000 -0.0092558078
C   C20       1.0  0.64061  0.61641  0.02004  1.0000 -0.1310666746
C   C21       1.0  0.65901  0.52497  0.99290  1.0000 0.0079296763
C   C22       1.0  0.68306  0.53838  0.93155  1.0000 -0.2003311927
C   C23       1.0  0.68982  0.64340  0.89897  1.0000 0.2372307011
C   C24       1.0  0.66870  0.73338  0.92459  1.0000 -0.1886213145
C   C25       1.0  0.81709  0.65171  0.82135  1.0000 0.2473953196
C   C26       1.0  0.92101  0.70239  0.85685  1.0000 -0.2256002149
C   C27       1.0  0.02771  0.69669  0.84002  1.0000 0.0079296763
C   C28       1.0  0.02808  0.64132  0.78734  1.0000 -0.1217100158
C   C29       1.0  0.92414  0.59326  0.75118  1.0000 -0.0092558078
C   C30       1.0  0.81713  0.59827  0.76804  1.0000 -0.2003311927
C   C31       1.0  0.14160  0.75240  0.87885  1.0000 0.5707166919
C   C32       1.0  0.92667  0.53053  0.69514  1.0000 0.5972111949
C   C33       1.0  0.59053  0.35489  0.52854  1.0000 0.5386884191
C   C34       1.0  0.19089  0.39337  0.51354  1.0000 0.6068590709
C   C35       1.0  0.28094  0.35698  0.48621  1.0000 -0.0092558078
C   C36       1.0  0.38359  0.35939  0.52004  1.0000 -0.1310666746
C   C37       1.0  0.47503  0.34099  0.49290  1.0000 0.0079296763
C   C38       1.0  0.46162  0.31694  0.43155  1.0000 -0.2003311927
C   C39       1.0  0.35660  0.31018  0.39897  1.0000 0.2372307011
C   C40       1.0  0.26662  0.33130  0.42459  1.0000 -0.1886213145
C   C41       1.0  0.34829  0.18291  0.32135  1.0000 0.2473953196
C   C42       1.0  0.29761  0.07899  0.35685  1.0000 -0.2256002149
C   C43       1.0  0.30331  0.97229  0.34002  1.0000 0.0079296763
C   C44       1.0  0.35868  0.97192  0.28734  1.0000 -0.1217100158
C   C45       1.0  0.40674  0.07586  0.25118  1.0000 -0.0092558078
C   C46       1.0  0.40173  0.18287  0.26804  1.0000 -0.2003311927
C   C47       1.0  0.24760  0.85840  0.37885  1.0000 0.5707166919
C   C48       1.0  0.46947  0.07333  0.19514  1.0000 0.5972111949
C   C49       1.0  0.35489  0.59053  0.97146  1.0000 0.5386884191
C   C50       1.0  0.39337  0.19089  0.98646  1.0000 0.6068590709
C   C51       1.0  0.35698  0.28094  0.01379  1.0000 -0.0092558078
C   C52       1.0  0.35939  0.38359  0.97996  1.0000 -0.1310666746
C   C53       1.0  0.34099  0.47503  0.00710  1.0000 0.0079296763
C   C54       1.0  0.31694  0.46162  0.06845  1.0000 -0.2003311927
C   C55       1.0  0.31018  0.35660  0.10103  1.0000 0.2372307011
C   C56       1.0  0.33130  0.26662  0.07541  1.0000 -0.1886213145
C   C57       1.0  0.18291  0.34829  0.17865  1.0000 0.2473953196
C   C58       1.0  0.07899  0.29761  0.14315  1.0000 -0.2196678481
C   C59       1.0  0.97229  0.30331  0.15998  1.0000 0.0079296763
C   C60       1.0  0.97192  0.35868  0.21266  1.0000 -0.1217100158
C   C61       1.0  0.07586  0.40674  0.24882  1.0000 -0.0092558078
C   C62       1.0  0.18287  0.40173  0.23196  1.0000 -0.2003311927
C   C63       1.0  0.85840  0.24760  0.12115  1.0000 0.5707166919
C   C64       1.0  0.07333  0.46947  0.30486  1.0000 0.5972111949
O   O1        1.0  0.87035  0.39179  0.43486  1.0000 -0.6731109045
O   O2        1.0  0.05663  0.61657  0.42843  1.0000 -0.906817632
O   O3        1.0  0.32780  0.66500  0.49619  1.0000 -0.5660112223
O   O4        1.0  0.39325  0.61109  0.41815  1.0000 -0.5130088351
O   O5        1.0  0.87126  0.56330  0.52372  1.0000 -0.6093964747
O   O6        1.0  0.81571  0.61871  0.42993  1.0000 -0.5768649898
O   O7        1.0  0.65579  0.70899  0.66356  1.0000 -0.2196678481
O   O8        1.0  0.81782  0.14178  0.58065  1.0000 -0.5387606567
O   O9        1.0  0.72582  0.22862  0.63295  1.0000 -0.5497958085
O   O10       1.0  0.52304  0.02416  0.81490  1.0000 -0.6093964747
O   O11       1.0  0.48923  0.82979  0.83618  1.0000 -0.5387606567
O   O12       1.0  0.39179  0.87035  0.06514  1.0000 -0.6731109045
O   O13       1.0  0.61657  0.05663  0.07157  1.0000 -0.906817632
O   O14       1.0  0.66500  0.32780  0.00381  1.0000 -0.5660112223
O   O15       1.0  0.61109  0.39325  0.08185  1.0000 -0.5130088351
O   O16       1.0  0.56330  0.87126  0.97628  1.0000 -0.6093964747
O   O17       1.0  0.61871  0.81571  0.07007  1.0000 -0.5768649898
O   O18       1.0  0.70899  0.65579  0.83644  1.0000 -0.2196678481
O   O19       1.0  0.14178  0.81782  0.91935  1.0000 -0.5387606567
O   O20       1.0  0.22862  0.72582  0.86705  1.0000 -0.5497958085
O   O21       1.0  0.02416  0.52304  0.68510  1.0000 -0.6093964747
O   O22       1.0  0.82979  0.48923  0.66382  1.0000 -0.5387606567
O   O23       1.0  0.12965  0.60821  0.56514  1.0000 -0.6731109045
O   O24       1.0  0.94337  0.38343  0.57157  1.0000 -0.906817632
O   O25       1.0  0.67220  0.33500  0.50381  1.0000 -0.5660112223
O   O26       1.0  0.60675  0.38891  0.58185  1.0000 -0.5130088351
O   O27       1.0  0.12874  0.43670  0.47628  1.0000 -0.6093964747
O   O28       1.0  0.18429  0.38129  0.57007  1.0000 -0.5768649898
O   O29       1.0  0.34421  0.29101  0.33644  1.0000 -0.2149655393
O   O30       1.0  0.18218  0.85822  0.41935  1.0000 -0.5387606567
O   O31       1.0  0.27418  0.77138  0.36705  1.0000 -0.5497958085
O   O32       1.0  0.47696  0.97584  0.18510  1.0000 -0.6093964747
O   O33       1.0  0.51077  0.17021  0.16382  1.0000 -0.5387606567
O   O34       1.0  0.60821  0.12965  0.93486  1.0000 -0.6731109045
O   O35       1.0  0.38343  0.94337  0.92843  1.0000 -0.906817632
O   O36       1.0  0.33500  0.67220  0.99619  1.0000 -0.5660112223
O   O37       1.0  0.38891  0.60675  0.91815  1.0000 -0.5130088351
O   O38       1.0  0.43670  0.12874  0.02372  1.0000 -0.6093964747
O   O39       1.0  0.38129  0.18429  0.92993  1.0000 -0.5768649898
O   O40       1.0  0.29101  0.34421  0.16356  1.0000 -0.2196678481
O   O41       1.0  0.85822  0.18218  0.08065  1.0000 -0.5387606567
O   O42       1.0  0.77138  0.27418  0.13295  1.0000 -0.5497958085
O   O43       1.0  0.97584  0.47696  0.31490  1.0000 -0.6093964747
O   O44       1.0  0.17021  0.51077  0.33618  1.0000 -0.5387606567
