# DDEC6 charges by PACMAN v1.1 (https://github.com/mtap-research/PACMAN-charge/)
data_2019[Zn][sql]2[ASR]19
_chemical_formula_sum              "Zn2 H24 C36 N12 O8"
_cell_length_a       9.5816
_cell_length_b       10.9111
_cell_length_c       11.4401
_cell_angle_alpha    84.782
_cell_angle_beta     111.991
_cell_angle_gamma    113.715

_symmetry_space_group_name_H-M    "P 1"
_symmetry_Int_Tables_number       1

loop_
  _symmetry_equiv_pos_as_xyz
  'x, y, z'

loop_
  _atom_site_type_symbol
  _atom_site_label
  _atom_site_symmetry_multiplicity
  _atom_site_fract_x
  _atom_site_fract_y
  _atom_site_fract_z
  _atom_site_occupancy
  _atom_site_charge
Zn  Zn1       1.0  0.16953  0.17141  0.78978  1.0000 0.7797057456
Zn  Zn2       1.0  0.83047  0.82859  0.21022  1.0000 0.7797057456
H   H1        1.0  0.21778  0.41651  0.38091  1.0000 0.1134502926
H   H2        1.0  0.59783  0.43460  0.70516  1.0000 0.1176262176
H   H3        1.0  0.07848  0.52487  0.82675  1.0000 0.1290192208
H   H4        1.0  0.98012  0.30934  0.11464  1.0000 0.1134502926
H   H5        1.0  0.89191  0.09890  0.52134  1.0000 0.1290192208
H   H6        1.0  0.89736  0.87898  0.81858  1.0000 0.1377394232
H   H7        1.0  0.61753  0.77832  0.65703  1.0000 0.1377394232
H   H8        1.0  0.68175  0.06583  0.33653  1.0000 0.1599395997
H   H9        1.0  0.19888  0.72752  0.32387  1.0000 0.0996517068
H   H10       1.0  0.17969  0.97224  0.01978  1.0000 0.1290192208
H   H11       1.0  0.67191  0.17079  0.14827  1.0000 0.1377394232
H   H12       1.0  0.54889  0.24845  0.93997  1.0000 0.1377394232
H   H13       1.0  0.78222  0.58349  0.61909  1.0000 0.1134502926
H   H14       1.0  0.40217  0.56540  0.29484  1.0000 0.1176262176
H   H15       1.0  0.92152  0.47513  0.17325  1.0000 0.1290192208
H   H16       1.0  0.01988  0.69066  0.88536  1.0000 0.1134502926
H   H17       1.0  0.10809  0.90110  0.47866  1.0000 0.1290192208
H   H18       1.0  0.10264  0.12102  0.18142  1.0000 0.1377394232
H   H19       1.0  0.38247  0.22168  0.34297  1.0000 0.1377394232
H   H20       1.0  0.31825  0.93417  0.66347  1.0000 0.1599395997
H   H21       1.0  0.80112  0.27248  0.67613  1.0000 0.0996517068
H   H22       1.0  0.82031  0.02776  0.98022  1.0000 0.1290192208
H   H23       1.0  0.32809  0.82921  0.85173  1.0000 0.1377394232
H   H24       1.0  0.45111  0.75155  0.06003  1.0000 0.1377394232
C   C1        1.0  0.33230  0.45060  0.42930  1.0000 -0.1119427382
C   C2        1.0  0.38960  0.41160  0.55200  1.0000 -0.0207421249
C   C3        1.0  0.27020  0.31330  0.60610  1.0000 0.5530998534
C   C4        1.0  0.55820  0.46130  0.62200  1.0000 -0.1119427382
C   C5        1.0  0.04650  0.51470  0.89750  1.0000 -0.115369747
C   C6        1.0  0.03570  0.39960  0.96470  1.0000 -0.0137551358
C   C7        1.0  0.98840  0.38680  0.06780  1.0000 -0.1119427382
C   C8        1.0  0.07360  0.29130  0.92710  1.0000 0.5530998534
C   C9        1.0  0.85910  0.03180  0.57590  1.0000 0.1134502926
C   C10       1.0  0.86000  0.91070  0.73740  1.0000 -0.0281598778
C   C11       1.0  0.70680  0.85490  0.64970  1.0000 -0.0773492628
C   C12       1.0  0.56820  0.91480  0.43330  1.0000 0.3478418416
C   C13       1.0  0.58130  0.99590  0.33410  1.0000 -0.3584039682
C   C14       1.0  0.43570  0.96630  0.23130  1.0000 0.3412575549
C   C15       1.0  0.29910  0.79810  0.32670  1.0000 0.2364727607
C   C16       1.0  0.28690  0.03160  0.02530  1.0000 0.1290192208
C   C17       1.0  0.55850  0.14040  0.09720  1.0000 -0.0973085785
C   C18       1.0  0.49000  0.18220  0.98330  1.0000 -0.0207421249
C   C19       1.0  0.66770  0.54940  0.57070  1.0000 -0.1119427382
C   C20       1.0  0.61040  0.58840  0.44800  1.0000 -0.0207421249
C   C21       1.0  0.72980  0.68670  0.39390  1.0000 0.5530998534
C   C22       1.0  0.44180  0.53870  0.37800  1.0000 -0.1119427382
C   C23       1.0  0.95350  0.48530  0.10250  1.0000 -0.115369747
C   C24       1.0  0.96430  0.60040  0.03530  1.0000 -0.0137551358
C   C25       1.0  0.01160  0.61320  0.93220  1.0000 -0.1119427382
C   C26       1.0  0.92640  0.70870  0.07290  1.0000 0.5530998534
C   C27       1.0  0.14090  0.96820  0.42410  1.0000 0.1134502926
C   C28       1.0  0.14000  0.08930  0.26260  1.0000 -0.0281598778
C   C29       1.0  0.29320  0.14510  0.35030  1.0000 -0.0773492628
C   C30       1.0  0.43180  0.08520  0.56670  1.0000 0.3478418416
C   C31       1.0  0.41870  0.00410  0.66590  1.0000 -0.3584039682
C   C32       1.0  0.56430  0.03370  0.76870  1.0000 0.3412575549
C   C33       1.0  0.70090  0.20190  0.67330  1.0000 0.2364727607
C   C34       1.0  0.71310  0.96840  0.97470  1.0000 0.1290192208
C   C35       1.0  0.44150  0.85960  0.90280  1.0000 -0.0973085785
C   C36       1.0  0.51000  0.81780  0.01670  1.0000 -0.0207421249
N   N1        1.0  0.95530  0.02200  0.69100  1.0000 -0.2769906992
N   N2        1.0  0.70660  0.93280  0.54610  1.0000 -0.0207421249
N   N3        1.0  0.42910  0.81690  0.43270  1.0000 -0.370297181
N   N4        1.0  0.29420  0.86720  0.22450  1.0000 -0.3584039682
N   N5        1.0  0.42860  0.04390  0.12380  1.0000 -0.0207421249
N   N6        1.0  0.32070  0.11370  0.93950  1.0000 -0.2769906992
N   N7        1.0  0.04470  0.97800  0.30900  1.0000 -0.2769906992
N   N8        1.0  0.29340  0.06720  0.45390  1.0000 -0.0207421249
N   N9        1.0  0.57090  0.18310  0.56730  1.0000 -0.370297181
N   N10       1.0  0.70580  0.13280  0.77550  1.0000 -0.3584039682
N   N11       1.0  0.57140  0.95610  0.87620  1.0000 -0.0207421249
N   N12       1.0  0.67930  0.88630  0.06050  1.0000 -0.2769906992
O   O1        1.0  0.12120  0.28350  0.55080  1.0000 -0.5530468547
O   O2        1.0  0.33190  0.26560  0.71010  1.0000 -0.5648547882
O   O3        1.0  0.11540  0.31250  0.83040  1.0000 -0.5333062583
O   O4        1.0  0.06460  0.19010  0.98760  1.0000 -0.5530468547
O   O5        1.0  0.87880  0.71650  0.44920  1.0000 -0.5530468547
O   O6        1.0  0.66810  0.73440  0.28990  1.0000 -0.5648547882
O   O7        1.0  0.88460  0.68750  0.16960  1.0000 -0.5333062583
O   O8        1.0  0.93540  0.80990  0.01240  1.0000 -0.5530468547
