# DDEC6 charges by PACMAN v1.1 (https://github.com/mtap-research/PACMAN-charge/)
data_2019[Ca][pts]3[ASR]1
_chemical_formula_sum              "Ca2 P4 H28 C12 N4 O12"
_cell_length_a       8.3351
_cell_length_b       9.177
_cell_length_c       9.181
_cell_angle_alpha    117.093
_cell_angle_beta     101.261
_cell_angle_gamma    86.811

_symmetry_space_group_name_H-M    "P 1"
_symmetry_Int_Tables_number       1

loop_
  _symmetry_equiv_pos_as_xyz
  'x, y, z'

loop_
  _atom_site_type_symbol
  _atom_site_label
  _atom_site_symmetry_multiplicity
  _atom_site_fract_x
  _atom_site_fract_y
  _atom_site_fract_z
  _atom_site_occupancy
  _atom_site_charge
Ca  Ca1       1.0  0.25964  0.92454  0.43068  1.0000 1.4301468362
Ca  Ca2       1.0  0.74036  0.07546  0.56932  1.0000 1.4301468362
P   P1        1.0  0.92100  0.96710  0.24400  1.0000 1.2740348209
P   P2        1.0  0.55770  0.75300  0.53480  1.0000 1.2606895794
P   P3        1.0  0.07900  0.03290  0.75600  1.0000 1.2740348209
P   P4        1.0  0.44230  0.24700  0.46520  1.0000 1.2606895794
H   H1        1.0  0.63680  0.85860  0.87320  1.0000 0.2663825234
H   H2        1.0  0.87810  0.68840  0.56920  1.0000 0.2601686944
H   H3        1.0  0.88470  0.86150  0.95520  1.0000 0.1682664608
H   H4        1.0  0.80310  0.74110  0.99890  1.0000 0.1682664608
H   H5        1.0  0.64070  0.51320  0.33160  1.0000 0.1682664608
H   H6        1.0  0.70660  0.66410  0.32220  1.0000 0.1682664608
H   H7        1.0  0.54430  0.93060  0.16940  1.0000 0.1319010896
H   H8        1.0  0.51980  0.75390  0.01880  1.0000 0.1319010896
H   H9        1.0  0.73010  0.11020  0.96800  1.0000 0.1369380981
H   H10       1.0  0.67630  0.15290  0.13720  1.0000 0.1319010896
H   H11       1.0  0.80710  0.38170  0.47110  1.0000 0.1319010896
H   H12       1.0  0.78530  0.53160  0.63990  1.0000 0.1369380981
H   H13       1.0  0.98260  0.60980  0.31490  1.0000 0.1369380981
H   H14       1.0  0.93110  0.43070  0.27130  1.0000 0.1242090841
H   H15       1.0  0.36320  0.14140  0.12680  1.0000 0.2663825234
H   H16       1.0  0.12190  0.31160  0.43080  1.0000 0.2601686944
H   H17       1.0  0.11530  0.13850  0.04480  1.0000 0.1682664608
H   H18       1.0  0.19690  0.25890  0.00110  1.0000 0.1682664608
H   H19       1.0  0.35930  0.48680  0.66840  1.0000 0.1682664608
H   H20       1.0  0.29340  0.33590  0.67780  1.0000 0.1682664608
H   H21       1.0  0.45570  0.06940  0.83060  1.0000 0.1319010896
H   H22       1.0  0.48020  0.24610  0.98120  1.0000 0.1319010896
H   H23       1.0  0.26990  0.88980  0.03200  1.0000 0.1369380981
H   H24       1.0  0.32370  0.84710  0.86280  1.0000 0.1319010896
H   H25       1.0  0.19290  0.61830  0.52890  1.0000 0.1319010896
H   H26       1.0  0.21470  0.46840  0.36010  1.0000 0.1369380981
H   H27       1.0  0.01740  0.39020  0.68510  1.0000 0.1369380981
H   H28       1.0  0.06890  0.56930  0.72870  1.0000 0.1242090841
C   C1        1.0  0.81450  0.85560  0.02510  1.0000 -0.443530805
C   C2        1.0  0.69400  0.62090  0.39820  1.0000 -0.4531729589
C   C3        1.0  0.51970  0.86980  0.04880  1.0000 -0.1112706433
C   C4        1.0  0.64850  0.08660  0.01740  1.0000 -0.1239952962
C   C5        1.0  0.85470  0.48710  0.55720  1.0000 -0.1437366898
C   C6        1.0  0.97530  0.53530  0.36180  1.0000 -0.1112706433
C   C7        1.0  0.18550  0.14440  0.97490  1.0000 -0.443530805
C   C8        1.0  0.30600  0.37910  0.60180  1.0000 -0.4531729589
C   C9        1.0  0.48030  0.13020  0.95120  1.0000 -0.1112706433
C   C10       1.0  0.35150  0.91340  0.98260  1.0000 -0.1239952962
C   C11       1.0  0.14530  0.51290  0.44280  1.0000 -0.1437366898
C   C12       1.0  0.02470  0.46470  0.63820  1.0000 -0.1112706433
N   N1        1.0  0.64960  0.91040  0.97680  1.0000 0.0372345825
N   N2        1.0  0.86250  0.60080  0.48200  1.0000 0.0345029612
N   N3        1.0  0.35040  0.08960  0.02320  1.0000 0.0372345825
N   N4        1.0  0.13750  0.39920  0.51800  1.0000 0.0345029612
O   O1        1.0  0.05870  0.85480  0.25280  1.0000 -0.8539101849
O   O2        1.0  0.79970  0.97700  0.34970  1.0000 -0.8601728598
O   O3        1.0  0.97770  0.13050  0.27300  1.0000 -0.7660101424
O   O4        1.0  0.39980  0.73450  0.41050  1.0000 -0.8394191931
O   O5        1.0  0.62880  0.92660  0.61800  1.0000 -0.8601728598
O   O6        1.0  0.54320  0.69550  0.66050  1.0000 -0.7321913014
O   O7        1.0  0.94130  0.14520  0.74720  1.0000 -0.8539101849
O   O8        1.0  0.20030  0.02300  0.65030  1.0000 -0.8601728598
O   O9        1.0  0.02230  0.86950  0.72700  1.0000 -0.7660101424
O   O10       1.0  0.60020  0.26550  0.58950  1.0000 -0.8394191931
O   O11       1.0  0.37120  0.07340  0.38200  1.0000 -0.8601728598
O   O12       1.0  0.45680  0.30450  0.33950  1.0000 -0.7321913014
