# DDEC6 charges by PACMAN v1.1 (https://github.com/mtap-research/PACMAN-charge/)
data_2019[Cd][sqc]3[ASR]1
_chemical_formula_sum              "Cd6 H68 C104 N8 O28"
_cell_length_a       16.2511
_cell_length_b       11.612
_cell_length_c       20.2609
_cell_angle_alpha    90
_cell_angle_beta     124.02
_cell_angle_gamma    90

_symmetry_space_group_name_H-M    "P 1"
_symmetry_Int_Tables_number       1

loop_
  _symmetry_equiv_pos_as_xyz
  'x, y, z'

loop_
  _atom_site_type_symbol
  _atom_site_label
  _atom_site_symmetry_multiplicity
  _atom_site_fract_x
  _atom_site_fract_y
  _atom_site_fract_z
  _atom_site_occupancy
  _atom_site_charge
Cd  Cd1       1.0  0.40370  0.99939  0.38355  1.0000 0.8431619598
Cd  Cd2       1.0  0.59630  0.99939  0.11645  1.0000 0.8431619598
Cd  Cd3       1.0  0.59630  0.00061  0.61645  1.0000 0.8431619598
Cd  Cd4       1.0  0.40370  0.00061  0.88355  1.0000 0.8431619598
Cd  Cd5       1.0  0.00000  0.85530  0.75000  1.0000 0.923013766
Cd  Cd6       1.0  0.00000  0.14470  0.25000  1.0000 0.923013766
H   H1        1.0  0.38874  0.00573  0.63645  1.0000 0.1289430055
H   H2        1.0  0.13298  0.90894  0.60894  1.0000 0.1381446116
H   H3        1.0  0.15508  0.91521  0.42386  1.0000 0.118876387
H   H4        1.0  0.02434  0.79312  0.42790  1.0000 0.1002475488
H   H5        1.0  0.98237  0.91922  0.41489  1.0000 0.118876387
H   H6        1.0  0.74629  0.69295  0.50888  1.0000 0.1086749671
H   H7        1.0  0.65333  0.64979  0.37299  1.0000 0.1086749671
H   H8        1.0  0.71045  0.69710  0.29732  1.0000 0.1086749671
H   H9        1.0  0.86203  0.78140  0.35241  1.0000 0.118876387
H   H10       1.0  0.54194  0.21727  0.41184  1.0000 0.1086749671
H   H11       1.0  0.54439  0.41213  0.41269  1.0000 0.1289430055
H   H12       1.0  0.27639  0.40887  0.37267  1.0000 0.1381446116
H   H13       1.0  0.27973  0.21616  0.37023  1.0000 0.118876387
H   H14       1.0  0.54484  0.58464  0.41702  1.0000 0.1289430055
H   H15       1.0  0.53924  0.78146  0.40955  1.0000 0.1086749671
H   H16       1.0  0.27313  0.77964  0.35756  1.0000 0.118876387
H   H17       1.0  0.27195  0.58723  0.36286  1.0000 0.1381446116
H   H18       1.0  0.61126  0.00573  0.86355  1.0000 0.1289430055
H   H19       1.0  0.86702  0.90894  0.89106  1.0000 0.1381446116
H   H20       1.0  0.84492  0.91521  0.07614  1.0000 0.118876387
H   H21       1.0  0.97566  0.79312  0.07210  1.0000 0.1002475488
H   H22       1.0  0.01763  0.91922  0.08511  1.0000 0.118876387
H   H23       1.0  0.25371  0.69295  0.99112  1.0000 0.1086749671
H   H24       1.0  0.34667  0.64979  0.12701  1.0000 0.1086749671
H   H25       1.0  0.28955  0.69710  0.20268  1.0000 0.1086749671
H   H26       1.0  0.13797  0.78140  0.14759  1.0000 0.118876387
H   H27       1.0  0.45806  0.21727  0.08816  1.0000 0.1086749671
H   H28       1.0  0.45561  0.41213  0.08731  1.0000 0.1289430055
H   H29       1.0  0.72361  0.40887  0.12733  1.0000 0.1381446116
H   H30       1.0  0.72027  0.21616  0.12977  1.0000 0.118876387
H   H31       1.0  0.45516  0.58464  0.08298  1.0000 0.1289430055
H   H32       1.0  0.46076  0.78146  0.09045  1.0000 0.1086749671
H   H33       1.0  0.72687  0.77964  0.14244  1.0000 0.118876387
H   H34       1.0  0.72805  0.58723  0.13714  1.0000 0.1381446116
H   H35       1.0  0.61126  0.99427  0.36355  1.0000 0.1289430055
H   H36       1.0  0.86702  0.09106  0.39106  1.0000 0.1381446116
H   H37       1.0  0.84492  0.08479  0.57614  1.0000 0.118876387
H   H38       1.0  0.97566  0.20688  0.57210  1.0000 0.1002475488
H   H39       1.0  0.01763  0.08078  0.58511  1.0000 0.118876387
H   H40       1.0  0.25371  0.30705  0.49112  1.0000 0.1086749671
H   H41       1.0  0.34667  0.35021  0.62701  1.0000 0.1086749671
H   H42       1.0  0.28955  0.30290  0.70268  1.0000 0.1086749671
H   H43       1.0  0.13797  0.21860  0.64759  1.0000 0.118876387
H   H44       1.0  0.45806  0.78273  0.58816  1.0000 0.1086749671
H   H45       1.0  0.45561  0.58787  0.58731  1.0000 0.1289430055
H   H46       1.0  0.72361  0.59113  0.62733  1.0000 0.1381446116
H   H47       1.0  0.72027  0.78384  0.62977  1.0000 0.118876387
H   H48       1.0  0.45516  0.41536  0.58298  1.0000 0.1289430055
H   H49       1.0  0.46076  0.21854  0.59045  1.0000 0.1086749671
H   H50       1.0  0.72687  0.22036  0.64244  1.0000 0.118876387
H   H51       1.0  0.72805  0.41277  0.63714  1.0000 0.1381446116
H   H52       1.0  0.38874  0.99427  0.13645  1.0000 0.1289430055
H   H53       1.0  0.13298  0.09106  0.10894  1.0000 0.1381446116
H   H54       1.0  0.15508  0.08479  0.92386  1.0000 0.118876387
H   H55       1.0  0.02434  0.20688  0.92790  1.0000 0.1002475488
H   H56       1.0  0.98237  0.08078  0.91489  1.0000 0.118876387
H   H57       1.0  0.74629  0.30705  0.00888  1.0000 0.1086749671
H   H58       1.0  0.65333  0.35021  0.87299  1.0000 0.1086749671
H   H59       1.0  0.71045  0.30290  0.79732  1.0000 0.1086749671
H   H60       1.0  0.86203  0.21860  0.85241  1.0000 0.118876387
H   H61       1.0  0.54194  0.78273  0.91184  1.0000 0.1086749671
H   H62       1.0  0.54439  0.58787  0.91269  1.0000 0.1289430055
H   H63       1.0  0.27639  0.59113  0.87267  1.0000 0.1381446116
H   H64       1.0  0.27973  0.78384  0.87023  1.0000 0.118876387
H   H65       1.0  0.54484  0.41536  0.91702  1.0000 0.1289430055
H   H66       1.0  0.53924  0.21854  0.90955  1.0000 0.1086749671
H   H67       1.0  0.27313  0.22036  0.85756  1.0000 0.118876387
H   H68       1.0  0.27195  0.41277  0.86286  1.0000 0.1381446116
C   C1        1.0  0.33560  0.99030  0.48830  1.0000 0.5445879294
C   C2        1.0  0.27990  0.96780  0.52510  1.0000 -0.0302380075
C   C3        1.0  0.32280  0.98250  0.60390  1.0000 -0.1403422909
C   C4        1.0  0.26720  0.96260  0.63680  1.0000 0.0108879252
C   C5        1.0  0.16970  0.92380  0.58750  1.0000 -0.1459431903
C   C6        1.0  0.12780  0.90750  0.50860  1.0000 0.0784899436
C   C7        1.0  0.18320  0.92820  0.47770  1.0000 -0.170857902
C   C8        1.0  0.31350  0.98360  0.72470  1.0000 0.5103064968
C   C9        1.0  0.02420  0.86210  0.45480  1.0000 -0.0609936382
C   C10       1.0  0.89640  0.78670  0.46440  1.0000 0.2353983527
C   C11       1.0  0.86290  0.76230  0.51390  1.0000 -0.1316180261
C   C12       1.0  0.77120  0.71100  0.47850  1.0000 -0.1040975055
C   C13       1.0  0.71470  0.68560  0.39630  1.0000 -0.1403422909
C   C14       1.0  0.74910  0.71290  0.35160  1.0000 -0.0609936382
C   C15       1.0  0.83910  0.76310  0.38410  1.0000 -0.2201722892
C   C16       1.0  0.91740  0.79060  0.59920  1.0000 0.5473841174
C   C17       1.0  0.48720  0.25670  0.40380  1.0000 0.0784899436
C   C18       1.0  0.48860  0.37370  0.40330  1.0000 -0.20144033
C   C19       1.0  0.40860  0.43540  0.38930  1.0000 0.1002475488
C   C20       1.0  0.33140  0.37180  0.37960  1.0000 -0.1897056805
C   C21       1.0  0.33500  0.25640  0.38000  1.0000 0.0784899436
C   C22       1.0  0.48730  0.62290  0.40390  1.0000 -0.2111891912
C   C23       1.0  0.48450  0.74180  0.40130  1.0000 0.0784899436
C   C24       1.0  0.33040  0.74020  0.37110  1.0000 0.0574279247
C   C25       1.0  0.32830  0.62440  0.37240  1.0000 -0.20144033
C   C26       1.0  0.40680  0.56140  0.38740  1.0000 0.1002475488
C   C27       1.0  0.66440  0.99030  0.01170  1.0000 0.5445879294
C   C28       1.0  0.72010  0.96780  0.97490  1.0000 -0.0302380075
C   C29       1.0  0.67720  0.98250  0.89610  1.0000 -0.1403422909
C   C30       1.0  0.73280  0.96260  0.86320  1.0000 0.0108879252
C   C31       1.0  0.83030  0.92380  0.91250  1.0000 -0.1459431903
C   C32       1.0  0.87220  0.90750  0.99140  1.0000 0.0784899436
C   C33       1.0  0.81680  0.92820  0.02230  1.0000 -0.170857902
C   C34       1.0  0.68650  0.98360  0.77530  1.0000 0.5103064968
C   C35       1.0  0.97580  0.86210  0.04520  1.0000 -0.0609936382
C   C36       1.0  0.10360  0.78670  0.03560  1.0000 0.2353983527
C   C37       1.0  0.13710  0.76230  0.98610  1.0000 -0.1316180261
C   C38       1.0  0.22880  0.71100  0.02150  1.0000 -0.1040975055
C   C39       1.0  0.28530  0.68560  0.10370  1.0000 -0.1403422909
C   C40       1.0  0.25090  0.71290  0.14840  1.0000 -0.0609936382
C   C41       1.0  0.16090  0.76310  0.11590  1.0000 -0.2201722892
C   C42       1.0  0.08260  0.79060  0.90080  1.0000 0.5473841174
C   C43       1.0  0.51280  0.25670  0.09620  1.0000 0.0784899436
C   C44       1.0  0.51140  0.37370  0.09670  1.0000 -0.20144033
C   C45       1.0  0.59140  0.43540  0.11070  1.0000 0.1002475488
C   C46       1.0  0.66860  0.37180  0.12040  1.0000 -0.1897056805
C   C47       1.0  0.66500  0.25640  0.12000  1.0000 0.0784899436
C   C48       1.0  0.51270  0.62290  0.09610  1.0000 -0.2111891912
C   C49       1.0  0.51550  0.74180  0.09870  1.0000 0.0784899436
C   C50       1.0  0.66960  0.74020  0.12890  1.0000 0.0574279247
C   C51       1.0  0.67170  0.62440  0.12760  1.0000 -0.20144033
C   C52       1.0  0.59320  0.56140  0.11260  1.0000 0.1002475488
C   C53       1.0  0.66440  0.00970  0.51170  1.0000 0.5445879294
C   C54       1.0  0.72010  0.03220  0.47490  1.0000 -0.0302380075
C   C55       1.0  0.67720  0.01750  0.39610  1.0000 -0.1403422909
C   C56       1.0  0.73280  0.03740  0.36320  1.0000 0.0108879252
C   C57       1.0  0.83030  0.07620  0.41250  1.0000 -0.1459431903
C   C58       1.0  0.87220  0.09250  0.49140  1.0000 0.0784899436
C   C59       1.0  0.81680  0.07180  0.52230  1.0000 -0.170857902
C   C60       1.0  0.68650  0.01640  0.27530  1.0000 0.5103064968
C   C61       1.0  0.97580  0.13790  0.54520  1.0000 -0.0609936382
C   C62       1.0  0.10360  0.21330  0.53560  1.0000 0.2353983527
C   C63       1.0  0.13710  0.23770  0.48610  1.0000 -0.1316180261
C   C64       1.0  0.22880  0.28900  0.52150  1.0000 -0.1040975055
C   C65       1.0  0.28530  0.31440  0.60370  1.0000 -0.1403422909
C   C66       1.0  0.25090  0.28710  0.64840  1.0000 -0.0609936382
C   C67       1.0  0.16090  0.23690  0.61590  1.0000 -0.2201722892
C   C68       1.0  0.08260  0.20940  0.40080  1.0000 0.5473841174
C   C69       1.0  0.51280  0.74330  0.59620  1.0000 0.0784899436
C   C70       1.0  0.51140  0.62630  0.59670  1.0000 -0.20144033
C   C71       1.0  0.59140  0.56460  0.61070  1.0000 0.1002475488
C   C72       1.0  0.66860  0.62820  0.62040  1.0000 -0.1897056805
C   C73       1.0  0.66500  0.74360  0.62000  1.0000 0.0784899436
C   C74       1.0  0.51270  0.37710  0.59610  1.0000 -0.2111891912
C   C75       1.0  0.51550  0.25820  0.59870  1.0000 0.0784899436
C   C76       1.0  0.66960  0.25980  0.62890  1.0000 0.0574279247
C   C77       1.0  0.67170  0.37560  0.62760  1.0000 -0.20144033
C   C78       1.0  0.59320  0.43860  0.61260  1.0000 0.1002475488
C   C79       1.0  0.33560  0.00970  0.98830  1.0000 0.5445879294
C   C80       1.0  0.27990  0.03220  0.02510  1.0000 -0.0302380075
C   C81       1.0  0.32280  0.01750  0.10390  1.0000 -0.1403422909
C   C82       1.0  0.26720  0.03740  0.13680  1.0000 0.0108879252
C   C83       1.0  0.16970  0.07620  0.08750  1.0000 -0.1459431903
C   C84       1.0  0.12780  0.09250  0.00860  1.0000 0.0784899436
C   C85       1.0  0.18320  0.07180  0.97770  1.0000 -0.170857902
C   C86       1.0  0.31350  0.01640  0.22470  1.0000 0.5103064968
C   C87       1.0  0.02420  0.13790  0.95480  1.0000 -0.0609936382
C   C88       1.0  0.89640  0.21330  0.96440  1.0000 0.2353983527
C   C89       1.0  0.86290  0.23770  0.01390  1.0000 -0.1316180261
C   C90       1.0  0.77120  0.28900  0.97850  1.0000 -0.1040975055
C   C91       1.0  0.71470  0.31440  0.89630  1.0000 -0.1403422909
C   C92       1.0  0.74910  0.28710  0.85160  1.0000 -0.0609936382
C   C93       1.0  0.83910  0.23690  0.88410  1.0000 -0.2201722892
C   C94       1.0  0.91740  0.20940  0.09920  1.0000 0.5473841174
C   C95       1.0  0.48720  0.74330  0.90380  1.0000 0.0784899436
C   C96       1.0  0.48860  0.62630  0.90330  1.0000 -0.20144033
C   C97       1.0  0.40860  0.56460  0.88930  1.0000 0.1002475488
C   C98       1.0  0.33140  0.62820  0.87960  1.0000 -0.1897056805
C   C99       1.0  0.33500  0.74360  0.88000  1.0000 0.0784899436
C   C100      1.0  0.48730  0.37710  0.90390  1.0000 -0.2111891912
C   C101      1.0  0.48450  0.25820  0.90130  1.0000 0.0784899436
C   C102      1.0  0.33040  0.25980  0.87110  1.0000 0.0574279247
C   C103      1.0  0.32830  0.37560  0.87240  1.0000 -0.20144033
C   C104      1.0  0.40680  0.43860  0.88740  1.0000 0.1002475488
N   N1        1.0  0.41160  0.19620  0.39340  1.0000 -0.2201722892
N   N2        1.0  0.40740  0.80120  0.38760  1.0000 -0.2111891912
N   N3        1.0  0.58840  0.19620  0.10660  1.0000 -0.2201722892
N   N4        1.0  0.59260  0.80120  0.11240  1.0000 -0.2111891912
N   N5        1.0  0.58840  0.80380  0.60660  1.0000 -0.2201722892
N   N6        1.0  0.59260  0.19880  0.61240  1.0000 -0.2111891912
N   N7        1.0  0.41160  0.80380  0.89340  1.0000 -0.2201722892
N   N8        1.0  0.40740  0.19880  0.88760  1.0000 -0.2111891912
O   O1        1.0  0.28990  0.98960  0.41540  1.0000 -0.5082521246
O   O2        1.0  0.42690  0.00630  0.53160  1.0000 -0.569834988
O   O3        1.0  0.40340  0.99840  0.77010  1.0000 -0.5202469932
O   O4        1.0  0.25950  0.98080  0.74950  1.0000 -0.5202469932
O   O5        1.0  0.98800  0.83700  0.50200  1.0000 -0.1551179694
O   O6        1.0  0.98750  0.85890  0.63170  1.0000 -0.5082521246
O   O7        1.0  0.88840  0.74890  0.64020  1.0000 -0.5416966484
O   O8        1.0  0.71010  0.98960  0.08460  1.0000 -0.5082521246
O   O9        1.0  0.57310  0.00630  0.96840  1.0000 -0.569834988
O   O10       1.0  0.59660  0.99840  0.72990  1.0000 -0.5202469932
O   O11       1.0  0.74050  0.98080  0.75050  1.0000 -0.5202469932
O   O12       1.0  0.01200  0.83700  0.99800  1.0000 -0.1551179694
O   O13       1.0  0.01250  0.85890  0.86830  1.0000 -0.5082521246
O   O14       1.0  0.11160  0.74890  0.85980  1.0000 -0.5416966484
O   O15       1.0  0.71010  0.01040  0.58460  1.0000 -0.5082521246
O   O16       1.0  0.57310  0.99370  0.46840  1.0000 -0.569834988
O   O17       1.0  0.59660  0.00160  0.22990  1.0000 -0.5202469932
O   O18       1.0  0.74050  0.01920  0.25050  1.0000 -0.5202469932
O   O19       1.0  0.01200  0.16300  0.49800  1.0000 -0.1551179694
O   O20       1.0  0.01250  0.14110  0.36830  1.0000 -0.5082521246
O   O21       1.0  0.11160  0.25110  0.35980  1.0000 -0.5416966484
O   O22       1.0  0.28990  0.01040  0.91540  1.0000 -0.5082521246
O   O23       1.0  0.42690  0.99370  0.03160  1.0000 -0.569834988
O   O24       1.0  0.40340  0.00160  0.27010  1.0000 -0.5202469932
O   O25       1.0  0.25950  0.01920  0.24950  1.0000 -0.5202469932
O   O26       1.0  0.98800  0.16300  0.00200  1.0000 -0.1551179694
O   O27       1.0  0.98750  0.14110  0.13170  1.0000 -0.5082521246
O   O28       1.0  0.88840  0.25110  0.14020  1.0000 -0.5416966484
