# DDEC6 charges by PACMAN v1.1 (https://github.com/mtap-research/PACMAN-charge/)
data_2019[Dy][sql]2[ASR]3
_chemical_formula_sum              "Dy8 H96 C72 O48"
_cell_length_a       8.6763
_cell_length_b       14.162
_cell_length_c       23.363
_cell_angle_alpha    90
_cell_angle_beta     90
_cell_angle_gamma    90

_symmetry_space_group_name_H-M    "P 1"
_symmetry_Int_Tables_number       1

loop_
  _symmetry_equiv_pos_as_xyz
  'x, y, z'

loop_
  _atom_site_type_symbol
  _atom_site_label
  _atom_site_symmetry_multiplicity
  _atom_site_fract_x
  _atom_site_fract_y
  _atom_site_fract_z
  _atom_site_occupancy
  _atom_site_charge
Dy  Dy1       1.0  0.77652  0.53542  0.19204  1.0000 1.9978518211
Dy  Dy2       1.0  0.77316  0.67551  0.81204  1.0000 1.9910801612
Dy  Dy3       1.0  0.72348  0.46458  0.69204  1.0000 1.9910801612
Dy  Dy4       1.0  0.72684  0.32449  0.31204  1.0000 1.9910801612
Dy  Dy5       1.0  0.22348  0.03542  0.30796  1.0000 1.9978518211
Dy  Dy6       1.0  0.22684  0.17551  0.68796  1.0000 1.9910801612
Dy  Dy7       1.0  0.27652  0.96458  0.80796  1.0000 1.9978518211
Dy  Dy8       1.0  0.27316  0.82449  0.18796  1.0000 1.9910801612
H   H1        1.0  0.42564  0.57606  0.03458  1.0000 0.1232716725
H   H2        1.0  0.57470  0.53955  0.00273  1.0000 0.1366354218
H   H3        1.0  0.55634  0.72293  0.05527  1.0000 0.1002013855
H   H4        1.0  0.70169  0.68678  0.02210  1.0000 0.1002013855
H   H5        1.0  0.41816  0.71132  0.96462  1.0000 0.0912579582
H   H6        1.0  0.49669  0.85632  0.00764  1.0000 0.1294441754
H   H7        1.0  0.47165  0.86288  0.94130  1.0000 0.1366354218
H   H8        1.0  0.63900  0.85645  0.96629  1.0000 0.1232716725
H   H9        1.0  0.25244  0.46610  0.10342  1.0000 0.1002013855
H   H10       1.0  0.23819  0.35254  0.19986  1.0000 0.1077229811
H   H11       1.0  0.33583  0.44443  0.19129  1.0000 0.1077229811
H   H12       1.0  0.41366  0.26144  0.14466  1.0000 0.1366354218
H   H13       1.0  0.49684  0.35284  0.12175  1.0000 0.1294441754
H   H14       1.0  0.25620  0.31243  0.06660  1.0000 0.1002013855
H   H15       1.0  0.10701  0.36756  0.04881  1.0000 0.1232716725
H   H16       1.0  0.09969  0.29195  0.09774  1.0000 0.1294441754
H   H17       1.0  0.00374  0.48635  0.37861  1.0000 0.0912579582
H   H18       1.0  0.25706  0.51784  0.30336  1.0000 0.1077229811
H   H19       1.0  0.17076  0.42067  0.30658  1.0000 0.1077229811
H   H20       1.0  0.33390  0.49945  0.40174  1.0000 0.1232716725
H   H21       1.0  0.25294  0.40014  0.40292  1.0000 0.1294441754
H   H22       1.0  0.15790  0.65668  0.35414  1.0000 0.1294441754
H   H23       1.0  0.13603  0.61087  0.41468  1.0000 0.1077229811
H   H24       1.0  0.99489  0.65625  0.38308  1.0000 0.1294441754
H   H25       1.0  0.07436  0.42394  0.53458  1.0000 0.1232716725
H   H26       1.0  0.92530  0.46045  0.50273  1.0000 0.1366354218
H   H27       1.0  0.94366  0.27707  0.55527  1.0000 0.1002013855
H   H28       1.0  0.79831  0.31322  0.52210  1.0000 0.1002013855
H   H29       1.0  0.08184  0.28868  0.46462  1.0000 0.0912579582
H   H30       1.0  0.00331  0.14368  0.50764  1.0000 0.1294441754
H   H31       1.0  0.02835  0.13712  0.44130  1.0000 0.1366354218
H   H32       1.0  0.86100  0.14355  0.46629  1.0000 0.1232716725
H   H33       1.0  0.24756  0.53390  0.60342  1.0000 0.1002013855
H   H34       1.0  0.26181  0.64746  0.69986  1.0000 0.1077229811
H   H35       1.0  0.16417  0.55557  0.69129  1.0000 0.1077229811
H   H36       1.0  0.08634  0.73856  0.64466  1.0000 0.1366354218
H   H37       1.0  0.00316  0.64716  0.62175  1.0000 0.1366354218
H   H38       1.0  0.24380  0.68757  0.56660  1.0000 0.1002013855
H   H39       1.0  0.39299  0.63244  0.54881  1.0000 0.1232716725
H   H40       1.0  0.40031  0.70805  0.59774  1.0000 0.1294441754
H   H41       1.0  0.49626  0.51365  0.87861  1.0000 0.0912579582
H   H42       1.0  0.24294  0.48216  0.80336  1.0000 0.1077229811
H   H43       1.0  0.32924  0.57933  0.80658  1.0000 0.1077229811
H   H44       1.0  0.16610  0.50055  0.90174  1.0000 0.1232716725
H   H45       1.0  0.24706  0.59986  0.90292  1.0000 0.1294441754
H   H46       1.0  0.34210  0.34332  0.85414  1.0000 0.1294441754
H   H47       1.0  0.36397  0.38913  0.91468  1.0000 0.1077229811
H   H48       1.0  0.50511  0.34375  0.88308  1.0000 0.1294441754
H   H49       1.0  0.57436  0.07606  0.46542  1.0000 0.1232716725
H   H50       1.0  0.42530  0.03955  0.49727  1.0000 0.1366354218
H   H51       1.0  0.44366  0.22293  0.44473  1.0000 0.1002013855
H   H52       1.0  0.29831  0.18678  0.47790  1.0000 0.1002013855
H   H53       1.0  0.58184  0.21132  0.53538  1.0000 0.0912579582
H   H54       1.0  0.50331  0.35632  0.49236  1.0000 0.1294441754
H   H55       1.0  0.52835  0.36288  0.55870  1.0000 0.1366354218
H   H56       1.0  0.36100  0.35645  0.53371  1.0000 0.1232716725
H   H57       1.0  0.74756  0.96610  0.39658  1.0000 0.1002013855
H   H58       1.0  0.76181  0.85254  0.30014  1.0000 0.1077229811
H   H59       1.0  0.66417  0.94443  0.30871  1.0000 0.1077229811
H   H60       1.0  0.58634  0.76144  0.35534  1.0000 0.1366354218
H   H61       1.0  0.50316  0.85284  0.37825  1.0000 0.1366354218
H   H62       1.0  0.74380  0.81243  0.43340  1.0000 0.1002013855
H   H63       1.0  0.89299  0.86756  0.45119  1.0000 0.1232716725
H   H64       1.0  0.90031  0.79195  0.40226  1.0000 0.1294441754
H   H65       1.0  0.99626  0.98635  0.12139  1.0000 0.0912579582
H   H66       1.0  0.74294  0.01784  0.19664  1.0000 0.1077229811
H   H67       1.0  0.82924  0.92067  0.19342  1.0000 0.1077229811
H   H68       1.0  0.66610  0.99945  0.09826  1.0000 0.1232716725
H   H69       1.0  0.74706  0.90014  0.09708  1.0000 0.1294441754
H   H70       1.0  0.84210  0.15668  0.14586  1.0000 0.1294441754
H   H71       1.0  0.86397  0.11087  0.08532  1.0000 0.1077229811
H   H72       1.0  0.00511  0.15625  0.11692  1.0000 0.1294441754
H   H73       1.0  0.92564  0.92394  0.96542  1.0000 0.1232716725
H   H74       1.0  0.07470  0.96045  0.99727  1.0000 0.1366354218
H   H75       1.0  0.05634  0.77707  0.94473  1.0000 0.1002013855
H   H76       1.0  0.20169  0.81322  0.97790  1.0000 0.1002013855
H   H77       1.0  0.91816  0.78868  0.03538  1.0000 0.0912579582
H   H78       1.0  0.99669  0.64368  0.99236  1.0000 0.1294441754
H   H79       1.0  0.97165  0.63712  0.05870  1.0000 0.1366354218
H   H80       1.0  0.13900  0.64355  0.03371  1.0000 0.1232716725
H   H81       1.0  0.75244  0.03390  0.89658  1.0000 0.1002013855
H   H82       1.0  0.73819  0.14746  0.80014  1.0000 0.1077229811
H   H83       1.0  0.83583  0.05557  0.80871  1.0000 0.1077229811
H   H84       1.0  0.91366  0.23856  0.85534  1.0000 0.1366354218
H   H85       1.0  0.99684  0.14716  0.87825  1.0000 0.1294441754
H   H86       1.0  0.75620  0.18757  0.93340  1.0000 0.1002013855
H   H87       1.0  0.60701  0.13244  0.95119  1.0000 0.1232716725
H   H88       1.0  0.59969  0.20805  0.90226  1.0000 0.1294441754
H   H89       1.0  0.50374  0.01365  0.62139  1.0000 0.0912579582
H   H90       1.0  0.75706  0.98216  0.69664  1.0000 0.1077229811
H   H91       1.0  0.67076  0.07933  0.69342  1.0000 0.1002013855
H   H92       1.0  0.83390  0.00055  0.59826  1.0000 0.1232716725
H   H93       1.0  0.75294  0.09986  0.59708  1.0000 0.1294441754
H   H94       1.0  0.65790  0.84332  0.64586  1.0000 0.1294441754
H   H95       1.0  0.63603  0.88913  0.58532  1.0000 0.1077229811
H   H96       1.0  0.49489  0.84375  0.61692  1.0000 0.1294441754
C   C1        1.0  0.60910  0.55410  0.09050  1.0000 0.6216798282
C   C2        1.0  0.53700  0.58040  0.03300  1.0000 -0.318061954
C   C3        1.0  0.59000  0.68490  0.02310  1.0000 -0.1476521916
C   C4        1.0  0.52710  0.72890  0.96750  1.0000 -0.0513102798
C   C5        1.0  0.60580  0.69360  0.91410  1.0000 0.5618491345
C   C6        1.0  0.53400  0.83600  0.97100  1.0000 -0.3955313778
C   C7        1.0  0.05590  0.45910  0.14990  1.0000 0.5724683874
C   C8        1.0  0.19870  0.41550  0.12390  1.0000 -0.0683135307
C   C9        1.0  0.29920  0.38770  0.17240  1.0000 -0.1476521916
C   C10       1.0  0.44450  0.32520  0.15440  1.0000 -0.318061954
C   C11       1.0  0.55000  0.32590  0.20530  1.0000 0.6751645827
C   C12       1.0  0.16200  0.34000  0.08030  1.0000 -0.3920390029
C   C13       1.0  0.94910  0.53150  0.29790  1.0000 0.625450822
C   C14       1.0  0.05340  0.52680  0.35000  1.0000 -0.0683135307
C   C15       1.0  0.20040  0.47590  0.32850  1.0000 -0.1476521916
C   C16       1.0  0.30660  0.44500  0.37870  1.0000 -0.3097676493
C   C17       1.0  0.45040  0.40020  0.35460  1.0000 0.625450822
C   C18       1.0  0.08900  0.62140  0.37810  1.0000 -0.3955313778
C   C19       1.0  0.89090  0.44590  0.59050  1.0000 0.6216798282
C   C20       1.0  0.96300  0.41960  0.53300  1.0000 -0.318061954
C   C21       1.0  0.91000  0.31510  0.52310  1.0000 -0.1476521916
C   C22       1.0  0.97290  0.27110  0.46750  1.0000 -0.0513102798
C   C23       1.0  0.89420  0.30640  0.41410  1.0000 0.5618491345
C   C24       1.0  0.96600  0.16400  0.47100  1.0000 -0.3955313778
C   C25       1.0  0.44410  0.54090  0.64990  1.0000 0.5724683874
C   C26       1.0  0.30130  0.58450  0.62390  1.0000 -0.0683135307
C   C27       1.0  0.20080  0.61230  0.67240  1.0000 -0.1476521916
C   C28       1.0  0.05550  0.67480  0.65440  1.0000 -0.318061954
C   C29       1.0  0.95000  0.67410  0.70530  1.0000 0.6751645827
C   C30       1.0  0.33800  0.66000  0.58030  1.0000 -0.3920390029
C   C31       1.0  0.55090  0.46850  0.79790  1.0000 0.6216798282
C   C32       1.0  0.44660  0.47320  0.85000  1.0000 -0.0683135307
C   C33       1.0  0.29960  0.52410  0.82850  1.0000 -0.1476521916
C   C34       1.0  0.19340  0.55500  0.87870  1.0000 -0.3097676493
C   C35       1.0  0.04960  0.59980  0.85460  1.0000 0.6216798282
C   C36       1.0  0.41100  0.37860  0.87810  1.0000 -0.3920390029
C   C37       1.0  0.39090  0.05410  0.40950  1.0000 0.6216798282
C   C38       1.0  0.46300  0.08040  0.46700  1.0000 -0.318061954
C   C39       1.0  0.41000  0.18490  0.47690  1.0000 -0.1476521916
C   C40       1.0  0.47290  0.22890  0.53250  1.0000 -0.0513102798
C   C41       1.0  0.39420  0.19360  0.58590  1.0000 0.5618491345
C   C42       1.0  0.46600  0.33600  0.52900  1.0000 -0.3955313778
C   C43       1.0  0.94410  0.95910  0.35010  1.0000 0.5724683874
C   C44       1.0  0.80130  0.91550  0.37610  1.0000 -0.0683135307
C   C45       1.0  0.70080  0.88770  0.32760  1.0000 -0.1476521916
C   C46       1.0  0.55550  0.82520  0.34560  1.0000 -0.3097676493
C   C47       1.0  0.45000  0.82590  0.29470  1.0000 0.6751645827
C   C48       1.0  0.83800  0.84000  0.41970  1.0000 -0.3920390029
C   C49       1.0  0.05090  0.03150  0.20210  1.0000 0.6216798282
C   C50       1.0  0.94660  0.02680  0.15000  1.0000 -0.0683135307
C   C51       1.0  0.79960  0.97590  0.17150  1.0000 -0.1476521916
C   C52       1.0  0.69340  0.94500  0.12130  1.0000 -0.3097676493
C   C53       1.0  0.54960  0.90020  0.14540  1.0000 0.6216798282
C   C54       1.0  0.91100  0.12140  0.12190  1.0000 -0.3920390029
C   C55       1.0  0.10910  0.94590  0.90950  1.0000 0.6216798282
C   C56       1.0  0.03700  0.91960  0.96700  1.0000 -0.318061954
C   C57       1.0  0.09000  0.81510  0.97690  1.0000 -0.1476521916
C   C58       1.0  0.02710  0.77110  0.03250  1.0000 -0.0513102798
C   C59       1.0  0.10580  0.80640  0.08590  1.0000 0.5618491345
C   C60       1.0  0.03400  0.66400  0.02900  1.0000 -0.3955313778
C   C61       1.0  0.55590  0.04090  0.85010  1.0000 0.5724683874
C   C62       1.0  0.69870  0.08450  0.87610  1.0000 -0.0683135307
C   C63       1.0  0.79920  0.11230  0.82760  1.0000 -0.1476521916
C   C64       1.0  0.94450  0.17480  0.84560  1.0000 -0.318061954
C   C65       1.0  0.05000  0.17410  0.79470  1.0000 0.6751645827
C   C66       1.0  0.66200  0.16000  0.91970  1.0000 -0.3920390029
C   C67       1.0  0.44910  0.96850  0.70210  1.0000 0.6216798282
C   C68       1.0  0.55340  0.97320  0.65000  1.0000 -0.0683135307
C   C69       1.0  0.70040  0.02410  0.67150  1.0000 -0.1476521916
C   C70       1.0  0.80660  0.05500  0.62130  1.0000 -0.3097676493
C   C71       1.0  0.95040  0.09980  0.64540  1.0000 0.625450822
C   C72       1.0  0.58900  0.87860  0.62190  1.0000 -0.3920390029
O   O1        1.0  0.74230  0.51500  0.09030  1.0000 -0.6491764463
O   O2        1.0  0.54450  0.56990  0.13780  1.0000 -0.6313948906
O   O3        1.0  0.73810  0.65750  0.91490  1.0000 -0.6097954414
O   O4        1.0  0.54190  0.70810  0.86580  1.0000 -0.640439061
O   O5        1.0  0.94860  0.40690  0.16800  1.0000 -0.6203760556
O   O6        1.0  0.04010  0.54760  0.15220  1.0000 -0.6203760556
O   O7        1.0  0.55260  0.25940  0.24010  1.0000 -0.5979058272
O   O8        1.0  0.63800  0.39800  0.21500  1.0000 -0.7633585609
O   O9        1.0  0.94800  0.60310  0.26560  1.0000 -0.6097954414
O   O10       1.0  0.86140  0.46310  0.28620  1.0000 -0.7298213518
O   O11       1.0  0.46430  0.31340  0.35180  1.0000 -0.5830131448
O   O12       1.0  0.56130  0.45320  0.33590  1.0000 -0.6572518475
O   O13       1.0  0.75770  0.48500  0.59030  1.0000 -0.6491764463
O   O14       1.0  0.95550  0.43010  0.63780  1.0000 -0.6313948906
O   O15       1.0  0.76190  0.34250  0.41490  1.0000 -0.6097954414
O   O16       1.0  0.95810  0.29190  0.36580  1.0000 -0.640439061
O   O17       1.0  0.55140  0.59310  0.66800  1.0000 -0.6203760556
O   O18       1.0  0.45990  0.45240  0.65220  1.0000 -0.6203760556
O   O19       1.0  0.94740  0.74060  0.74010  1.0000 -0.5979058272
O   O20       1.0  0.86200  0.60200  0.71500  1.0000 -0.7633585609
O   O21       1.0  0.55200  0.39690  0.76560  1.0000 -0.6097954414
O   O22       1.0  0.63860  0.53690  0.78620  1.0000 -0.7298213518
O   O23       1.0  0.03570  0.68660  0.85180  1.0000 -0.5830131448
O   O24       1.0  0.93870  0.54680  0.83590  1.0000 -0.6572518475
O   O25       1.0  0.25770  0.01500  0.40970  1.0000 -0.6491764463
O   O26       1.0  0.45550  0.06990  0.36220  1.0000 -0.6313948906
O   O27       1.0  0.26190  0.15750  0.58510  1.0000 -0.6097954414
O   O28       1.0  0.45810  0.20810  0.63420  1.0000 -0.640439061
O   O29       1.0  0.05140  0.90690  0.33200  1.0000 -0.6203760556
O   O30       1.0  0.95990  0.04760  0.34780  1.0000 -0.6203760556
O   O31       1.0  0.44740  0.75940  0.25990  1.0000 -0.5979058272
O   O32       1.0  0.36200  0.89800  0.28500  1.0000 -0.7633585609
O   O33       1.0  0.05200  0.10310  0.23440  1.0000 -0.6097954414
O   O34       1.0  0.13860  0.96310  0.21380  1.0000 -0.7298213518
O   O35       1.0  0.53570  0.81340  0.14820  1.0000 -0.5830131448
O   O36       1.0  0.43870  0.95320  0.16410  1.0000 -0.6572518475
O   O37       1.0  0.24230  0.98500  0.90970  1.0000 -0.6491764463
O   O38       1.0  0.04450  0.93010  0.86220  1.0000 -0.6313948906
O   O39       1.0  0.23810  0.84250  0.08510  1.0000 -0.6097954414
O   O40       1.0  0.04190  0.79190  0.13420  1.0000 -0.640439061
O   O41       1.0  0.44860  0.09310  0.83200  1.0000 -0.6203760556
O   O42       1.0  0.54010  0.95240  0.84780  1.0000 -0.6203760556
O   O43       1.0  0.05260  0.24060  0.75990  1.0000 -0.5979058272
O   O44       1.0  0.13800  0.10200  0.78500  1.0000 -0.7633585609
O   O45       1.0  0.44800  0.89690  0.73440  1.0000 -0.6097954414
O   O46       1.0  0.36140  0.03690  0.71380  1.0000 -0.7298213518
O   O47       1.0  0.96430  0.18660  0.64820  1.0000 -0.5830131448
O   O48       1.0  0.06130  0.04680  0.66410  1.0000 -0.6572518475
