# DDEC6 charges by PACMAN v1.1 (https://github.com/mtap-research/PACMAN-charge/)
data_2019[Zn][sql]2[ASR]13
_chemical_formula_sum              "Zn8 H128 C160 N16 O32"
_cell_length_a       10.113
_cell_length_b       17.913
_cell_length_c       23.299
_cell_angle_alpha    90
_cell_angle_beta     90
_cell_angle_gamma    90

_symmetry_space_group_name_H-M    "P 1"
_symmetry_Int_Tables_number       1

loop_
  _symmetry_equiv_pos_as_xyz
  'x, y, z'

loop_
  _atom_site_type_symbol
  _atom_site_label
  _atom_site_symmetry_multiplicity
  _atom_site_fract_x
  _atom_site_fract_y
  _atom_site_fract_z
  _atom_site_occupancy
  _atom_site_charge
Zn  Zn1       1.0  0.07709  0.07940  0.59373  1.0000 0.7338230044
Zn  Zn2       1.0  0.07709  0.42060  0.09373  1.0000 0.7338230044
Zn  Zn3       1.0  0.42291  0.92060  0.09373  1.0000 0.7338230044
Zn  Zn4       1.0  0.42291  0.57940  0.59373  1.0000 0.7338230044
Zn  Zn5       1.0  0.92291  0.57940  0.90627  1.0000 0.7338230044
Zn  Zn6       1.0  0.92291  0.92060  0.40627  1.0000 0.7338230044
Zn  Zn7       1.0  0.57709  0.42060  0.40627  1.0000 0.7338230044
Zn  Zn8       1.0  0.57709  0.07940  0.90627  1.0000 0.7338230044
H   H1        1.0  0.90988  0.07583  0.49133  1.0000 0.1098614956
H   H2        1.0  0.18264  0.21830  0.53617  1.0000 0.1098614956
H   H3        1.0  0.15718  0.28445  0.45186  1.0000 0.1469983576
H   H4        1.0  0.56407  0.09028  0.59248  1.0000 0.1098614956
H   H5        1.0  0.87764  0.13632  0.40551  1.0000 0.1469983576
H   H6        1.0  0.77594  0.90201  0.57744  1.0000 0.1098614956
H   H7        1.0  0.99097  0.30686  0.36430  1.0000 0.1297648188
H   H8        1.0  0.92669  0.23385  0.33952  1.0000 0.1190587696
H   H9        1.0  0.22040  0.42828  0.20244  1.0000 0.1190587696
H   H10       1.0  0.58505  0.83424  0.56471  1.0000 0.1012471665
H   H11       1.0  0.99354  0.20897  0.22695  1.0000 0.1469983576
H   H12       1.0  0.13676  0.18543  0.31810  1.0000 0.1190587696
H   H13       1.0  0.20446  0.25555  0.34590  1.0000 0.1190587696
H   H14       1.0  0.97602  0.27801  0.14383  1.0000 0.1098614956
H   H15       1.0  0.37736  0.89438  0.56787  1.0000 0.1098614956
H   H16       1.0  0.24228  0.36235  0.28934  1.0000 0.1439642639
H   H17       1.0  0.90988  0.42417  0.99133  1.0000 0.1098614956
H   H18       1.0  0.18264  0.28170  0.03617  1.0000 0.1098614956
H   H19       1.0  0.15718  0.21555  0.95186  1.0000 0.1469983576
H   H20       1.0  0.56407  0.40972  0.09248  1.0000 0.1098614956
H   H21       1.0  0.87764  0.36368  0.90551  1.0000 0.1469983576
H   H22       1.0  0.77594  0.59799  0.07744  1.0000 0.1098614956
H   H23       1.0  0.99097  0.19314  0.86430  1.0000 0.1297648188
H   H24       1.0  0.92669  0.26615  0.83952  1.0000 0.1190587696
H   H25       1.0  0.22040  0.07172  0.70244  1.0000 0.1190587696
H   H26       1.0  0.58505  0.66576  0.06471  1.0000 0.1012471665
H   H27       1.0  0.99354  0.29103  0.72695  1.0000 0.1469983576
H   H28       1.0  0.13676  0.31457  0.81810  1.0000 0.1190587696
H   H29       1.0  0.20446  0.24445  0.84590  1.0000 0.1190587696
H   H30       1.0  0.97602  0.22199  0.64383  1.0000 0.1098614956
H   H31       1.0  0.37736  0.60562  0.06787  1.0000 0.1098614956
H   H32       1.0  0.24228  0.13765  0.78934  1.0000 0.1439642639
H   H33       1.0  0.59012  0.92417  0.99133  1.0000 0.1098614956
H   H34       1.0  0.31736  0.78170  0.03617  1.0000 0.1098614956
H   H35       1.0  0.34282  0.71555  0.95186  1.0000 0.1469983576
H   H36       1.0  0.93593  0.90972  0.09248  1.0000 0.1098614956
H   H37       1.0  0.62236  0.86368  0.90551  1.0000 0.1469983576
H   H38       1.0  0.72406  0.09799  0.07744  1.0000 0.1098614956
H   H39       1.0  0.50903  0.69314  0.86430  1.0000 0.1297648188
H   H40       1.0  0.57331  0.76615  0.83952  1.0000 0.1190587696
H   H41       1.0  0.27960  0.57172  0.70244  1.0000 0.1190587696
H   H42       1.0  0.91495  0.16576  0.06471  1.0000 0.1012471665
H   H43       1.0  0.50646  0.79103  0.72695  1.0000 0.1469983576
H   H44       1.0  0.36324  0.81457  0.81810  1.0000 0.1190587696
H   H45       1.0  0.29554  0.74445  0.84590  1.0000 0.1190587696
H   H46       1.0  0.52398  0.72199  0.64383  1.0000 0.1098614956
H   H47       1.0  0.12264  0.10562  0.06787  1.0000 0.1098614956
H   H48       1.0  0.25772  0.63765  0.78934  1.0000 0.1439642639
H   H49       1.0  0.59012  0.57583  0.49133  1.0000 0.1098614956
H   H50       1.0  0.31736  0.71830  0.53617  1.0000 0.1098614956
H   H51       1.0  0.34282  0.78445  0.45186  1.0000 0.1469983576
H   H52       1.0  0.93593  0.59028  0.59248  1.0000 0.1098614956
H   H53       1.0  0.62236  0.63632  0.40551  1.0000 0.1469983576
H   H54       1.0  0.72406  0.40201  0.57744  1.0000 0.1098614956
H   H55       1.0  0.50903  0.80686  0.36430  1.0000 0.1297648188
H   H56       1.0  0.57331  0.73385  0.33952  1.0000 0.1190587696
H   H57       1.0  0.27960  0.92828  0.20244  1.0000 0.1190587696
H   H58       1.0  0.91495  0.33424  0.56471  1.0000 0.1012471665
H   H59       1.0  0.50646  0.70897  0.22695  1.0000 0.1469983576
H   H60       1.0  0.36324  0.68543  0.31810  1.0000 0.1190587696
H   H61       1.0  0.29554  0.75555  0.34590  1.0000 0.1190587696
H   H62       1.0  0.52398  0.77801  0.14383  1.0000 0.1098614956
H   H63       1.0  0.12264  0.39438  0.56787  1.0000 0.1098614956
H   H64       1.0  0.25772  0.86235  0.28934  1.0000 0.1439642639
H   H65       1.0  0.09012  0.57583  0.00867  1.0000 0.1098614956
H   H66       1.0  0.81736  0.71830  0.96383  1.0000 0.1098614956
H   H67       1.0  0.84282  0.78445  0.04814  1.0000 0.1469983576
H   H68       1.0  0.43593  0.59028  0.90752  1.0000 0.1098614956
H   H69       1.0  0.12236  0.63632  0.09449  1.0000 0.1469983576
H   H70       1.0  0.22406  0.40201  0.92256  1.0000 0.1098614956
H   H71       1.0  0.00903  0.80686  0.13570  1.0000 0.1297648188
H   H72       1.0  0.07331  0.73385  0.16048  1.0000 0.1190587696
H   H73       1.0  0.77960  0.92828  0.29756  1.0000 0.1190587696
H   H74       1.0  0.41495  0.33424  0.93529  1.0000 0.1012471665
H   H75       1.0  0.00646  0.70897  0.27305  1.0000 0.1469983576
H   H76       1.0  0.86324  0.68543  0.18190  1.0000 0.1190587696
H   H77       1.0  0.79554  0.75555  0.15410  1.0000 0.1190587696
H   H78       1.0  0.02398  0.77801  0.35617  1.0000 0.1098614956
H   H79       1.0  0.62264  0.39438  0.93213  1.0000 0.1098614956
H   H80       1.0  0.75772  0.86235  0.21066  1.0000 0.1439642639
H   H81       1.0  0.09012  0.92417  0.50867  1.0000 0.1098614956
H   H82       1.0  0.81736  0.78170  0.46383  1.0000 0.1098614956
H   H83       1.0  0.84282  0.71555  0.54814  1.0000 0.1469983576
H   H84       1.0  0.43593  0.90972  0.40752  1.0000 0.1098614956
H   H85       1.0  0.12236  0.86368  0.59449  1.0000 0.1469983576
H   H86       1.0  0.22406  0.09799  0.42256  1.0000 0.1098614956
H   H87       1.0  0.00903  0.69314  0.63570  1.0000 0.1297648188
H   H88       1.0  0.07331  0.76615  0.66048  1.0000 0.1190587696
H   H89       1.0  0.77960  0.57172  0.79756  1.0000 0.1190587696
H   H90       1.0  0.41495  0.16576  0.43529  1.0000 0.1012471665
H   H91       1.0  0.00646  0.79103  0.77305  1.0000 0.1469983576
H   H92       1.0  0.86324  0.81457  0.68190  1.0000 0.1190587696
H   H93       1.0  0.79554  0.74445  0.65410  1.0000 0.1190587696
H   H94       1.0  0.02398  0.72199  0.85617  1.0000 0.1098614956
H   H95       1.0  0.62264  0.10562  0.43213  1.0000 0.1098614956
H   H96       1.0  0.75772  0.63765  0.71066  1.0000 0.1439642639
H   H97       1.0  0.40988  0.42417  0.50867  1.0000 0.1098614956
H   H98       1.0  0.68264  0.28170  0.46383  1.0000 0.1098614956
H   H99       1.0  0.65718  0.21555  0.54814  1.0000 0.1469983576
H   H100      1.0  0.06407  0.40972  0.40752  1.0000 0.1098614956
H   H101      1.0  0.37764  0.36368  0.59449  1.0000 0.1469983576
H   H102      1.0  0.27594  0.59799  0.42256  1.0000 0.1098614956
H   H103      1.0  0.49097  0.19314  0.63570  1.0000 0.1297648188
H   H104      1.0  0.42669  0.26615  0.66048  1.0000 0.1190587696
H   H105      1.0  0.72040  0.07172  0.79756  1.0000 0.1190587696
H   H106      1.0  0.08505  0.66576  0.43529  1.0000 0.1012471665
H   H107      1.0  0.49354  0.29103  0.77305  1.0000 0.1469983576
H   H108      1.0  0.63676  0.31457  0.68190  1.0000 0.1190587696
H   H109      1.0  0.70446  0.24445  0.65410  1.0000 0.1190587696
H   H110      1.0  0.47602  0.22199  0.85617  1.0000 0.1098614956
H   H111      1.0  0.87736  0.60562  0.43213  1.0000 0.1098614956
H   H112      1.0  0.74228  0.13765  0.71066  1.0000 0.1439642639
H   H113      1.0  0.40988  0.07583  0.00867  1.0000 0.1098614956
H   H114      1.0  0.68264  0.21830  0.96383  1.0000 0.1098614956
H   H115      1.0  0.65718  0.28445  0.04814  1.0000 0.1469983576
H   H116      1.0  0.06407  0.09028  0.90752  1.0000 0.1098614956
H   H117      1.0  0.37764  0.13632  0.09449  1.0000 0.1469983576
H   H118      1.0  0.27594  0.90201  0.92256  1.0000 0.1098614956
H   H119      1.0  0.49097  0.30686  0.13570  1.0000 0.1297648188
H   H120      1.0  0.42669  0.23385  0.16048  1.0000 0.1190587696
H   H121      1.0  0.72040  0.42828  0.29756  1.0000 0.1190587696
H   H122      1.0  0.08505  0.83424  0.93529  1.0000 0.1012471665
H   H123      1.0  0.49354  0.20897  0.27305  1.0000 0.1469983576
H   H124      1.0  0.63676  0.18543  0.18190  1.0000 0.1190587696
H   H125      1.0  0.70446  0.25555  0.15410  1.0000 0.1190587696
H   H126      1.0  0.47602  0.27801  0.35617  1.0000 0.1098614956
H   H127      1.0  0.87736  0.89438  0.93213  1.0000 0.1098614956
H   H128      1.0  0.74228  0.36235  0.21066  1.0000 0.1439642639
C   C1        1.0  0.96050  0.11780  0.48310  1.0000 0.1190587696
C   C2        1.0  0.81540  0.04830  0.59850  1.0000 0.5327952982
C   C3        1.0  0.69050  0.00330  0.58960  1.0000 -0.0109529183
C   C4        1.0  0.32340  0.04020  0.58220  1.0000 0.5445275933
C   C5        1.0  0.01300  0.21700  0.41830  1.0000 0.1809495867
C   C6        1.0  0.12100  0.20210  0.50930  1.0000 0.0622005717
C   C7        1.0  0.10650  0.24210  0.45880  1.0000 -0.2013287421
C   C8        1.0  0.56840  0.03870  0.58830  1.0000 -0.1253521748
C   C9        1.0  0.94020  0.15420  0.43130  1.0000 -0.2013287421
C   C10       1.0  0.45340  0.99850  0.58090  1.0000 -0.0109529183
C   C11       1.0  0.69460  0.92610  0.57910  1.0000 -0.1021995216
C   C12       1.0  0.00300  0.25350  0.35970  1.0000 -0.2370651222
C   C13       1.0  0.17380  0.38410  0.20770  1.0000 0.1012471665
C   C14       1.0  0.58020  0.88540  0.57100  1.0000 -0.1021995216
C   C15       1.0  0.12110  0.27930  0.26700  1.0000 0.1687445578
C   C16       1.0  0.04010  0.25350  0.22300  1.0000 -0.2013287421
C   C17       1.0  0.12760  0.23870  0.32460  1.0000 -0.2370651222
C   C18       1.0  0.03010  0.29520  0.17330  1.0000 0.0713331059
C   C19       1.0  0.45530  0.92130  0.57240  1.0000 -0.1169309036
C   C20       1.0  0.18810  0.34420  0.26030  1.0000 -0.2013287421
C   C21       1.0  0.96050  0.38220  0.98310  1.0000 0.1190587696
C   C22       1.0  0.81540  0.45170  0.09850  1.0000 0.5327952982
C   C23       1.0  0.69050  0.49670  0.08960  1.0000 -0.0109529183
C   C24       1.0  0.32340  0.45980  0.08220  1.0000 0.5445275933
C   C25       1.0  0.01300  0.28300  0.91830  1.0000 0.1809495867
C   C26       1.0  0.12100  0.29790  0.00930  1.0000 0.0622005717
C   C27       1.0  0.10650  0.25790  0.95880  1.0000 -0.2013287421
C   C28       1.0  0.56840  0.46130  0.08830  1.0000 -0.1253521748
C   C29       1.0  0.94020  0.34580  0.93130  1.0000 -0.2013287421
C   C30       1.0  0.45340  0.50150  0.08090  1.0000 -0.0109529183
C   C31       1.0  0.69460  0.57390  0.07910  1.0000 -0.1021995216
C   C32       1.0  0.00300  0.24650  0.85970  1.0000 -0.2370651222
C   C33       1.0  0.17380  0.11590  0.70770  1.0000 0.1012471665
C   C34       1.0  0.58020  0.61460  0.07100  1.0000 -0.1021995216
C   C35       1.0  0.12110  0.22070  0.76700  1.0000 0.1687445578
C   C36       1.0  0.04010  0.24650  0.72300  1.0000 -0.2013287421
C   C37       1.0  0.12760  0.26130  0.82460  1.0000 -0.2370651222
C   C38       1.0  0.03010  0.20480  0.67330  1.0000 0.0713331059
C   C39       1.0  0.45530  0.57870  0.07240  1.0000 -0.1169309036
C   C40       1.0  0.18810  0.15580  0.76030  1.0000 -0.2013287421
C   C41       1.0  0.53950  0.88220  0.98310  1.0000 0.1190587696
C   C42       1.0  0.68460  0.95170  0.09850  1.0000 0.5327952982
C   C43       1.0  0.80950  0.99670  0.08960  1.0000 -0.0109529183
C   C44       1.0  0.17660  0.95980  0.08220  1.0000 0.5445275933
C   C45       1.0  0.48700  0.78300  0.91830  1.0000 0.1809495867
C   C46       1.0  0.37900  0.79790  0.00930  1.0000 0.0622005717
C   C47       1.0  0.39350  0.75790  0.95880  1.0000 -0.2013287421
C   C48       1.0  0.93160  0.96130  0.08830  1.0000 -0.1253521748
C   C49       1.0  0.55980  0.84580  0.93130  1.0000 -0.2013287421
C   C50       1.0  0.04660  0.00150  0.08090  1.0000 -0.0109529183
C   C51       1.0  0.80540  0.07390  0.07910  1.0000 -0.1021995216
C   C52       1.0  0.49700  0.74650  0.85970  1.0000 -0.2370651222
C   C53       1.0  0.32620  0.61590  0.70770  1.0000 0.1012471665
C   C54       1.0  0.91980  0.11460  0.07100  1.0000 -0.1021995216
C   C55       1.0  0.37890  0.72070  0.76700  1.0000 0.1687445578
C   C56       1.0  0.45990  0.74650  0.72300  1.0000 -0.2013287421
C   C57       1.0  0.37240  0.76130  0.82460  1.0000 -0.2370651222
C   C58       1.0  0.46990  0.70480  0.67330  1.0000 0.0713331059
C   C59       1.0  0.04470  0.07870  0.07240  1.0000 -0.1169309036
C   C60       1.0  0.31190  0.65580  0.76030  1.0000 -0.2013287421
C   C61       1.0  0.53950  0.61780  0.48310  1.0000 0.1190587696
C   C62       1.0  0.68460  0.54830  0.59850  1.0000 0.5327952982
C   C63       1.0  0.80950  0.50330  0.58960  1.0000 -0.0109529183
C   C64       1.0  0.17660  0.54020  0.58220  1.0000 0.5445275933
C   C65       1.0  0.48700  0.71700  0.41830  1.0000 0.1809495867
C   C66       1.0  0.37900  0.70210  0.50930  1.0000 0.0622005717
C   C67       1.0  0.39350  0.74210  0.45880  1.0000 -0.2013287421
C   C68       1.0  0.93160  0.53870  0.58830  1.0000 -0.1253521748
C   C69       1.0  0.55980  0.65420  0.43130  1.0000 -0.2013287421
C   C70       1.0  0.04660  0.49850  0.58090  1.0000 -0.0109529183
C   C71       1.0  0.80540  0.42610  0.57910  1.0000 -0.1021995216
C   C72       1.0  0.49700  0.75350  0.35970  1.0000 -0.2370651222
C   C73       1.0  0.32620  0.88410  0.20770  1.0000 0.1012471665
C   C74       1.0  0.91980  0.38540  0.57100  1.0000 -0.1021995216
C   C75       1.0  0.37890  0.77930  0.26700  1.0000 0.1687445578
C   C76       1.0  0.45990  0.75350  0.22300  1.0000 -0.2013287421
C   C77       1.0  0.37240  0.73870  0.32460  1.0000 -0.2370651222
C   C78       1.0  0.46990  0.79520  0.17330  1.0000 0.0713331059
C   C79       1.0  0.04470  0.42130  0.57240  1.0000 -0.1169309036
C   C80       1.0  0.31190  0.84420  0.26030  1.0000 -0.2013287421
C   C81       1.0  0.03950  0.61780  0.01690  1.0000 0.1190587696
C   C82       1.0  0.18460  0.54830  0.90150  1.0000 0.5327952982
C   C83       1.0  0.30950  0.50330  0.91040  1.0000 -0.0109529183
C   C84       1.0  0.67660  0.54020  0.91780  1.0000 0.5445275933
C   C85       1.0  0.98700  0.71700  0.08170  1.0000 0.1809495867
C   C86       1.0  0.87900  0.70210  0.99070  1.0000 0.0622005717
C   C87       1.0  0.89350  0.74210  0.04120  1.0000 -0.2013287421
C   C88       1.0  0.43160  0.53870  0.91170  1.0000 -0.1253521748
C   C89       1.0  0.05980  0.65420  0.06870  1.0000 -0.2013287421
C   C90       1.0  0.54660  0.49850  0.91910  1.0000 -0.0109529183
C   C91       1.0  0.30540  0.42610  0.92090  1.0000 -0.1021995216
C   C92       1.0  0.99700  0.75350  0.14030  1.0000 -0.2370651222
C   C93       1.0  0.82620  0.88410  0.29230  1.0000 0.1012471665
C   C94       1.0  0.41980  0.38540  0.92900  1.0000 -0.1021995216
C   C95       1.0  0.87890  0.77930  0.23300  1.0000 0.1687445578
C   C96       1.0  0.95990  0.75350  0.27700  1.0000 -0.2013287421
C   C97       1.0  0.87240  0.73870  0.17540  1.0000 -0.2370651222
C   C98       1.0  0.96990  0.79520  0.32670  1.0000 0.0713331059
C   C99       1.0  0.54470  0.42130  0.92760  1.0000 -0.1169309036
C   C100      1.0  0.81190  0.84420  0.23970  1.0000 -0.2013287421
C   C101      1.0  0.03950  0.88220  0.51690  1.0000 0.1190587696
C   C102      1.0  0.18460  0.95170  0.40150  1.0000 0.5327952982
C   C103      1.0  0.30950  0.99670  0.41040  1.0000 -0.0109529183
C   C104      1.0  0.67660  0.95980  0.41780  1.0000 0.5445275933
C   C105      1.0  0.98700  0.78300  0.58170  1.0000 0.1809495867
C   C106      1.0  0.87900  0.79790  0.49070  1.0000 0.0622005717
C   C107      1.0  0.89350  0.75790  0.54120  1.0000 -0.2013287421
C   C108      1.0  0.43160  0.96130  0.41170  1.0000 -0.1253521748
C   C109      1.0  0.05980  0.84580  0.56870  1.0000 -0.2013287421
C   C110      1.0  0.54660  0.00150  0.41910  1.0000 -0.0109529183
C   C111      1.0  0.30540  0.07390  0.42090  1.0000 -0.1021995216
C   C112      1.0  0.99700  0.74650  0.64030  1.0000 -0.2370651222
C   C113      1.0  0.82620  0.61590  0.79230  1.0000 0.1012471665
C   C114      1.0  0.41980  0.11460  0.42900  1.0000 -0.1021995216
C   C115      1.0  0.87890  0.72070  0.73300  1.0000 0.1687445578
C   C116      1.0  0.95990  0.74650  0.77700  1.0000 -0.2013287421
C   C117      1.0  0.87240  0.76130  0.67540  1.0000 -0.2370651222
C   C118      1.0  0.96990  0.70480  0.82670  1.0000 0.0713331059
C   C119      1.0  0.54470  0.07870  0.42760  1.0000 -0.1169309036
C   C120      1.0  0.81190  0.65580  0.73970  1.0000 -0.2013287421
C   C121      1.0  0.46050  0.38220  0.51690  1.0000 0.1190587696
C   C122      1.0  0.31540  0.45170  0.40150  1.0000 0.5327952982
C   C123      1.0  0.19050  0.49670  0.41040  1.0000 -0.0109529183
C   C124      1.0  0.82340  0.45980  0.41780  1.0000 0.5445275933
C   C125      1.0  0.51300  0.28300  0.58170  1.0000 0.1809495867
C   C126      1.0  0.62100  0.29790  0.49070  1.0000 0.0622005717
C   C127      1.0  0.60650  0.25790  0.54120  1.0000 -0.2013287421
C   C128      1.0  0.06840  0.46130  0.41170  1.0000 -0.1253521748
C   C129      1.0  0.44020  0.34580  0.56870  1.0000 -0.2013287421
C   C130      1.0  0.95340  0.50150  0.41910  1.0000 -0.0109529183
C   C131      1.0  0.19460  0.57390  0.42090  1.0000 -0.1021995216
C   C132      1.0  0.50300  0.24650  0.64030  1.0000 -0.2370651222
C   C133      1.0  0.67380  0.11590  0.79230  1.0000 0.1012471665
C   C134      1.0  0.08020  0.61460  0.42900  1.0000 -0.1021995216
C   C135      1.0  0.62110  0.22070  0.73300  1.0000 0.1687445578
C   C136      1.0  0.54010  0.24650  0.77700  1.0000 -0.2013287421
C   C137      1.0  0.62760  0.26130  0.67540  1.0000 -0.2370651222
C   C138      1.0  0.53010  0.20480  0.82670  1.0000 0.0713331059
C   C139      1.0  0.95530  0.57870  0.42760  1.0000 -0.1169309036
C   C140      1.0  0.68810  0.15580  0.73970  1.0000 -0.2013287421
C   C141      1.0  0.46050  0.11780  0.01690  1.0000 0.1190587696
C   C142      1.0  0.31540  0.04830  0.90150  1.0000 0.5327952982
C   C143      1.0  0.19050  0.00330  0.91040  1.0000 -0.0109529183
C   C144      1.0  0.82340  0.04020  0.91780  1.0000 0.5445275933
C   C145      1.0  0.51300  0.21700  0.08170  1.0000 0.1809495867
C   C146      1.0  0.62100  0.20210  0.99070  1.0000 0.0622005717
C   C147      1.0  0.60650  0.24210  0.04120  1.0000 -0.2013287421
C   C148      1.0  0.06840  0.03870  0.91170  1.0000 -0.1253521748
C   C149      1.0  0.44020  0.15420  0.06870  1.0000 -0.2013287421
C   C150      1.0  0.95340  0.99850  0.91910  1.0000 -0.0109529183
C   C151      1.0  0.19460  0.92610  0.92090  1.0000 -0.1021995216
C   C152      1.0  0.50300  0.25350  0.14030  1.0000 -0.2370651222
C   C153      1.0  0.67380  0.38410  0.29230  1.0000 0.1012471665
C   C154      1.0  0.08020  0.88540  0.92900  1.0000 -0.1021995216
C   C155      1.0  0.62110  0.27930  0.23300  1.0000 0.1687445578
C   C156      1.0  0.54010  0.25350  0.27700  1.0000 -0.2013287421
C   C157      1.0  0.62760  0.23870  0.17540  1.0000 -0.2370651222
C   C158      1.0  0.53010  0.29520  0.32670  1.0000 0.0713331059
C   C159      1.0  0.95530  0.92130  0.92760  1.0000 -0.1169309036
C   C160      1.0  0.68810  0.34420  0.23970  1.0000 -0.2013287421
N   N1        1.0  0.04860  0.14010  0.52100  1.0000 -0.2465682446
N   N2        1.0  0.09540  0.35960  0.16590  1.0000 -0.2297064091
N   N3        1.0  0.04860  0.35990  0.02100  1.0000 -0.2465682446
N   N4        1.0  0.09540  0.14040  0.66590  1.0000 -0.2297064091
N   N5        1.0  0.45140  0.85990  0.02100  1.0000 -0.2465682446
N   N6        1.0  0.40460  0.64040  0.66590  1.0000 -0.2297064091
N   N7        1.0  0.45140  0.64010  0.52100  1.0000 -0.2465682446
N   N8        1.0  0.40460  0.85960  0.16590  1.0000 -0.2297064091
N   N9        1.0  0.95140  0.64010  0.97900  1.0000 -0.2465682446
N   N10       1.0  0.90460  0.85960  0.33410  1.0000 -0.2297064091
N   N11       1.0  0.95140  0.85990  0.47900  1.0000 -0.2465682446
N   N12       1.0  0.90460  0.64040  0.83410  1.0000 -0.2297064091
N   N13       1.0  0.54860  0.35990  0.47900  1.0000 -0.2465682446
N   N14       1.0  0.59540  0.14040  0.83410  1.0000 -0.2297064091
N   N15       1.0  0.54860  0.14010  0.97900  1.0000 -0.2465682446
N   N16       1.0  0.59540  0.35960  0.33410  1.0000 -0.2297064091
O   O1        1.0  0.80580  0.11780  0.60290  1.0000 -0.5928832262
O   O2        1.0  0.32190  0.10920  0.57820  1.0000 -0.5543907553
O   O3        1.0  0.21680  0.00140  0.59090  1.0000 -0.5565900623
O   O4        1.0  0.92240  0.01250  0.59930  1.0000 -0.5378831595
O   O5        1.0  0.80580  0.38220  0.10290  1.0000 -0.5928832262
O   O6        1.0  0.32190  0.39080  0.07820  1.0000 -0.5543907553
O   O7        1.0  0.21680  0.49860  0.09090  1.0000 -0.5565900623
O   O8        1.0  0.92240  0.48750  0.09930  1.0000 -0.5378831595
O   O9        1.0  0.69420  0.88220  0.10290  1.0000 -0.5928832262
O   O10       1.0  0.17810  0.89080  0.07820  1.0000 -0.5543907553
O   O11       1.0  0.28320  0.99860  0.09090  1.0000 -0.5565900623
O   O12       1.0  0.57760  0.98750  0.09930  1.0000 -0.5378831595
O   O13       1.0  0.69420  0.61780  0.60290  1.0000 -0.5928832262
O   O14       1.0  0.17810  0.60920  0.57820  1.0000 -0.5543907553
O   O15       1.0  0.28320  0.50140  0.59090  1.0000 -0.5565900623
O   O16       1.0  0.57760  0.51250  0.59930  1.0000 -0.5378831595
O   O17       1.0  0.19420  0.61780  0.89710  1.0000 -0.5928832262
O   O18       1.0  0.67810  0.60920  0.92180  1.0000 -0.5543907553
O   O19       1.0  0.78320  0.50140  0.90910  1.0000 -0.5565900623
O   O20       1.0  0.07760  0.51250  0.90070  1.0000 -0.5378831595
O   O21       1.0  0.19420  0.88220  0.39710  1.0000 -0.5928832262
O   O22       1.0  0.67810  0.89080  0.42180  1.0000 -0.5543907553
O   O23       1.0  0.78320  0.99860  0.40910  1.0000 -0.5565900623
O   O24       1.0  0.07760  0.98750  0.40070  1.0000 -0.5378831595
O   O25       1.0  0.30580  0.38220  0.39710  1.0000 -0.5928832262
O   O26       1.0  0.82190  0.39080  0.42180  1.0000 -0.5543907553
O   O27       1.0  0.71680  0.49860  0.40910  1.0000 -0.5565900623
O   O28       1.0  0.42240  0.48750  0.40070  1.0000 -0.5378831595
O   O29       1.0  0.30580  0.11780  0.89710  1.0000 -0.5928832262
O   O30       1.0  0.82190  0.10920  0.92180  1.0000 -0.5543907553
O   O31       1.0  0.71680  0.00140  0.90910  1.0000 -0.5565900623
O   O32       1.0  0.42240  0.01250  0.90070  1.0000 -0.5378831595
