# DDEC6 charges by PACMAN v1.1 (https://github.com/mtap-research/PACMAN-charge/)
data_2019[Zn][nan]2[ASR]1
_chemical_formula_sum              "Zn8 H24 C38 O28"
_cell_length_a       10.7842
_cell_length_b       11.6493
_cell_length_c       12.2495
_cell_angle_alpha    98.61
_cell_angle_beta     113.038
_cell_angle_gamma    98.627

_symmetry_space_group_name_H-M    "P 1"
_symmetry_Int_Tables_number       1

loop_
  _symmetry_equiv_pos_as_xyz
  'x, y, z'

loop_
  _atom_site_type_symbol
  _atom_site_label
  _atom_site_symmetry_multiplicity
  _atom_site_fract_x
  _atom_site_fract_y
  _atom_site_fract_z
  _atom_site_occupancy
  _atom_site_charge
Zn  Zn1       1.0  0.91117  0.36978  0.92690  1.0000 0.9551156012
Zn  Zn2       1.0  0.01691  0.92616  0.20849  1.0000 0.8973903505
Zn  Zn3       1.0  0.65275  0.07230  0.54972  1.0000 0.6992640344
Zn  Zn4       1.0  0.57650  0.02119  0.64493  1.0000 0.5925384013
Zn  Zn5       1.0  0.08883  0.63022  0.07310  1.0000 0.9551156012
Zn  Zn6       1.0  0.98309  0.07384  0.79151  1.0000 0.8973903505
Zn  Zn7       1.0  0.34725  0.92770  0.45028  1.0000 0.6992640344
Zn  Zn8       1.0  0.42350  0.97881  0.35507  1.0000 0.5925384013
H   H1        1.0  0.17431  0.34561  0.64603  1.0000 0.1216530555
H   H2        1.0  0.53136  0.46603  0.70686  1.0000 0.1216530555
H   H3        1.0  0.26002  0.69945  0.73759  1.0000 0.1273792405
H   H4        1.0  0.17096  0.31993  0.42176  1.0000 0.1216530555
H   H5        1.0  0.38463  0.70927  0.62885  1.0000 0.1362296191
H   H6        1.0  0.46842  0.63045  0.58348  1.0000 0.1273792405
H   H7        1.0  0.47890  0.64085  0.71604  1.0000 0.1273792405
H   H8        1.0  0.10272  0.48018  0.43888  1.0000 0.1216530555
H   H9        1.0  0.21847  0.54285  0.40616  1.0000 0.1273792405
H   H10       1.0  0.15857  0.61893  0.48187  1.0000 0.1362296191
H   H11       1.0  0.82600  0.01990  0.11900  1.0000 0.3831354228
H   H12       1.0  0.82800  0.92500  0.17500  1.0000 0.3363357035
H   H13       1.0  0.82569  0.65439  0.35397  1.0000 0.1216530555
H   H14       1.0  0.46864  0.53397  0.29314  1.0000 0.1216530555
H   H15       1.0  0.73998  0.30055  0.26241  1.0000 0.1273792405
H   H16       1.0  0.82904  0.68007  0.57824  1.0000 0.1216530555
H   H17       1.0  0.61537  0.29073  0.37115  1.0000 0.1362296191
H   H18       1.0  0.53158  0.36955  0.41652  1.0000 0.1273792405
H   H19       1.0  0.52110  0.35915  0.28396  1.0000 0.1273792405
H   H20       1.0  0.89728  0.51982  0.56112  1.0000 0.1216530555
H   H21       1.0  0.78153  0.45715  0.59384  1.0000 0.1362296191
H   H22       1.0  0.84143  0.38107  0.51813  1.0000 0.1362296191
H   H23       1.0  0.17400  0.98010  0.88100  1.0000 0.3831354228
H   H24       1.0  0.17200  0.07500  0.82500  1.0000 0.3363357035
C   C1        1.0  0.10440  0.51310  0.84400  1.0000 0.3162860123
C   C2        1.0  0.17230  0.41580  0.69210  1.0000 -0.1353363174
C   C3        1.0  0.23180  0.52320  0.67850  1.0000 0.05287813
C   C4        1.0  0.47340  0.40190  0.64280  1.0000 -0.1227246674
C   C5        1.0  0.05380  0.28630  0.77830  1.0000 0.5834439246
C   C6        1.0  0.43440  0.19860  0.53240  1.0000 0.2672282902
C   C7        1.0  0.34460  0.41420  0.56510  1.0000 0.0563742181
C   C8        1.0  0.22370  0.62590  0.74700  1.0000 -0.1112273692
C   C9        1.0  0.51990  0.29740  0.62920  1.0000 -0.1590759626
C   C10       1.0  0.10910  0.40780  0.77190  1.0000 -0.1590759626
C   C11       1.0  0.16530  0.74270  0.89810  1.0000 0.5959252564
C   C12       1.0  0.29530  0.52890  0.58640  1.0000 0.1792259065
C   C13       1.0  0.16350  0.62400  0.82970  1.0000 -0.1590759626
C   C14       1.0  0.25880  0.31480  0.47420  1.0000 -0.1112273692
C   C15       1.0  0.29910  0.20710  0.45830  1.0000 -0.1590759626
C   C16       1.0  0.65870  0.29240  0.72040  1.0000 0.4958815125
C   C17       1.0  0.19340  0.10380  0.36710  1.0000 0.5584776548
C   C18       1.0  0.41840  0.63760  0.63310  1.0000 -0.4594354483
C   C19       1.0  0.18310  0.54420  0.46700  1.0000 -0.4594354483
C   C20       1.0  0.89560  0.48690  0.15600  1.0000 0.3162860123
C   C21       1.0  0.82770  0.58420  0.30790  1.0000 -0.1353363174
C   C22       1.0  0.76820  0.47680  0.32150  1.0000 0.05287813
C   C23       1.0  0.52660  0.59810  0.35720  1.0000 -0.1227246674
C   C24       1.0  0.94620  0.71370  0.22170  1.0000 0.5834439246
C   C25       1.0  0.56560  0.80140  0.46760  1.0000 0.2672282902
C   C26       1.0  0.65540  0.58580  0.43490  1.0000 0.0563742181
C   C27       1.0  0.77630  0.37410  0.25300  1.0000 -0.1112273692
C   C28       1.0  0.48010  0.70260  0.37080  1.0000 -0.1590759626
C   C29       1.0  0.89090  0.59220  0.22810  1.0000 -0.1590759626
C   C30       1.0  0.83470  0.25730  0.10190  1.0000 0.5925384013
C   C31       1.0  0.70470  0.47110  0.41360  1.0000 0.1792259065
C   C32       1.0  0.83650  0.37600  0.17030  1.0000 -0.1590759626
C   C33       1.0  0.74120  0.68520  0.52580  1.0000 -0.1112273692
C   C34       1.0  0.70090  0.79290  0.54170  1.0000 -0.1590759626
C   C35       1.0  0.34130  0.70760  0.27960  1.0000 0.4958815125
C   C36       1.0  0.80660  0.89620  0.63290  1.0000 0.5584776548
C   C37       1.0  0.58160  0.36240  0.36690  1.0000 -0.4594354483
C   C38       1.0  0.81690  0.45580  0.53300  1.0000 -0.4594354483
O   O1        1.0  0.04730  0.50740  0.92130  1.0000 -0.5798116478
O   O2        1.0  0.00850  0.26580  0.85700  1.0000 -0.5607875439
O   O3        1.0  0.73050  0.38210  0.80360  1.0000 -0.4500953334
O   O4        1.0  0.11480  0.74930  0.97650  1.0000 -0.5715895149
O   O5        1.0  0.05520  0.19670  0.70700  1.0000 -0.5106409642
O   O6        1.0  0.21390  0.99940  0.35220  1.0000 -0.5176418575
O   O7        1.0  0.82520  0.94600  0.11140  1.0000 -0.655922726
O   O8        1.0  0.21830  0.83470  0.87690  1.0000 -0.5176418575
O   O9        1.0  0.47990  0.10350  0.51170  1.0000 -0.5025682452
O   O10       1.0  0.07410  0.11240  0.30730  1.0000 -0.4500953334
O   O11       1.0  0.72360  0.21830  0.68330  1.0000 -0.1849636736
O   O12       1.0  0.69570  0.09790  0.41540  1.0000 -0.2991141232
O   O13       1.0  0.67830  0.18880  0.75260  1.0000 -0.1266813951
O   O14       1.0  0.60920  0.99090  0.33050  1.0000 -0.2777994128
O   O15       1.0  0.95270  0.49260  0.07870  1.0000 -0.5798116478
O   O16       1.0  0.99150  0.73420  0.14300  1.0000 -0.5607875439
O   O17       1.0  0.26950  0.61790  0.19640  1.0000 -0.4500953334
O   O18       1.0  0.88520  0.25070  0.02350  1.0000 -0.5715895149
O   O19       1.0  0.94480  0.80330  0.29300  1.0000 -0.5106409642
O   O20       1.0  0.78610  0.00060  0.64780  1.0000 -0.5176418575
O   O21       1.0  0.17480  0.05400  0.88860  1.0000 -0.6529606136
O   O22       1.0  0.78170  0.16530  0.12310  1.0000 -0.5176418575
O   O23       1.0  0.52010  0.89650  0.48830  1.0000 -0.5025682452
O   O24       1.0  0.92590  0.88760  0.69270  1.0000 -0.4500953334
O   O25       1.0  0.27640  0.78170  0.31670  1.0000 -0.1874787959
O   O26       1.0  0.30430  0.90210  0.58460  1.0000 -0.2991141232
O   O27       1.0  0.32170  0.81120  0.24740  1.0000 -0.1266813951
O   O28       1.0  0.39080  0.00910  0.66950  1.0000 -0.2777994128
